TITL C-2778427-5640-1124 0.00382472233835453 125000 -971.839098845336 0 0 166 (C1) n - 1
REM
REM in /home/nfs/bkarasulu/CARBON/AIRSS/Generating-Clusters/REBO/Only-C1/SD-CG/HFTN-CG
REM
REM
REM
REM
REM
REM ./C.cell (11c1c37f851c82e70ff6c80c92926a4b)
REM
REM compiler GCC version 9.2.1 20190827 (Red Hat 9.2.1-1)
REM options -cpp -mtune=generic -march=x86-64 -g -O0 -fpre-include=/usr/include/finclude/math-vector-fortran.h
REM seed -47455644 329240271 1153099873 1065834650 1186155641 -2069924135 -376121255 -1936025966 1084768538 -1734842452 -2025033108 -1680961033 725202323 1414117619 1329902958 -1380691908 -982897278 1581100026 -1614836028 -1247322863 1109234307 -747163558 -810140819 538768589 1203095961 -231798752 -552941578 733015643 -1773668478 -1404911233 76958025 2135559128 787930851
REM
CELL 1.54180   50.00000   50.00000   50.00000   90.00000   90.00000   90.00000
LATT -1
SFAC C  
C      1  0.4232530000000  0.4749730000000  0.5598430000000 1.0
C      1  0.5249410000000  0.5110880000000  0.5887460000000 1.0
C      1  0.5912850000000  0.5233920000000  0.5472860000000 1.0
C      1  0.4499460000000  0.4796130000000  0.6040570000000 1.0
C      1  0.3773100000000  0.5642710000000  0.5337380000000 1.0
C      1  0.4629350000000  0.3935170000000  0.5336460000000 1.0
C      1  0.4102130000000  0.4845000000000  0.4523190000000 1.0
C      1  0.4843400000000  0.5044610000000  0.4266210000000 1.0
C      1  0.5412050000000  0.5641780000000  0.5177600000000 1.0
C      1  0.4056750000000  0.4523310000000  0.4626510000000 1.0
C      1  0.5270480000000  0.3996930000000  0.5366800000000 1.0
C      1  0.4763040000000  0.5228180000000  0.5866830000000 1.0
C      1  0.4730960000000  0.4220240000000  0.4878350000000 1.0
C      1  0.4798070000000  0.5463110000000  0.4593530000000 1.0
C      1  0.4950740000000  0.3750290000000  0.4960180000000 1.0
C      1  0.4136240000000  0.4645980000000  0.5346970000000 1.0
C      1  0.5301150000000  0.5404780000000  0.5866560000000 1.0
C      1  0.5709580000000  0.4768170000000  0.4952750000000 1.0
C      1  0.5669100000000  0.5931890000000  0.5153880000000 1.0
C      1  0.4225560000000  0.5203280000000  0.5309580000000 1.0
C      1  0.4715590000000  0.5073110000000  0.4565520000000 1.0
C      1  0.5116730000000  0.4880680000000  0.4404730000000 1.0
C      1  0.4379210000000  0.4351700000000  0.5012410000000 1.0
C      1  0.5146750000000  0.5197910000000  0.4466750000000 1.0
C      1  0.5666430000000  0.4706880000000  0.5285950000000 1.0
C      1  0.5807300000000  0.5690450000000  0.4732510000000 1.0
C      1  0.4955740000000  0.4202180000000  0.4540210000000 1.0
C      1  0.4288600000000  0.5281660000000  0.5809720000000 1.0
C      1  0.4153050000000  0.5465720000000  0.4645220000000 1.0
C      1  0.5916520000000  0.5075070000000  0.4457250000000 1.0
C      1  0.5919000000000  0.5529520000000  0.4948900000000 1.0
C      1  0.5524070000000  0.4104030000000  0.5454260000000 1.0
C      1  0.5624250000000  0.5267130000000  0.4263110000000 1.0
C      1  0.5084350000000  0.5331590000000  0.5014490000000 1.0
C      1  0.5318650000000  0.4908120000000  0.4009650000000 1.0
C      1  0.5688810000000  0.4692410000000  0.4643250000000 1.0
C      1  0.4524060000000  0.5421960000000  0.5845130000000 1.0
C      1  0.4601130000000  0.4965110000000  0.5766710000000 1.0
C      1  0.4596040000000  0.4394110000000  0.5710630000000 1.0
C      1  0.5228010000000  0.4365060000000  0.5515150000000 1.0
C      1  0.4794320000000  0.4726700000000  0.5518420000000 1.0
C      1  0.4825860000000  0.6043240000000  0.5250240000000 1.0
C      1  0.4803850000000  0.4129450000000  0.4310200000000 1.0
C      1  0.3960200000000  0.5390050000000  0.5268890000000 1.0
C      1  0.4590160000000  0.5636390000000  0.5669810000000 1.0
C      1  0.5252510000000  0.4080180000000  0.5075100000000 1.0
C      1  0.4667060000000  0.3919690000000  0.4999670000000 1.0
C      1  0.4274450000000  0.4425330000000  0.5240300000000 1.0
C      1  0.5321790000000  0.5776570000000  0.4812310000000 1.0
C      1  0.4267170000000  0.5159550000000  0.4275210000000 1.0
C      1  0.5330540000000  0.4866220000000  0.4874640000000 1.0
C      1  0.4675630000000  0.4721870000000  0.4984490000000 1.0
C      1  0.5126850000000  0.4863730000000  0.5150150000000 1.0
C      1  0.5747590000000  0.5553740000000  0.4426220000000 1.0
C      1  0.4429950000000  0.5636870000000  0.4686910000000 1.0
C      1  0.5465530000000  0.4236490000000  0.4702740000000 1.0
C      1  0.4433280000000  0.5432060000000  0.4228620000000 1.0
C      1  0.5360740000000  0.4676100000000  0.5307560000000 1.0
C      1  0.5827890000000  0.4399690000000  0.5052970000000 1.0
C      1  0.4400060000000  0.4621160000000  0.5796770000000 1.0
C      1  0.4249760000000  0.4826200000000  0.4243080000000 1.0
C      1  0.4119140000000  0.5190500000000  0.4563740000000 1.0
C      1  0.4620390000000  0.5714580000000  0.4195990000000 1.0
C      1  0.5554310000000  0.5173220000000  0.5638250000000 1.0
C      1  0.4872020000000  0.4679390000000  0.4413310000000 1.0
C      1  0.5655530000000  0.4509100000000  0.5519090000000 1.0
C      1  0.4717950000000  0.5436900000000  0.4052260000000 1.0
C      1  0.4655230000000  0.4751790000000  0.4660250000000 1.0
C      1  0.6015980000000  0.5000070000000  0.5059720000000 1.0
C      1  0.4759050000000  0.5000060000000  0.6121960000000 1.0
C      1  0.4965940000000  0.5315180000000  0.5624970000000 1.0
C      1  0.5504210000000  0.5433940000000  0.4718570000000 1.0
C      1  0.4251700000000  0.4318730000000  0.4642120000000 1.0
C      1  0.5308670000000  0.4720750000000  0.5939740000000 1.0
C      1  0.5229130000000  0.4409290000000  0.5910760000000 1.0
C      1  0.4999340000000  0.5326690000000  0.4188400000000 1.0
C      1  0.4571330000000  0.5548110000000  0.5380730000000 1.0
C      1  0.4427080000000  0.4079530000000  0.4813890000000 1.0
C      1  0.4909610000000  0.4215180000000  0.5299910000000 1.0
C      1  0.5216300000000  0.5967390000000  0.5498700000000 1.0
C      1  0.5054360000000  0.6048020000000  0.4539600000000 1.0
C      1  0.4383200000000  0.5784710000000  0.5259140000000 1.0
C      1  0.3981590000000  0.5098680000000  0.5121020000000 1.0
C      1  0.5130740000000  0.4551910000000  0.5009080000000 1.0
C      1  0.5107100000000  0.4942840000000  0.5642550000000 1.0
C      1  0.5033390000000  0.4729840000000  0.3930860000000 1.0
C      1  0.4503410000000  0.4684350000000  0.4079680000000 1.0
C      1  0.4272260000000  0.5665390000000  0.4967220000000 1.0
C      1  0.5267590000000  0.4672140000000  0.5613010000000 1.0
C      1  0.5425630000000  0.3897320000000  0.4675290000000 1.0
C      1  0.5161140000000  0.5301340000000  0.5345420000000 1.0
C      1  0.5106590000000  0.5799490000000  0.4403720000000 1.0
C      1  0.4786330000000  0.4604940000000  0.4129970000000 1.0
C      1  0.5784980000000  0.5519910000000  0.5539230000000 1.0
C      1  0.4966800000000  0.5225210000000  0.4743030000000 1.0
C      1  0.4063250000000  0.5697840000000  0.5211660000000 1.0
C      1  0.4513720000000  0.5344840000000  0.4529350000000 1.0
C      1  0.4488150000000  0.5219720000000  0.5170300000000 1.0
C      1  0.5288500000000  0.5723190000000  0.5625700000000 1.0
C      1  0.6005910000000  0.4660940000000  0.5083680000000 1.0
C      1  0.4763950000000  0.5265900000000  0.5355550000000 1.0
C      1  0.4541170000000  0.4450760000000  0.4724870000000 1.0
C      1  0.4932880000000  0.4465160000000  0.4636450000000 1.0
C      1  0.4559710000000  0.5503240000000  0.5040530000000 1.0
C      1  0.5598540000000  0.5648100000000  0.4150540000000 1.0
C      1  0.4961150000000  0.3886230000000  0.5267310000000 1.0
C      1  0.5019450000000  0.4764120000000  0.4774370000000 1.0
C      1  0.5484650000000  0.4296300000000  0.5716830000000 1.0
C      1  0.4925370000000  0.5987990000000  0.5514840000000 1.0
C      1  0.5806670000000  0.5638920000000  0.5232900000000 1.0
C      1  0.5052080000000  0.5599070000000  0.5791720000000 1.0
C      1  0.4972810000000  0.4238440000000  0.5626740000000 1.0
C      1  0.5897070000000  0.4827970000000  0.4470890000000 1.0
C      1  0.5356970000000  0.5539250000000  0.5431210000000 1.0
C      1  0.4548690000000  0.4944090000000  0.5452210000000 1.0
C      1  0.5823120000000  0.4981110000000  0.5682730000000 1.0
C      1  0.5084530000000  0.5669330000000  0.4951980000000 1.0
C      1  0.4836440000000  0.4725850000000  0.5841440000000 1.0
C      1  0.3986170000000  0.4782800000000  0.5143650000000 1.0
C      1  0.5708600000000  0.5310440000000  0.5208980000000 1.0
C      1  0.5225960000000  0.5327760000000  0.3964940000000 1.0
C      1  0.5324640000000  0.5659040000000  0.4530310000000 1.0
C      1  0.5577290000000  0.5474670000000  0.5756380000000 1.0
C      1  0.5047960000000  0.4886460000000  0.6033430000000 1.0
C      1  0.5031320000000  0.5055500000000  0.3898300000000 1.0
C      1  0.4758250000000  0.4446670000000  0.5095390000000 1.0
C      1  0.5712690000000  0.4403090000000  0.4790650000000 1.0
C      1  0.4866370000000  0.5656160000000  0.4368930000000 1.0
C      1  0.5427360000000  0.5501040000000  0.3996020000000 1.0
C      1  0.5972530000000  0.5235050000000  0.4919400000000 1.0
C      1  0.4716130000000  0.4455570000000  0.5414170000000 1.0
C      1  0.5267620000000  0.4361080000000  0.5203030000000 1.0
C      1  0.4889290000000  0.4404800000000  0.5884310000000 1.0
C      1  0.5206530000000  0.4092030000000  0.4555460000000 1.0
C      1  0.5340900000000  0.4537750000000  0.4756450000000 1.0
C      1  0.4624840000000  0.5890000000000  0.4810780000000 1.0
C      1  0.5711250000000  0.4216930000000  0.5252780000000 1.0
C      1  0.4554030000000  0.4111020000000  0.5534910000000 1.0
C      1  0.5331200000000  0.4414710000000  0.4083040000000 1.0
C      1  0.5809180000000  0.5301440000000  0.4640650000000 1.0
C      1  0.4596760000000  0.4918910000000  0.5132480000000 1.0
C      1  0.4937250000000  0.4975710000000  0.5364940000000 1.0
C      1  0.5878400000000  0.4924530000000  0.5351570000000 1.0
C      1  0.5076160000000  0.4405580000000  0.3944740000000 1.0
C      1  0.4833730000000  0.4286590000000  0.4079800000000 1.0
C      1  0.4260750000000  0.5070450000000  0.5586330000000 1.0
C      1  0.5426520000000  0.5276880000000  0.4473140000000 1.0
C      1  0.5208580000000  0.3872160000000  0.4889150000000 1.0
C      1  0.4003430000000  0.5004850000000  0.4812000000000 1.0
C      1  0.5396660000000  0.5426560000000  0.4988710000000 1.0
C      1  0.3970290000000  0.4678610000000  0.4860740000000 1.0
C      1  0.4579360000000  0.5979120000000  0.5121170000000 1.0
C      1  0.5389170000000  0.4727030000000  0.4497010000000 1.0
C      1  0.4455550000000  0.5005490000000  0.4034550000000 1.0
C      1  0.4788120000000  0.5611290000000  0.4862050000000 1.0
C      1  0.4929650000000  0.6036430000000  0.4793960000000 1.0
C      1  0.5389970000000  0.4659300000000  0.4191510000000 1.0
C      1  0.5331870000000  0.5972510000000  0.5188290000000 1.0
C      1  0.4727480000000  0.5133140000000  0.3968750000000 1.0
C      1  0.5444340000000  0.5158490000000  0.5355950000000 1.0
C      1  0.5043280000000  0.6053390000000  0.5054970000000 1.0
C      1  0.5599300000000  0.5857880000000  0.4862850000000 1.0
C      1  0.5555670000000  0.5044450000000  0.5057530000000 1.0
C      1  0.4823120000000  0.5792240000000  0.5709440000000 1.0
C      1  0.5552410000000  0.5113650000000  0.4051560000000 1.0
C      1  0.5543830000000  0.4934160000000  0.5871920000000 1.0
END
