TITL C-2778423-5760-674 -0.00105136760546053 125000 -882.197504292807 0 0 151 (C1) n - 1
REM
REM in /home/nfs/bkarasulu/CARBON/AIRSS/Generating-Clusters/REBO/Only-C1/SD-CG/HFTN-CG
REM
REM
REM
REM
REM
REM ./C.cell (11c1c37f851c82e70ff6c80c92926a4b)
REM
REM compiler GCC version 9.2.1 20190827 (Red Hat 9.2.1-1)
REM options -cpp -mtune=generic -march=x86-64 -g -O0 -fpre-include=/usr/include/finclude/math-vector-fortran.h
REM seed 1383422196 386998101 -2114591661 -2029872017 -567000632 34490809 1656909779 892238758 2090558566 -1830114037 386341544 1271097999 -495510267 1125132165 905386601 1869436416 2066089687 2067214242 1764300981 1863700928 2014726487 827905856 1588419146 1507044573 363041395 -2101986735 -1734281791 100110341 85431408 -719083434 -705854445 -72954925 1943829073
REM
CELL 1.54180   50.00000   50.00000   50.00000   90.00000   90.00000   90.00000
LATT -1
SFAC C  
C      1  0.5902370000000  0.5402670000000  0.4790640000000 1.0
C      1  0.5537390000000  0.5306160000000  0.5626210000000 1.0
C      1  0.4233320000000  0.5673520000000  0.5389500000000 1.0
C      1  0.5015890000000  0.5336360000000  0.5829810000000 1.0
C      1  0.5017390000000  0.5140860000000  0.4610540000000 1.0
C      1  0.5748980000000  0.5082700000000  0.5681200000000 1.0
C      1  0.4680850000000  0.5575470000000  0.5209290000000 1.0
C      1  0.4384890000000  0.5782660000000  0.4480420000000 1.0
C      1  0.4390570000000  0.5849760000000  0.4944630000000 1.0
C      1  0.4589560000000  0.4662150000000  0.4811750000000 1.0
C      1  0.4545660000000  0.5696060000000  0.4739280000000 1.0
C      1  0.5393210000000  0.5322230000000  0.5313410000000 1.0
C      1  0.4472980000000  0.4421650000000  0.5535200000000 1.0
C      1  0.5233750000000  0.5925460000000  0.4833830000000 1.0
C      1  0.5678280000000  0.4991860000000  0.5038970000000 1.0
C      1  0.4148610000000  0.4834140000000  0.4434890000000 1.0
C      1  0.4531430000000  0.4154750000000  0.4601970000000 1.0
C      1  0.5185430000000  0.4933450000000  0.4313900000000 1.0
C      1  0.5509790000000  0.4718690000000  0.4227740000000 1.0
C      1  0.5403080000000  0.4455480000000  0.4415440000000 1.0
C      1  0.4471860000000  0.4739870000000  0.5776090000000 1.0
C      1  0.4675110000000  0.5282260000000  0.5858850000000 1.0
C      1  0.4830090000000  0.4261610000000  0.4543920000000 1.0
C      1  0.5097880000000  0.5089860000000  0.3962410000000 1.0
C      1  0.4228850000000  0.4452210000000  0.5295030000000 1.0
C      1  0.5458650000000  0.4968540000000  0.5818340000000 1.0
C      1  0.4305930000000  0.5202850000000  0.5218870000000 1.0
C      1  0.4618480000000  0.4129310000000  0.5462600000000 1.0
C      1  0.4534280000000  0.5631300000000  0.4227570000000 1.0
C      1  0.5250600000000  0.4369690000000  0.5971170000000 1.0
C      1  0.4562230000000  0.4455100000000  0.5074360000000 1.0
C      1  0.5635380000000  0.5207860000000  0.4819780000000 1.0
C      1  0.5196700000000  0.4786790000000  0.4600190000000 1.0
C      1  0.4463630000000  0.5825750000000  0.5253790000000 1.0
C      1  0.5054160000000  0.5473390000000  0.5458080000000 1.0
C      1  0.5484540000000  0.4242340000000  0.4617550000000 1.0
C      1  0.4193510000000  0.4573500000000  0.4978850000000 1.0
C      1  0.5697610000000  0.4973580000000  0.4316930000000 1.0
C      1  0.4913830000000  0.4859810000000  0.5435110000000 1.0
C      1  0.5750210000000  0.4737790000000  0.4545300000000 1.0
C      1  0.4424360000000  0.4751380000000  0.5467140000000 1.0
C      1  0.5930970000000  0.5210960000000  0.5438000000000 1.0
C      1  0.4726780000000  0.5969460000000  0.5123800000000 1.0
C      1  0.4304270000000  0.5402910000000  0.4223420000000 1.0
C      1  0.4334720000000  0.5384230000000  0.5498570000000 1.0
C      1  0.5551790000000  0.5622230000000  0.5525080000000 1.0
C      1  0.4924150000000  0.5666940000000  0.4305600000000 1.0
C      1  0.5331980000000  0.5198420000000  0.4695700000000 1.0
C      1  0.5669020000000  0.4685790000000  0.5362160000000 1.0
C      1  0.4027520000000  0.4849650000000  0.5037640000000 1.0
C      1  0.4795380000000  0.5870550000000  0.4830020000000 1.0
C      1  0.4360350000000  0.4334840000000  0.4824810000000 1.0
C      1  0.5488880000000  0.5484640000000  0.4924960000000 1.0
C      1  0.5494930000000  0.4393900000000  0.5859040000000 1.0
C      1  0.5199580000000  0.5978180000000  0.5139090000000 1.0
C      1  0.5098440000000  0.4408350000000  0.4527510000000 1.0
C      1  0.4304130000000  0.4753930000000  0.4709740000000 1.0
C      1  0.4991400000000  0.4545790000000  0.5944030000000 1.0
C      1  0.4417510000000  0.4188900000000  0.5216560000000 1.0
C      1  0.5321990000000  0.5483360000000  0.4220310000000 1.0
C      1  0.4793680000000  0.5578550000000  0.5738550000000 1.0
C      1  0.5536070000000  0.4720640000000  0.5051550000000 1.0
C      1  0.4661650000000  0.5403150000000  0.5479730000000 1.0
C      1  0.4932740000000  0.5510950000000  0.4731750000000 1.0
C      1  0.4762960000000  0.4625800000000  0.5274500000000 1.0
C      1  0.4170790000000  0.5337580000000  0.4494570000000 1.0
C      1  0.4994300000000  0.5231470000000  0.5265270000000 1.0
C      1  0.5201650000000  0.4575810000000  0.4181240000000 1.0
C      1  0.4743420000000  0.5122840000000  0.5076010000000 1.0
C      1  0.4514590000000  0.4282160000000  0.4301500000000 1.0
C      1  0.5426950000000  0.5831350000000  0.5287380000000 1.0
C      1  0.4314390000000  0.4879560000000  0.4211090000000 1.0
C      1  0.4878270000000  0.4943580000000  0.4146560000000 1.0
C      1  0.5054250000000  0.4455640000000  0.4991240000000 1.0
C      1  0.5283670000000  0.4524650000000  0.5511770000000 1.0
C      1  0.5008970000000  0.5170840000000  0.4922720000000 1.0
C      1  0.5230840000000  0.5603070000000  0.4766690000000 1.0
C      1  0.5596750000000  0.5612990000000  0.5130300000000 1.0
C      1  0.4924620000000  0.5778860000000  0.5503820000000 1.0
C      1  0.5583420000000  0.4403100000000  0.5537460000000 1.0
C      1  0.4867820000000  0.4853710000000  0.4534530000000 1.0
C      1  0.5279800000000  0.4073440000000  0.4689900000000 1.0
C      1  0.5939700000000  0.4570760000000  0.5210190000000 1.0
C      1  0.5498610000000  0.4705510000000  0.4712580000000 1.0
C      1  0.5171820000000  0.4341810000000  0.5287950000000 1.0
C      1  0.5784370000000  0.4314590000000  0.5290020000000 1.0
C      1  0.5205150000000  0.5583820000000  0.5199020000000 1.0
C      1  0.4380310000000  0.5166240000000  0.4087370000000 1.0
C      1  0.5055200000000  0.4833170000000  0.6040490000000 1.0
C      1  0.5364840000000  0.4100290000000  0.5175230000000 1.0
C      1  0.5001600000000  0.5935800000000  0.4585330000000 1.0
C      1  0.4790690000000  0.5445120000000  0.4115250000000 1.0
C      1  0.3970290000000  0.5066030000000  0.4515160000000 1.0
C      1  0.5131340000000  0.4129100000000  0.4953350000000 1.0
C      1  0.4708140000000  0.5868800000000  0.4418190000000 1.0
C      1  0.5684390000000  0.4303530000000  0.4811150000000 1.0
C      1  0.5704940000000  0.5621600000000  0.4618790000000 1.0
C      1  0.4793980000000  0.5109000000000  0.5588440000000 1.0
C      1  0.5649710000000  0.5125020000000  0.5293470000000 1.0
C      1  0.4697030000000  0.4512630000000  0.5776780000000 1.0
C      1  0.4855170000000  0.4320730000000  0.5310060000000 1.0
C      1  0.5074050000000  0.3792500000000  0.5434990000000 1.0
C      1  0.5803990000000  0.5492490000000  0.5324690000000 1.0
C      1  0.5332070000000  0.4930350000000  0.6057550000000 1.0
C      1  0.4561970000000  0.4081350000000  0.4932050000000 1.0
C      1  0.5794100000000  0.5327440000000  0.4473190000000 1.0
C      1  0.5639300000000  0.4198070000000  0.5078400000000 1.0
C      1  0.5214500000000  0.5771630000000  0.4371130000000 1.0
C      1  0.4400430000000  0.4918070000000  0.5249680000000 1.0
C      1  0.5096500000000  0.5366870000000  0.4037830000000 1.0
C      1  0.4913240000000  0.4646520000000  0.4265070000000 1.0
C      1  0.4534410000000  0.5345940000000  0.5040320000000 1.0
C      1  0.4053910000000  0.4732520000000  0.5317640000000 1.0
C      1  0.4131620000000  0.5480420000000  0.5169180000000 1.0
C      1  0.5328270000000  0.3848600000000  0.5349580000000 1.0
C      1  0.4627370000000  0.5373320000000  0.4731700000000 1.0
C      1  0.4169200000000  0.5598350000000  0.4647780000000 1.0
C      1  0.5063670000000  0.5011910000000  0.5772950000000 1.0
C      1  0.4376740000000  0.5222560000000  0.5763730000000 1.0
C      1  0.5422250000000  0.5473480000000  0.4532060000000 1.0
C      1  0.4683130000000  0.4446890000000  0.4219290000000 1.0
C      1  0.5287350000000  0.4853320000000  0.5573760000000 1.0
C      1  0.4891690000000  0.5362740000000  0.4432190000000 1.0
C      1  0.4979020000000  0.4604070000000  0.5617110000000 1.0
C      1  0.4858800000000  0.4516540000000  0.4746720000000 1.0
C      1  0.5587270000000  0.5273010000000  0.4231700000000 1.0
C      1  0.4261840000000  0.4960080000000  0.5764960000000 1.0
C      1  0.5906160000000  0.5032130000000  0.4584940000000 1.0
C      1  0.5855350000000  0.4531280000000  0.4754680000000 1.0
C      1  0.5199700000000  0.4973480000000  0.5298230000000 1.0
C      1  0.4624990000000  0.5092730000000  0.4565130000000 1.0
C      1  0.4060360000000  0.4884860000000  0.5563530000000 1.0
C      1  0.5986540000000  0.4679250000000  0.4959310000000 1.0
C      1  0.4943830000000  0.5644350000000  0.5041630000000 1.0
C      1  0.4850160000000  0.3925190000000  0.5368740000000 1.0
C      1  0.4329160000000  0.5094760000000  0.4677280000000 1.0
C      1  0.5758920000000  0.4771490000000  0.5650360000000 1.0
C      1  0.5962870000000  0.5281760000000  0.5102920000000 1.0
C      1  0.5237260000000  0.4676270000000  0.4913210000000 1.0
C      1  0.4028820000000  0.5030690000000  0.4831890000000 1.0
C      1  0.4953780000000  0.5959910000000  0.5286930000000 1.0
C      1  0.5329240000000  0.4891640000000  0.4008480000000 1.0
C      1  0.4620510000000  0.5020820000000  0.4253020000000 1.0
C      1  0.5713270000000  0.4601090000000  0.5858770000000 1.0
C      1  0.4837000000000  0.4077680000000  0.5073380000000 1.0
C      1  0.4098120000000  0.5579730000000  0.4907390000000 1.0
C      1  0.5308810000000  0.5145040000000  0.5035550000000 1.0
C      1  0.5545270000000  0.5847280000000  0.4729510000000 1.0
C      1  0.5278780000000  0.5486390000000  0.5686940000000 1.0
C      1  0.5974120000000  0.5009510000000  0.4895380000000 1.0
C      1  0.4636240000000  0.4846440000000  0.5063980000000 1.0
END
