TITL C-2778430-5657-1338 -0.00236865875377608 125000 -1133.32106492372 0 0 193 (C1) n - 1
REM
REM in /home/nfs/bkarasulu/CARBON/AIRSS/Generating-Clusters/REBO/Only-C1/SD-CG/HFTN-CG
REM
REM
REM
REM
REM
REM ./C.cell (11c1c37f851c82e70ff6c80c92926a4b)
REM
REM compiler GCC version 9.2.1 20190827 (Red Hat 9.2.1-1)
REM options -cpp -mtune=generic -march=x86-64 -g -O0 -fpre-include=/usr/include/finclude/math-vector-fortran.h
REM seed 2130580324 -1059941839 645412736 1476101290 -774101048 634260841 -540563320 -1838767540 795107237 -920786867 1051832086 1258473660 310763812 -1240715143 789671008 231293884 -696220927 -1981290098 1633317463 330734044 -513106449 149979895 691874977 -1049018154 1467233722 1882965204 2110362836 1287008808 262385340 551289811 181020007 -1178999252 -1822431791
REM
CELL 1.54180   50.00000   50.00000   50.00000   90.00000   90.00000   90.00000
LATT -1
SFAC C  
C      1  0.5418420000000  0.4026540000000  0.5565690000000 1.0
C      1  0.4864440000000  0.4127320000000  0.5667900000000 1.0
C      1  0.5454660000000  0.5031780000000  0.4007430000000 1.0
C      1  0.5615600000000  0.5531340000000  0.5842620000000 1.0
C      1  0.5666650000000  0.5116610000000  0.4999900000000 1.0
C      1  0.4695470000000  0.5407340000000  0.5611890000000 1.0
C      1  0.5577520000000  0.4404580000000  0.4555820000000 1.0
C      1  0.4433050000000  0.5356100000000  0.5015200000000 1.0
C      1  0.4698150000000  0.6078030000000  0.4395610000000 1.0
C      1  0.6001570000000  0.4724540000000  0.4674750000000 1.0
C      1  0.5699190000000  0.5754810000000  0.5992270000000 1.0
C      1  0.5795370000000  0.4510360000000  0.4739620000000 1.0
C      1  0.4445630000000  0.4928230000000  0.4572540000000 1.0
C      1  0.4212750000000  0.4430280000000  0.5314950000000 1.0
C      1  0.4978140000000  0.5160040000000  0.5396950000000 1.0
C      1  0.5138900000000  0.4886000000000  0.4972050000000 1.0
C      1  0.4656110000000  0.5675600000000  0.3941080000000 1.0
C      1  0.4978340000000  0.4060380000000  0.4583520000000 1.0
C      1  0.6131330000000  0.4875880000000  0.5321780000000 1.0
C      1  0.4236620000000  0.4554800000000  0.5836220000000 1.0
C      1  0.5148090000000  0.5390900000000  0.4878780000000 1.0
C      1  0.4905950000000  0.5212210000000  0.5801200000000 1.0
C      1  0.4795600000000  0.4725770000000  0.4810990000000 1.0
C      1  0.5838420000000  0.5397270000000  0.5703300000000 1.0
C      1  0.5577000000000  0.4542170000000  0.4295900000000 1.0
C      1  0.5103620000000  0.5565350000000  0.4384630000000 1.0
C      1  0.4569310000000  0.6040660000000  0.4640130000000 1.0
C      1  0.5417990000000  0.4336520000000  0.5065800000000 1.0
C      1  0.4324590000000  0.5283790000000  0.4154450000000 1.0
C      1  0.6028180000000  0.5375100000000  0.4966390000000 1.0
C      1  0.6056510000000  0.4975610000000  0.4547170000000 1.0
C      1  0.4605540000000  0.4940990000000  0.6580110000000 1.0
C      1  0.5317730000000  0.5586430000000  0.4139210000000 1.0
C      1  0.5223060000000  0.5353150000000  0.5536870000000 1.0
C      1  0.4253130000000  0.5168230000000  0.5688610000000 1.0
C      1  0.5089430000000  0.4371430000000  0.5594620000000 1.0
C      1  0.4922450000000  0.5711090000000  0.5241680000000 1.0
C      1  0.5820940000000  0.5022130000000  0.5787880000000 1.0
C      1  0.4611170000000  0.5443110000000  0.3811260000000 1.0
C      1  0.5248350000000  0.5353720000000  0.3904920000000 1.0
C      1  0.5475740000000  0.4484690000000  0.5431630000000 1.0
C      1  0.4769940000000  0.6083700000000  0.4849300000000 1.0
C      1  0.4887940000000  0.4684220000000  0.4064400000000 1.0
C      1  0.4387700000000  0.4640150000000  0.4725740000000 1.0
C      1  0.5227280000000  0.5118810000000  0.5866260000000 1.0
C      1  0.5370370000000  0.5951990000000  0.5061130000000 1.0
C      1  0.4922750000000  0.5411720000000  0.5208110000000 1.0
C      1  0.4677290000000  0.5074360000000  0.4145700000000 1.0
C      1  0.4496180000000  0.5238970000000  0.4701260000000 1.0
C      1  0.4794800000000  0.4368300000000  0.5863890000000 1.0
C      1  0.5154580000000  0.5049250000000  0.3851240000000 1.0
C      1  0.5524370000000  0.5412210000000  0.4581570000000 1.0
C      1  0.5736940000000  0.4039890000000  0.4594840000000 1.0
C      1  0.5264550000000  0.4411940000000  0.5875160000000 1.0
C      1  0.5380380000000  0.5146900000000  0.4488280000000 1.0
C      1  0.5917200000000  0.5566220000000  0.5208590000000 1.0
C      1  0.4784990000000  0.4532600000000  0.4311240000000 1.0
C      1  0.4401040000000  0.5981860000000  0.5352410000000 1.0
C      1  0.4955460000000  0.5131680000000  0.4917420000000 1.0
C      1  0.5448950000000  0.5776670000000  0.5406580000000 1.0
C      1  0.5330020000000  0.4430460000000  0.4756910000000 1.0
C      1  0.5333080000000  0.5435300000000  0.5075850000000 1.0
C      1  0.5119650000000  0.4839820000000  0.4106860000000 1.0
C      1  0.5053950000000  0.6026870000000  0.5639410000000 1.0
C      1  0.5362710000000  0.4884260000000  0.6068540000000 1.0
C      1  0.4706100000000  0.4785420000000  0.3870730000000 1.0
C      1  0.5515280000000  0.4775050000000  0.4084900000000 1.0
C      1  0.6119330000000  0.5213440000000  0.5254060000000 1.0
C      1  0.4171200000000  0.5425520000000  0.5586710000000 1.0
C      1  0.4540670000000  0.5759550000000  0.5508400000000 1.0
C      1  0.5739740000000  0.5301130000000  0.4778510000000 1.0
C      1  0.4464990000000  0.5682540000000  0.4970280000000 1.0
C      1  0.5042230000000  0.5146630000000  0.4528600000000 1.0
C      1  0.4096740000000  0.5229180000000  0.4837370000000 1.0
C      1  0.4617060000000  0.4170130000000  0.4327600000000 1.0
C      1  0.4544880000000  0.5472840000000  0.5320810000000 1.0
C      1  0.4252040000000  0.4659850000000  0.5513210000000 1.0
C      1  0.4900230000000  0.4239110000000  0.4197030000000 1.0
C      1  0.4323290000000  0.4597060000000  0.4141410000000 1.0
C      1  0.5932610000000  0.5005810000000  0.5085480000000 1.0
C      1  0.4938190000000  0.4799000000000  0.5599600000000 1.0
C      1  0.5384290000000  0.5580990000000  0.5613970000000 1.0
C      1  0.4855690000000  0.4047490000000  0.5278740000000 1.0
C      1  0.4420650000000  0.5427440000000  0.4450440000000 1.0
C      1  0.4842840000000  0.4910640000000  0.4605410000000 1.0
C      1  0.5352050000000  0.5249110000000  0.5287690000000 1.0
C      1  0.4427250000000  0.4799620000000  0.3968260000000 1.0
C      1  0.4167390000000  0.5095360000000  0.4468040000000 1.0
C      1  0.4682200000000  0.5183720000000  0.3885410000000 1.0
C      1  0.6047980000000  0.4833270000000  0.5630060000000 1.0
C      1  0.5712040000000  0.4505570000000  0.5040720000000 1.0
C      1  0.4179420000000  0.4336370000000  0.4530360000000 1.0
C      1  0.5364490000000  0.4769940000000  0.5411680000000 1.0
C      1  0.4810780000000  0.5319740000000  0.4678570000000 1.0
C      1  0.4074130000000  0.4507660000000  0.5080700000000 1.0
C      1  0.4174990000000  0.5546060000000  0.4242800000000 1.0
C      1  0.5761070000000  0.4929400000000  0.5461890000000 1.0
C      1  0.4949140000000  0.4305630000000  0.5076140000000 1.0
C      1  0.4646770000000  0.5148110000000  0.5317380000000 1.0
C      1  0.4063640000000  0.4815410000000  0.4570050000000 1.0
C      1  0.4247010000000  0.5153520000000  0.5197590000000 1.0
C      1  0.4152480000000  0.4953140000000  0.4841150000000 1.0
C      1  0.4826660000000  0.4600160000000  0.5084880000000 1.0
C      1  0.5185130000000  0.4270530000000  0.5282740000000 1.0
C      1  0.4125040000000  0.5427470000000  0.5300570000000 1.0
C      1  0.5089330000000  0.5812620000000  0.5893160000000 1.0
C      1  0.5421190000000  0.4908060000000  0.5678380000000 1.0
C      1  0.4801100000000  0.6157970000000  0.5107970000000 1.0
C      1  0.5647050000000  0.5172780000000  0.5310120000000 1.0
C      1  0.4869090000000  0.5013810000000  0.3723980000000 1.0
C      1  0.4649240000000  0.4476180000000  0.4662620000000 1.0
C      1  0.5656160000000  0.4665060000000  0.5735590000000 1.0
C      1  0.4039610000000  0.5354680000000  0.4547710000000 1.0
C      1  0.4120350000000  0.4600160000000  0.4392890000000 1.0
C      1  0.5323480000000  0.5885080000000  0.4303320000000 1.0
C      1  0.4861290000000  0.5644010000000  0.4690090000000 1.0
C      1  0.5473920000000  0.5899650000000  0.4557500000000 1.0
C      1  0.3929760000000  0.4749160000000  0.5102770000000 1.0
C      1  0.4308370000000  0.5059430000000  0.3994490000000 1.0
C      1  0.4549250000000  0.4571430000000  0.5765400000000 1.0
C      1  0.5204050000000  0.5603660000000  0.6067710000000 1.0
C      1  0.5609740000000  0.4066710000000  0.5063590000000 1.0
C      1  0.4400310000000  0.4156780000000  0.4976950000000 1.0
C      1  0.5457560000000  0.4895010000000  0.4920600000000 1.0
C      1  0.5466680000000  0.4298750000000  0.5701920000000 1.0
C      1  0.5177110000000  0.4094790000000  0.4344460000000 1.0
C      1  0.6034040000000  0.4731230000000  0.4967410000000 1.0
C      1  0.5117050000000  0.3993160000000  0.5478430000000 1.0
C      1  0.4219590000000  0.4374230000000  0.4834190000000 1.0
C      1  0.4984160000000  0.5888720000000  0.4369880000000 1.0
C      1  0.4655360000000  0.4878080000000  0.5771340000000 1.0
C      1  0.5303890000000  0.5971260000000  0.4781740000000 1.0
C      1  0.6056230000000  0.5172040000000  0.5578880000000 1.0
C      1  0.4540570000000  0.4645220000000  0.5237440000000 1.0
C      1  0.3739010000000  0.4822040000000  0.4923040000000 1.0
C      1  0.5960310000000  0.4586720000000  0.5261540000000 1.0
C      1  0.4557560000000  0.5154040000000  0.5741280000000 1.0
C      1  0.4100250000000  0.4946420000000  0.5595750000000 1.0
C      1  0.5526310000000  0.5677160000000  0.5107760000000 1.0
C      1  0.4309170000000  0.5648470000000  0.5692600000000 1.0
C      1  0.4381220000000  0.5766730000000  0.4673610000000 1.0
C      1  0.5356620000000  0.5395200000000  0.5965230000000 1.0
C      1  0.5418700000000  0.4104080000000  0.4544060000000 1.0
C      1  0.5512300000000  0.4911910000000  0.4633550000000 1.0
C      1  0.5174700000000  0.4704560000000  0.4685870000000 1.0
C      1  0.5793950000000  0.5416860000000  0.5405910000000 1.0
C      1  0.5358370000000  0.3983210000000  0.4848900000000 1.0
C      1  0.5638660000000  0.4187740000000  0.5362660000000 1.0
C      1  0.4897970000000  0.5552530000000  0.5817600000000 1.0
C      1  0.4737250000000  0.4822200000000  0.6088750000000 1.0
C      1  0.5065320000000  0.4252300000000  0.4809650000000 1.0
C      1  0.5644120000000  0.4858430000000  0.5999960000000 1.0
C      1  0.5220850000000  0.4642470000000  0.6044430000000 1.0
C      1  0.4032020000000  0.4934110000000  0.5295820000000 1.0
C      1  0.5265200000000  0.6038440000000  0.5372930000000 1.0
C      1  0.5193000000000  0.4879560000000  0.4398090000000 1.0
C      1  0.5203580000000  0.4275750000000  0.4067560000000 1.0
C      1  0.5819640000000  0.4024800000000  0.4833900000000 1.0
C      1  0.5790230000000  0.5689510000000  0.4927080000000 1.0
C      1  0.5523730000000  0.5320650000000  0.4086620000000 1.0
C      1  0.5014550000000  0.5932030000000  0.4707980000000 1.0
C      1  0.4736430000000  0.5746540000000  0.4180880000000 1.0
C      1  0.4386140000000  0.4321450000000  0.4295460000000 1.0
C      1  0.4093740000000  0.5629980000000  0.5103330000000 1.0
C      1  0.4891150000000  0.4549580000000  0.5402580000000 1.0
C      1  0.5114640000000  0.3868210000000  0.4906240000000 1.0
C      1  0.4431470000000  0.4837080000000  0.4976730000000 1.0
C      1  0.4606460000000  0.4127660000000  0.5448870000000 1.0
C      1  0.5693120000000  0.5684070000000  0.4613170000000 1.0
C      1  0.4975090000000  0.4460020000000  0.4575820000000 1.0
C      1  0.4692760000000  0.4044250000000  0.4572210000000 1.0
C      1  0.4670870000000  0.5039040000000  0.5025590000000 1.0
C      1  0.5794690000000  0.4464870000000  0.5495410000000 1.0
C      1  0.4612360000000  0.4012800000000  0.4847610000000 1.0
C      1  0.4598090000000  0.4447070000000  0.5483930000000 1.0
C      1  0.6013640000000  0.5239970000000  0.4597340000000 1.0
C      1  0.5613640000000  0.4775290000000  0.5196560000000 1.0
C      1  0.4130750000000  0.5566260000000  0.4788690000000 1.0
C      1  0.4760430000000  0.5597990000000  0.4980040000000 1.0
C      1  0.4628270000000  0.5667070000000  0.4466180000000 1.0
C      1  0.4946430000000  0.4650860000000  0.5908610000000 1.0
C      1  0.4424570000000  0.4918040000000  0.5367310000000 1.0
C      1  0.5392630000000  0.4472950000000  0.4046730000000 1.0
C      1  0.6008360000000  0.5572420000000  0.4685130000000 1.0
C      1  0.4373930000000  0.4204450000000  0.5259440000000 1.0
C      1  0.4847620000000  0.3926900000000  0.4997870000000 1.0
C      1  0.4664220000000  0.4850360000000  0.4351280000000 1.0
C      1  0.4796510000000  0.5810890000000  0.5643790000000 1.0
C      1  0.4944460000000  0.5992280000000  0.5320220000000 1.0
C      1  0.5223990000000  0.5486280000000  0.4628500000000 1.0
C      1  0.4273320000000  0.5873460000000  0.5140990000000 1.0
C      1  0.5097900000000  0.4875210000000  0.5303260000000 1.0
C      1  0.4671610000000  0.4881390000000  0.6333600000000 1.0
END
