TITL C-2778431-5191-1004 -0.00560840917472372 125000 -356.070460753165 0 0 62 (C1) n - 1
REM
REM in /home/nfs/bkarasulu/CARBON/AIRSS/Generating-Clusters/REBO/Only-C1/SD-CG/HFTN-CG
REM
REM
REM
REM
REM
REM ./C.cell (11c1c37f851c82e70ff6c80c92926a4b)
REM
REM compiler GCC version 9.2.1 20190827 (Red Hat 9.2.1-1)
REM options -cpp -mtune=generic -march=x86-64 -g -O0 -fpre-include=/usr/include/finclude/math-vector-fortran.h
REM seed 2123866280 -1746728149 -1632457362 -811482347 -1206295546 2038436230 133027376 -353743001 -1684532974 824052400 -250151239 661395406 1921503856 1275621106 -694974156 1986412028 -1787264852 1410265661 -1248781237 -1620792955 736054833 -1623644295 -390877269 1139815326 -753999626 -262473516 1341694163 2128490146 -793599574 1372942688 426794960 216821992 1907426034
REM
CELL 1.54180   50.00000   50.00000   50.00000   90.00000   90.00000   90.00000
LATT -1
SFAC C  
C      1  0.4719080000000  0.4919080000000  0.5421770000000 1.0
C      1  0.5187470000000  0.5631380000000  0.5209410000000 1.0
C      1  0.5276280000000  0.4494300000000  0.4491280000000 1.0
C      1  0.4598170000000  0.4833790000000  0.4727640000000 1.0
C      1  0.4291820000000  0.5264170000000  0.4702280000000 1.0
C      1  0.4811110000000  0.4291020000000  0.4878390000000 1.0
C      1  0.4862330000000  0.4787740000000  0.4939890000000 1.0
C      1  0.5081540000000  0.5003360000000  0.5672390000000 1.0
C      1  0.4390340000000  0.5376280000000  0.4965340000000 1.0
C      1  0.4480040000000  0.4679620000000  0.4973570000000 1.0
C      1  0.4407740000000  0.4862440000000  0.5178060000000 1.0
C      1  0.5369950000000  0.5277100000000  0.4393290000000 1.0
C      1  0.4994280000000  0.4667950000000  0.4441270000000 1.0
C      1  0.5281630000000  0.5039430000000  0.4262750000000 1.0
C      1  0.4967680000000  0.4115460000000  0.5042370000000 1.0
C      1  0.5286930000000  0.4873910000000  0.5446860000000 1.0
C      1  0.4846210000000  0.4679040000000  0.5243550000000 1.0
C      1  0.5553700000000  0.4840060000000  0.5256190000000 1.0
C      1  0.5035710000000  0.5101650000000  0.4699320000000 1.0
C      1  0.4642510000000  0.5029820000000  0.4381870000000 1.0
C      1  0.5299020000000  0.5054090000000  0.4724850000000 1.0
C      1  0.5616540000000  0.5357530000000  0.5186790000000 1.0
C      1  0.5089080000000  0.4602540000000  0.4823910000000 1.0
C      1  0.5113790000000  0.4497160000000  0.5332540000000 1.0
C      1  0.5350530000000  0.5435010000000  0.4614680000000 1.0
C      1  0.4970840000000  0.4380150000000  0.4612340000000 1.0
C      1  0.5536590000000  0.4575160000000  0.5098020000000 1.0
C      1  0.5041480000000  0.5063170000000  0.4109840000000 1.0
C      1  0.4537620000000  0.5136300000000  0.5141090000000 1.0
C      1  0.4866230000000  0.4902770000000  0.4557550000000 1.0
C      1  0.5042440000000  0.5281610000000  0.5657500000000 1.0
C      1  0.4900400000000  0.5360630000000  0.4838190000000 1.0
C      1  0.5546220000000  0.4760470000000  0.4618270000000 1.0
C      1  0.5380000000000  0.5763720000000  0.4978000000000 1.0
C      1  0.5389250000000  0.5497030000000  0.5393550000000 1.0
C      1  0.5423380000000  0.4531550000000  0.4796890000000 1.0
C      1  0.4428520000000  0.4985200000000  0.5687250000000 1.0
C      1  0.4373620000000  0.4802910000000  0.5462930000000 1.0
C      1  0.5378440000000  0.4796490000000  0.4368660000000 1.0
C      1  0.4937140000000  0.5435610000000  0.5168930000000 1.0
C      1  0.5105470000000  0.4200770000000  0.5263590000000 1.0
C      1  0.4859630000000  0.5063180000000  0.5143710000000 1.0
C      1  0.5177250000000  0.5012160000000  0.5160660000000 1.0
C      1  0.5651380000000  0.5049500000000  0.5085990000000 1.0
C      1  0.4609530000000  0.4365610000000  0.5316690000000 1.0
C      1  0.4765680000000  0.4499320000000  0.5525800000000 1.0
C      1  0.5215110000000  0.5418930000000  0.4862320000000 1.0
C      1  0.4562470000000  0.5665570000000  0.5000060000000 1.0
C      1  0.5043320000000  0.4682670000000  0.5597270000000 1.0
C      1  0.4794520000000  0.5382350000000  0.5465760000000 1.0
C      1  0.5283480000000  0.5430410000000  0.5634140000000 1.0
C      1  0.4767470000000  0.5095900000000  0.4135180000000 1.0
C      1  0.5319030000000  0.5266950000000  0.5077840000000 1.0
C      1  0.5219600000000  0.4687710000000  0.5101130000000 1.0
C      1  0.4669940000000  0.5142220000000  0.5646230000000 1.0
C      1  0.4551030000000  0.5451570000000  0.5259990000000 1.0
C      1  0.4411980000000  0.5061350000000  0.4571230000000 1.0
C      1  0.5622460000000  0.5629390000000  0.4990550000000 1.0
C      1  0.5054340000000  0.5804160000000  0.4954860000000 1.0
C      1  0.5585390000000  0.5003300000000  0.4805200000000 1.0
C      1  0.4607190000000  0.4429530000000  0.5033470000000 1.0
C      1  0.4818060000000  0.5670800000000  0.4869070000000 1.0
END
