TITL C-2778425-5191-675 -0.00111282859376986 125000 -226.329757708175 0 0 41 (C1) n - 1
REM
REM in /home/nfs/bkarasulu/CARBON/AIRSS/Generating-Clusters/REBO/Only-C1/SD-CG/HFTN-CG
REM
REM
REM
REM
REM
REM ./C.cell (11c1c37f851c82e70ff6c80c92926a4b)
REM
REM compiler GCC version 9.2.1 20190827 (Red Hat 9.2.1-1)
REM options -cpp -mtune=generic -march=x86-64 -g -O0 -fpre-include=/usr/include/finclude/math-vector-fortran.h
REM seed 885688224 32147269 -2029316682 1046568078 239460594 539248935 543885519 -1889426716 1409824311 399633648 1258000605 27299259 719544439 1843256531 -233826839 1242136695 -2012362609 2127615610 -1576789965 1684423479 1689374714 -418386023 1698349523 -283243898 903951550 -1812252392 1202837938 417742740 -1030035086 -1121243315 1020578587 -514640106 1883179262
REM
CELL 1.54180   50.00000   50.00000   50.00000   90.00000   90.00000   90.00000
LATT -1
SFAC C  
C      1  0.4973160000000  0.4734660000000  0.4337080000000 1.0
C      1  0.5299880000000  0.4864690000000  0.5199060000000 1.0
C      1  0.5428670000000  0.5487610000000  0.5209030000000 1.0
C      1  0.4732560000000  0.4435140000000  0.4442240000000 1.0
C      1  0.4822540000000  0.5327670000000  0.5896700000000 1.0
C      1  0.4554910000000  0.4594290000000  0.4673790000000 1.0
C      1  0.4766160000000  0.5461500000000  0.6114860000000 1.0
C      1  0.4663810000000  0.4841250000000  0.4877740000000 1.0
C      1  0.4562110000000  0.5439670000000  0.4685780000000 1.0
C      1  0.5350200000000  0.5329890000000  0.5427990000000 1.0
C      1  0.4638530000000  0.4547780000000  0.5283180000000 1.0
C      1  0.4629390000000  0.4814700000000  0.5472160000000 1.0
C      1  0.4525880000000  0.5140680000000  0.4567420000000 1.0
C      1  0.4733250000000  0.5205370000000  0.5203500000000 1.0
C      1  0.5420180000000  0.5759410000000  0.5215350000000 1.0
C      1  0.4948560000000  0.4383610000000  0.4925950000000 1.0
C      1  0.4689650000000  0.5096700000000  0.5469470000000 1.0
C      1  0.5615400000000  0.5177460000000  0.4774790000000 1.0
C      1  0.5842310000000  0.5240640000000  0.4637210000000 1.0
C      1  0.4541550000000  0.5583380000000  0.4924610000000 1.0
C      1  0.5116830000000  0.4961450000000  0.4422270000000 1.0
C      1  0.4837130000000  0.5025060000000  0.4998320000000 1.0
C      1  0.5099340000000  0.5150110000000  0.4673940000000 1.0
C      1  0.5281130000000  0.5366500000000  0.4664020000000 1.0
C      1  0.5471300000000  0.4941730000000  0.4710950000000 1.0
C      1  0.4815560000000  0.5247490000000  0.4651520000000 1.0
C      1  0.5143180000000  0.4959540000000  0.4936040000000 1.0
C      1  0.4676030000000  0.4526780000000  0.4985200000000 1.0
C      1  0.5133390000000  0.4791530000000  0.5449260000000 1.0
C      1  0.5324730000000  0.4683260000000  0.4845810000000 1.0
C      1  0.4896680000000  0.4642270000000  0.5458160000000 1.0
C      1  0.5041830000000  0.4464710000000  0.4475740000000 1.0
C      1  0.4881870000000  0.5186830000000  0.5667110000000 1.0
C      1  0.5444560000000  0.5032200000000  0.5410360000000 1.0
C      1  0.5522560000000  0.5346600000000  0.4981840000000 1.0
C      1  0.4480530000000  0.4878890000000  0.4501120000000 1.0
C      1  0.5157490000000  0.5099500000000  0.5592060000000 1.0
C      1  0.4643860000000  0.5468430000000  0.5151130000000 1.0
C      1  0.5132860000000  0.4472980000000  0.4743110000000 1.0
C      1  0.4657590000000  0.4722810000000  0.4310330000000 1.0
C      1  0.5502860000000  0.4565240000000  0.5033830000000 1.0
END
