TITL C-2778435-5768-132 -0.000559582275836253 125000 -323.494638008458 0 0 58 (C1) n - 1
REM
REM in /home/nfs/bkarasulu/CARBON/AIRSS/Generating-Clusters/REBO/Only-C1/SD-CG/HFTN-CG
REM
REM
REM
REM
REM
REM ./C.cell (11c1c37f851c82e70ff6c80c92926a4b)
REM
REM compiler GCC version 9.2.1 20190827 (Red Hat 9.2.1-1)
REM options -cpp -mtune=generic -march=x86-64 -g -O0 -fpre-include=/usr/include/finclude/math-vector-fortran.h
REM seed 1651454757 -607969475 -1150473972 -761703888 -1528504641 805549792 -532904723 -180011949 284353149 -467023094 -914344811 1485783458 -1836796759 780973064 1490788461 2002108076 1048714913 -1973563512 1880405306 1995628012 1924331826 1210537341 -1286935460 1102306830 775706532 1587023023 -1981072759 543083589 -1850697965 -980655699 -220439125 -519948572 20736661
REM
CELL 1.54180   50.00000   50.00000   50.00000   90.00000   90.00000   90.00000
LATT -1
SFAC C  
C      1  0.4768030000000  0.4522070000000  0.4421750000000 1.0
C      1  0.4988940000000  0.5878770000000  0.5099410000000 1.0
C      1  0.5078090000000  0.4825480000000  0.5981190000000 1.0
C      1  0.5895750000000  0.5366210000000  0.5058270000000 1.0
C      1  0.4255970000000  0.4518650000000  0.4760880000000 1.0
C      1  0.4909940000000  0.4447330000000  0.4712340000000 1.0
C      1  0.4228830000000  0.4980230000000  0.5266570000000 1.0
C      1  0.5193240000000  0.5480180000000  0.4895220000000 1.0
C      1  0.5147990000000  0.5349880000000  0.4584150000000 1.0
C      1  0.5430480000000  0.5484960000000  0.5041690000000 1.0
C      1  0.4773920000000  0.4389160000000  0.5205550000000 1.0
C      1  0.5530080000000  0.4885830000000  0.4893920000000 1.0
C      1  0.5268640000000  0.5012690000000  0.5566960000000 1.0
C      1  0.4627570000000  0.5271610000000  0.5315540000000 1.0
C      1  0.5415880000000  0.5566860000000  0.4455520000000 1.0
C      1  0.5013660000000  0.4318270000000  0.5340780000000 1.0
C      1  0.5544160000000  0.5323360000000  0.4576640000000 1.0
C      1  0.5313290000000  0.5074440000000  0.4599830000000 1.0
C      1  0.5280880000000  0.4822440000000  0.5792700000000 1.0
C      1  0.5140490000000  0.5689810000000  0.4562630000000 1.0
C      1  0.4803310000000  0.4794860000000  0.4351920000000 1.0
C      1  0.5279220000000  0.4835820000000  0.4418480000000 1.0
C      1  0.4770820000000  0.5213280000000  0.4752820000000 1.0
C      1  0.3779320000000  0.4326420000000  0.4868930000000 1.0
C      1  0.4021010000000  0.4423900000000  0.4814140000000 1.0
C      1  0.4703650000000  0.5465710000000  0.4649560000000 1.0
C      1  0.4678130000000  0.4960680000000  0.4553790000000 1.0
C      1  0.4457760000000  0.4778980000000  0.4723590000000 1.0
C      1  0.4449560000000  0.5087990000000  0.5154310000000 1.0
C      1  0.5745230000000  0.5208200000000  0.5306450000000 1.0
C      1  0.5064720000000  0.5780810000000  0.4846350000000 1.0
C      1  0.5603850000000  0.4676020000000  0.4722900000000 1.0
C      1  0.5092410000000  0.4766400000000  0.5111700000000 1.0
C      1  0.5547860000000  0.5189760000000  0.5488750000000 1.0
C      1  0.5215050000000  0.4467770000000  0.5186510000000 1.0
C      1  0.4485590000000  0.5807790000000  0.5210210000000 1.0
C      1  0.4537980000000  0.5032550000000  0.4894210000000 1.0
C      1  0.5079470000000  0.5459960000000  0.5396150000000 1.0
C      1  0.5317940000000  0.4337170000000  0.4952600000000 1.0
C      1  0.5218030000000  0.4961500000000  0.4903770000000 1.0
C      1  0.5014350000000  0.5220280000000  0.4939820000000 1.0
C      1  0.5376110000000  0.4599850000000  0.4555500000000 1.0
C      1  0.4845370000000  0.4570620000000  0.5002800000000 1.0
C      1  0.5016700000000  0.5723730000000  0.5324930000000 1.0
C      1  0.5054010000000  0.4962080000000  0.5346380000000 1.0
C      1  0.5209350000000  0.4413140000000  0.4696850000000 1.0
C      1  0.5494750000000  0.4647300000000  0.5808420000000 1.0
C      1  0.5706870000000  0.5087930000000  0.4998490000000 1.0
C      1  0.3541460000000  0.4230500000000  0.4922850000000 1.0
C      1  0.5057760000000  0.4853740000000  0.4246090000000 1.0
C      1  0.5849300000000  0.4563330000000  0.4702770000000 1.0
C      1  0.4552560000000  0.5167640000000  0.5865360000000 1.0
C      1  0.4571580000000  0.4468830000000  0.4680970000000 1.0
C      1  0.5710090000000  0.5344620000000  0.4793610000000 1.0
C      1  0.4926180000000  0.5233880000000  0.5248140000000 1.0
C      1  0.4549760000000  0.5565430000000  0.5257820000000 1.0
C      1  0.4586460000000  0.5214640000000  0.5616830000000 1.0
C      1  0.5280620000000  0.5348670000000  0.5553730000000 1.0
END
