TITL C-2778423-5760-353 -0.000421254473049698 125000 -330.691247169494 0 0 58 (C1) n - 1
REM
REM in /home/nfs/bkarasulu/CARBON/AIRSS/Generating-Clusters/REBO/Only-C1/SD-CG/HFTN-CG
REM
REM
REM
REM
REM
REM ./C.cell (11c1c37f851c82e70ff6c80c92926a4b)
REM
REM compiler GCC version 9.2.1 20190827 (Red Hat 9.2.1-1)
REM options -cpp -mtune=generic -march=x86-64 -g -O0 -fpre-include=/usr/include/finclude/math-vector-fortran.h
REM seed -1245942663 -1887064776 1587065236 -1973922112 -1101568832 -226206159 1524836012 2066471243 309462093 -1793266215 -377618210 1281059841 -1725489175 -494613814 -2111301252 294108465 -629588732 -1039948559 -1488111528 495107719 1608126623 -1144278495 1210235833 1015778445 885527069 396525920 1455327663 15207076 -2116697077 -1744794055 -1895547990 -1291243203 -1700672622
REM
CELL 1.54180   50.00000   50.00000   50.00000   90.00000   90.00000   90.00000
LATT -1
SFAC C  
C      1  0.4937610000000  0.5565680000000  0.4858940000000 1.0
C      1  0.4435250000000  0.5637940000000  0.4930470000000 1.0
C      1  0.4681340000000  0.4494330000000  0.5008320000000 1.0
C      1  0.5126650000000  0.4999630000000  0.4432490000000 1.0
C      1  0.5398790000000  0.5513910000000  0.4660500000000 1.0
C      1  0.4944380000000  0.4661750000000  0.5602790000000 1.0
C      1  0.4581430000000  0.5307110000000  0.5749050000000 1.0
C      1  0.4692320000000  0.5291160000000  0.5433500000000 1.0
C      1  0.4517290000000  0.4521610000000  0.4777480000000 1.0
C      1  0.5635020000000  0.5702540000000  0.5210290000000 1.0
C      1  0.4658020000000  0.5596800000000  0.4476470000000 1.0
C      1  0.5068360000000  0.4355410000000  0.4743910000000 1.0
C      1  0.4965890000000  0.4771940000000  0.4980900000000 1.0
C      1  0.4973600000000  0.5614260000000  0.4391410000000 1.0
C      1  0.5528550000000  0.4857330000000  0.5196530000000 1.0
C      1  0.5536500000000  0.5219640000000  0.4766730000000 1.0
C      1  0.4665170000000  0.5622380000000  0.4771210000000 1.0
C      1  0.4852360000000  0.5070140000000  0.4320310000000 1.0
C      1  0.5557480000000  0.5586780000000  0.4920090000000 1.0
C      1  0.4709630000000  0.4768690000000  0.5174950000000 1.0
C      1  0.5149590000000  0.5130180000000  0.4734390000000 1.0
C      1  0.5711240000000  0.5113490000000  0.5108740000000 1.0
C      1  0.5296280000000  0.4534080000000  0.4643560000000 1.0
C      1  0.4365220000000  0.4328790000000  0.4652880000000 1.0
C      1  0.5673840000000  0.5384430000000  0.5151930000000 1.0
C      1  0.4367790000000  0.4686480000000  0.5617660000000 1.0
C      1  0.4580360000000  0.5072090000000  0.5257730000000 1.0
C      1  0.5460000000000  0.4846660000000  0.5485580000000 1.0
C      1  0.5361300000000  0.5227040000000  0.4481100000000 1.0
C      1  0.4915120000000  0.4482630000000  0.4502370000000 1.0
C      1  0.5140420000000  0.4483180000000  0.5496050000000 1.0
C      1  0.5121120000000  0.5628800000000  0.4643170000000 1.0
C      1  0.4417420000000  0.5030100000000  0.4803440000000 1.0
C      1  0.5100740000000  0.5122980000000  0.5765600000000 1.0
C      1  0.4946850000000  0.4868230000000  0.5852090000000 1.0
C      1  0.5401550000000  0.4578690000000  0.5565940000000 1.0
C      1  0.5235400000000  0.4707920000000  0.4422540000000 1.0
C      1  0.4936860000000  0.4355250000000  0.5003640000000 1.0
C      1  0.4779360000000  0.4592510000000  0.4274580000000 1.0
C      1  0.4556220000000  0.4813660000000  0.4644980000000 1.0
C      1  0.5326370000000  0.5172620000000  0.5018800000000 1.0
C      1  0.4798590000000  0.5344910000000  0.4315000000000 1.0
C      1  0.5276660000000  0.5056580000000  0.5545530000000 1.0
C      1  0.4401870000000  0.5166010000000  0.5035900000000 1.0
C      1  0.4868770000000  0.4701180000000  0.4722000000000 1.0
C      1  0.5710450000000  0.4764500000000  0.4918520000000 1.0
C      1  0.4499270000000  0.4796560000000  0.5427530000000 1.0
C      1  0.5110740000000  0.5136630000000  0.5277830000000 1.0
C      1  0.4899800000000  0.4952710000000  0.5465770000000 1.0
C      1  0.4911230000000  0.5335470000000  0.5688460000000 1.0
C      1  0.4670420000000  0.4851890000000  0.4347160000000 1.0
C      1  0.5016050000000  0.5303820000000  0.4995450000000 1.0
C      1  0.4686010000000  0.5006660000000  0.5712300000000 1.0
C      1  0.5792400000000  0.5037330000000  0.4809350000000 1.0
C      1  0.5434320000000  0.4662050000000  0.4860940000000 1.0
C      1  0.5232910000000  0.4786750000000  0.5043760000000 1.0
C      1  0.5076440000000  0.4349170000000  0.5252830000000 1.0
C      1  0.4305410000000  0.5428950000000  0.5048540000000 1.0
END
