TITL C-2778435-5768-535 -0.000515777409578253 125000 -1160.34932457944 0 0 197 (C1) n - 1
REM
REM in /home/nfs/bkarasulu/CARBON/AIRSS/Generating-Clusters/REBO/Only-C1/SD-CG/HFTN-CG
REM
REM
REM
REM
REM
REM ./C.cell (11c1c37f851c82e70ff6c80c92926a4b)
REM
REM compiler GCC version 9.2.1 20190827 (Red Hat 9.2.1-1)
REM options -cpp -mtune=generic -march=x86-64 -g -O0 -fpre-include=/usr/include/finclude/math-vector-fortran.h
REM seed 689013925 67395172 23176431 -88846356 -1831453802 1493034247 -1801991534 320295777 -676847960 -718477601 1853772271 2051837282 1571492627 -710809246 506553159 -1696055151 806356567 -36989001 767681250 -535895051 2044434405 -29624986 -1085488240 2060095835 -1947190368 -1281073887 -1858392539 -364234349 764704023 -276186331 -655940834 1651636579 506027921
REM
CELL 1.54180   50.00000   50.00000   50.00000   90.00000   90.00000   90.00000
LATT -1
SFAC C  
C      1  0.4108520000000  0.4978900000000  0.4653710000000 1.0
C      1  0.4072060000000  0.4491940000000  0.4413140000000 1.0
C      1  0.4132790000000  0.4416590000000  0.5138440000000 1.0
C      1  0.4816480000000  0.6048280000000  0.4573720000000 1.0
C      1  0.5486460000000  0.5316550000000  0.5849950000000 1.0
C      1  0.4565840000000  0.5339270000000  0.4191620000000 1.0
C      1  0.4188300000000  0.5512490000000  0.4532840000000 1.0
C      1  0.3956090000000  0.4587940000000  0.4632820000000 1.0
C      1  0.4135250000000  0.4597670000000  0.4904510000000 1.0
C      1  0.5473910000000  0.4761680000000  0.4211340000000 1.0
C      1  0.5323650000000  0.5735560000000  0.5729100000000 1.0
C      1  0.6089350000000  0.4961320000000  0.5165230000000 1.0
C      1  0.4930120000000  0.5678630000000  0.4250240000000 1.0
C      1  0.3933940000000  0.5113010000000  0.5442160000000 1.0
C      1  0.4760460000000  0.5266680000000  0.6021180000000 1.0
C      1  0.6123200000000  0.5084970000000  0.4636360000000 1.0
C      1  0.4475190000000  0.4211660000000  0.5560390000000 1.0
C      1  0.5384910000000  0.4903850000000  0.5033790000000 1.0
C      1  0.5207490000000  0.4126130000000  0.5089510000000 1.0
C      1  0.4576360000000  0.4853880000000  0.4417420000000 1.0
C      1  0.4740060000000  0.4551220000000  0.4742170000000 1.0
C      1  0.5842590000000  0.5629060000000  0.4714790000000 1.0
C      1  0.5837960000000  0.4780960000000  0.5261600000000 1.0
C      1  0.4391260000000  0.5174720000000  0.5183780000000 1.0
C      1  0.5060150000000  0.5829630000000  0.4981780000000 1.0
C      1  0.4974750000000  0.4783320000000  0.3970930000000 1.0
C      1  0.5636120000000  0.4989410000000  0.4147440000000 1.0
C      1  0.5764360000000  0.4972380000000  0.5599760000000 1.0
C      1  0.4409550000000  0.4293250000000  0.5154800000000 1.0
C      1  0.4647360000000  0.3911240000000  0.5214470000000 1.0
C      1  0.4416530000000  0.4908910000000  0.4652980000000 1.0
C      1  0.4105490000000  0.5346090000000  0.4802440000000 1.0
C      1  0.5953850000000  0.5355080000000  0.4309660000000 1.0
C      1  0.5391290000000  0.4436690000000  0.5460470000000 1.0
C      1  0.5796720000000  0.5104900000000  0.4367630000000 1.0
C      1  0.5349010000000  0.5180890000000  0.5363200000000 1.0
C      1  0.5208110000000  0.4587310000000  0.5881050000000 1.0
C      1  0.4483500000000  0.5565070000000  0.4373250000000 1.0
C      1  0.4786960000000  0.4544380000000  0.4102610000000 1.0
C      1  0.5089030000000  0.4335480000000  0.4668730000000 1.0
C      1  0.4693560000000  0.4961510000000  0.3916310000000 1.0
C      1  0.5277510000000  0.5701400000000  0.5177490000000 1.0
C      1  0.4689750000000  0.5839490000000  0.4812320000000 1.0
C      1  0.4536810000000  0.4958830000000  0.5410350000000 1.0
C      1  0.5262660000000  0.5576200000000  0.4053430000000 1.0
C      1  0.5546070000000  0.5907760000000  0.5223030000000 1.0
C      1  0.5944940000000  0.5296120000000  0.4705120000000 1.0
C      1  0.5794610000000  0.5576600000000  0.5602240000000 1.0
C      1  0.4260500000000  0.5502130000000  0.5536950000000 1.0
C      1  0.5353880000000  0.4977560000000  0.4525520000000 1.0
C      1  0.4789670000000  0.6205990000000  0.5139250000000 1.0
C      1  0.5215590000000  0.4415180000000  0.4147410000000 1.0
C      1  0.4800110000000  0.5936850000000  0.5609740000000 1.0
C      1  0.4139830000000  0.5328520000000  0.5328590000000 1.0
C      1  0.5608850000000  0.5386200000000  0.5074460000000 1.0
C      1  0.5342480000000  0.4719280000000  0.4747030000000 1.0
C      1  0.4973870000000  0.5400590000000  0.5694650000000 1.0
C      1  0.4722100000000  0.4588280000000  0.4427150000000 1.0
C      1  0.6001610000000  0.5406670000000  0.5004550000000 1.0
C      1  0.4420720000000  0.5848430000000  0.5220810000000 1.0
C      1  0.5569320000000  0.4626720000000  0.4501290000000 1.0
C      1  0.4472380000000  0.4601950000000  0.5916810000000 1.0
C      1  0.5601680000000  0.4296460000000  0.4493050000000 1.0
C      1  0.5969780000000  0.5578260000000  0.4423920000000 1.0
C      1  0.5105820000000  0.4132340000000  0.4404890000000 1.0
C      1  0.6119410000000  0.4668340000000  0.5007130000000 1.0
C      1  0.5852090000000  0.4647640000000  0.5559380000000 1.0
C      1  0.5910080000000  0.4349300000000  0.4439880000000 1.0
C      1  0.4263500000000  0.5084540000000  0.5798770000000 1.0
C      1  0.5250280000000  0.5819150000000  0.5472000000000 1.0
C      1  0.4474240000000  0.4910230000000  0.5868530000000 1.0
C      1  0.3918040000000  0.4519950000000  0.5375160000000 1.0
C      1  0.5035840000000  0.4525140000000  0.4414590000000 1.0
C      1  0.5038760000000  0.4628910000000  0.5132410000000 1.0
C      1  0.4732780000000  0.4423710000000  0.6013210000000 1.0
C      1  0.6103680000000  0.4786340000000  0.4686120000000 1.0
C      1  0.5792640000000  0.4870500000000  0.4573410000000 1.0
C      1  0.5407410000000  0.4190960000000  0.4293270000000 1.0
C      1  0.6016440000000  0.4462850000000  0.4680750000000 1.0
C      1  0.4593060000000  0.5489330000000  0.5887840000000 1.0
C      1  0.4625880000000  0.5377320000000  0.5042680000000 1.0
C      1  0.4919500000000  0.4253380000000  0.4145770000000 1.0
C      1  0.5140210000000  0.4656290000000  0.5446970000000 1.0
C      1  0.4439350000000  0.4676170000000  0.4840420000000 1.0
C      1  0.5077260000000  0.5343330000000  0.6022850000000 1.0
C      1  0.4070750000000  0.4666690000000  0.5621660000000 1.0
C      1  0.4993410000000  0.6067410000000  0.4312200000000 1.0
C      1  0.5573220000000  0.4960800000000  0.5313820000000 1.0
C      1  0.5346030000000  0.5509410000000  0.4625930000000 1.0
C      1  0.5078220000000  0.5651620000000  0.5897520000000 1.0
C      1  0.5027580000000  0.6280430000000  0.5155940000000 1.0
C      1  0.4964190000000  0.5446930000000  0.5043930000000 1.0
C      1  0.5339470000000  0.4414280000000  0.4847560000000 1.0
C      1  0.5003320000000  0.4739160000000  0.4821790000000 1.0
C      1  0.5062550000000  0.5042650000000  0.6150560000000 1.0
C      1  0.5240930000000  0.5321580000000  0.3946340000000 1.0
C      1  0.4721970000000  0.5049150000000  0.4248260000000 1.0
C      1  0.4339610000000  0.4782310000000  0.5211790000000 1.0
C      1  0.4726950000000  0.5028580000000  0.5825940000000 1.0
C      1  0.5167930000000  0.4794010000000  0.4334390000000 1.0
C      1  0.5323860000000  0.4135930000000  0.5593020000000 1.0
C      1  0.5939110000000  0.5264230000000  0.5595280000000 1.0
C      1  0.5114480000000  0.5016900000000  0.5084680000000 1.0
C      1  0.5797220000000  0.5782270000000  0.5348370000000 1.0
C      1  0.4403580000000  0.5574180000000  0.4932660000000 1.0
C      1  0.5406270000000  0.4325940000000  0.5843780000000 1.0
C      1  0.5267840000000  0.6100150000000  0.5189480000000 1.0
C      1  0.4221180000000  0.5812130000000  0.4978780000000 1.0
C      1  0.4751530000000  0.5518370000000  0.5465830000000 1.0
C      1  0.5810670000000  0.5662700000000  0.5050760000000 1.0
C      1  0.4854710000000  0.5567190000000  0.4761140000000 1.0
C      1  0.4417210000000  0.4881710000000  0.4052500000000 1.0
C      1  0.3789010000000  0.4986340000000  0.5161310000000 1.0
C      1  0.4179710000000  0.4984770000000  0.4990330000000 1.0
C      1  0.4766060000000  0.5720750000000  0.5810040000000 1.0
C      1  0.4163210000000  0.5191260000000  0.4423010000000 1.0
C      1  0.5550880000000  0.5722870000000  0.4714390000000 1.0
C      1  0.5799420000000  0.4635040000000  0.4892210000000 1.0
C      1  0.5815120000000  0.5118190000000  0.5036960000000 1.0
C      1  0.4964700000000  0.3943010000000  0.4652080000000 1.0
C      1  0.4331100000000  0.5114720000000  0.4199810000000 1.0
C      1  0.4688820000000  0.5920100000000  0.5099420000000 1.0
C      1  0.5695670000000  0.4442990000000  0.5761550000000 1.0
C      1  0.5681860000000  0.5126020000000  0.5868430000000 1.0
C      1  0.5594380000000  0.4102120000000  0.5389200000000 1.0
C      1  0.5561730000000  0.4169380000000  0.4808260000000 1.0
C      1  0.4410430000000  0.5220500000000  0.4747660000000 1.0
C      1  0.4924580000000  0.4308970000000  0.5152150000000 1.0
C      1  0.5027610000000  0.3945960000000  0.5282080000000 1.0
C      1  0.4448050000000  0.4170410000000  0.4365890000000 1.0
C      1  0.4565000000000  0.5490190000000  0.4664110000000 1.0
C      1  0.5029490000000  0.6012410000000  0.5452000000000 1.0
C      1  0.5666420000000  0.4907570000000  0.4885290000000 1.0
C      1  0.4862930000000  0.4253920000000  0.5792040000000 1.0
C      1  0.5291920000000  0.5393990000000  0.5123010000000 1.0
C      1  0.4741190000000  0.5166230000000  0.4817270000000 1.0
C      1  0.4990420000000  0.5059680000000  0.4381320000000 1.0
C      1  0.4028200000000  0.4787310000000  0.5237940000000 1.0
C      1  0.5002240000000  0.5047310000000  0.4702210000000 1.0
C      1  0.4654220000000  0.5818940000000  0.4288230000000 1.0
C      1  0.4840670000000  0.4266130000000  0.4846480000000 1.0
C      1  0.5448640000000  0.5155450000000  0.3835710000000 1.0
C      1  0.5450080000000  0.4881340000000  0.3811050000000 1.0
C      1  0.5014120000000  0.4053730000000  0.5585870000000 1.0
C      1  0.4054410000000  0.4952220000000  0.5646290000000 1.0
C      1  0.4882500000000  0.5388040000000  0.4110940000000 1.0
C      1  0.5434440000000  0.5276950000000  0.4391440000000 1.0
C      1  0.4882300000000  0.5703880000000  0.5244490000000 1.0
C      1  0.4685620000000  0.3964200000000  0.4495970000000 1.0
C      1  0.4313500000000  0.4466820000000  0.5721340000000 1.0
C      1  0.5592800000000  0.4028920000000  0.5120440000000 1.0
C      1  0.4342860000000  0.5372870000000  0.5776540000000 1.0
C      1  0.4461510000000  0.5666990000000  0.5435540000000 1.0
C      1  0.5552980000000  0.5580650000000  0.5777870000000 1.0
C      1  0.4775840000000  0.5010680000000  0.5095250000000 1.0
C      1  0.4662580000000  0.4458240000000  0.5244960000000 1.0
C      1  0.4979570000000  0.5126490000000  0.3952650000000 1.0
C      1  0.5261490000000  0.4001070000000  0.4802690000000 1.0
C      1  0.5260680000000  0.4669190000000  0.3966740000000 1.0
C      1  0.5779960000000  0.5383660000000  0.5333650000000 1.0
C      1  0.3848020000000  0.4789450000000  0.4885090000000 1.0
C      1  0.5256410000000  0.5226580000000  0.5685160000000 1.0
C      1  0.4637480000000  0.4741760000000  0.5091810000000 1.0
C      1  0.5298080000000  0.5207680000000  0.4759350000000 1.0
C      1  0.5054230000000  0.5593850000000  0.4546770000000 1.0
C      1  0.5627290000000  0.5229600000000  0.4667190000000 1.0
C      1  0.5233530000000  0.5830810000000  0.4277770000000 1.0
C      1  0.5121680000000  0.5340700000000  0.4342380000000 1.0
C      1  0.5304410000000  0.4426990000000  0.5165060000000 1.0
C      1  0.4411190000000  0.4025080000000  0.5114380000000 1.0
C      1  0.4737230000000  0.5210470000000  0.5378840000000 1.0
C      1  0.4695710000000  0.4057480000000  0.4195290000000 1.0
C      1  0.5033390000000  0.5115300000000  0.5376340000000 1.0
C      1  0.5330890000000  0.5929820000000  0.4584180000000 1.0
C      1  0.5067090000000  0.5947110000000  0.4749160000000 1.0
C      1  0.5806510000000  0.4314660000000  0.5473760000000 1.0
C      1  0.5848200000000  0.4311690000000  0.4927230000000 1.0
C      1  0.4896420000000  0.4927070000000  0.5609100000000 1.0
C      1  0.4315140000000  0.4415170000000  0.4287500000000 1.0
C      1  0.4723710000000  0.4680510000000  0.5476650000000 1.0
C      1  0.5464290000000  0.4679980000000  0.5678340000000 1.0
C      1  0.4867610000000  0.3952640000000  0.4979830000000 1.0
C      1  0.4691980000000  0.4042630000000  0.5476350000000 1.0
C      1  0.4458640000000  0.4604310000000  0.4128050000000 1.0
C      1  0.5940040000000  0.4459300000000  0.5217950000000 1.0
C      1  0.5202090000000  0.4820630000000  0.6084830000000 1.0
C      1  0.4683540000000  0.4724740000000  0.6154460000000 1.0
C      1  0.4233860000000  0.5809260000000  0.4660210000000 1.0
C      1  0.5232370000000  0.4912240000000  0.5651990000000 1.0
C      1  0.4163480000000  0.4311180000000  0.5465670000000 1.0
C      1  0.5428980000000  0.5968630000000  0.4914570000000 1.0
C      1  0.6091940000000  0.5250650000000  0.5291020000000 1.0
C      1  0.4498140000000  0.5927780000000  0.4561670000000 1.0
C      1  0.3851580000000  0.5118690000000  0.4797390000000 1.0
C      1  0.4773780000000  0.4980930000000  0.6217490000000 1.0
C      1  0.4944440000000  0.4543160000000  0.5696960000000 1.0
C      1  0.3932370000000  0.5286600000000  0.5083670000000 1.0
END
