TITL C-2778434-4341-1349 225.719195533645 125000 -893.263208416956 0 0 157 (C1) n - 1
REM
REM in /home/nfs/bkarasulu/CARBON/AIRSS/Generating-Clusters/REBO/Only-C1/SD-CG/HFTN-CG
REM
REM
REM
REM
REM
REM ./C.cell (11c1c37f851c82e70ff6c80c92926a4b)
REM
REM compiler GCC version 9.2.1 20190827 (Red Hat 9.2.1-1)
REM options -cpp -mtune=generic -march=x86-64 -g -O0 -fpre-include=/usr/include/finclude/math-vector-fortran.h
REM seed -1285635203 1872284575 820632364 967703936 -1984236671 -1612921128 1992636089 -1626228355 1225855549 -799591143 -274174192 -236103775 -852192724 2068678017 1082689449 -776036681 317188249 -513674023 -1278394597 1881761972 -315781548 1091971179 537260996 1302231481 -1641249921 -89101623 -276537449 2032463063 364338440 848917485 -980635211 -1414238915 -1122596813
REM
CELL 1.54180   50.00000   50.00000   50.00000   90.00000   90.00000   90.00000
LATT -1
SFAC C  
C      1  0.5716630000000  0.5466550000000  0.4342320000000 1.0
C      1  0.5705540000000  0.5823410000000  0.5383930000000 1.0
C      1  0.5276080000000  0.4224790000000  0.4970670000000 1.0
C      1  0.5802780000000  0.5373030000000  0.5590440000000 1.0
C      1  0.5071850000000  0.5551470000000  0.4988090000000 1.0
C      1  0.4946270000000  0.4855370000000  0.5139300000000 1.0
C      1  0.3880260000000  0.5145180000000  0.5324350000000 1.0
C      1  0.5654090000000  0.5199680000000  0.5262160000000 1.0
C      1  0.4644020000000  0.5795380000000  0.5396170000000 1.0
C      1  0.5424210000000  0.5070500000000  0.4146070000000 1.0
C      1  0.5755930000000  0.5174190000000  0.4818470000000 1.0
C      1  0.4644950000000  0.4317120000000  0.4960970000000 1.0
C      1  0.4469210000000  0.4166000000000  0.5481960000000 1.0
C      1  0.5304700000000  0.5445620000000  0.5926980000000 1.0
C      1  0.4709780000000  0.3925490000000  0.4929090000000 1.0
C      1  0.5196140000000  0.5366770000000  0.4648950000000 1.0
C      1  0.5825620000000  0.5711620000000  0.5159340000000 1.0
C      1  0.4439120000000  0.5386050000000  0.5583320000000 1.0
C      1  0.5209920000000  0.5700400000000  0.4740220000000 1.0
C      1  0.5078890000000  0.5353430000000  0.3895130000000 1.0
C      1  0.5552390000000  0.5224550000000  0.5997450000000 1.0
C      1  0.4391020000000  0.5276030000000  0.4421130000000 1.0
C      1  0.5033680000000  0.6001190000000  0.5159100000000 1.0
C      1  0.5537570000000  0.4803710000000  0.4233190000000 1.0
C      1  0.5432360000000  0.4994040000000  0.5103250000000 1.0
C      1  0.5642950000000  0.4480060000000  0.5606760000000 1.0
C      1  0.5141840000000  0.4898550000000  0.4618810000000 1.0
C      1  0.4425030000000  0.5846770000000  0.4941510000000 1.0
C      1  0.5207840000000  0.5627870000000  0.4305350000000 1.0
C      1  0.5358020000000  0.5593860000000  0.5692540000000 1.0
C      1  0.5309810000000  0.5804160000000  0.5182900000000 1.0
C      1  0.4828420000000  0.5189800000000  0.3969780000000 1.0
C      1  0.4028100000000  0.5084360000000  0.5021250000000 1.0
C      1  0.4058420000000  0.4561970000000  0.4905180000000 1.0
C      1  0.5915080000000  0.5383300000000  0.5131630000000 1.0
C      1  0.3972100000000  0.4613500000000  0.5230280000000 1.0
C      1  0.4336850000000  0.4765270000000  0.5505940000000 1.0
C      1  0.4878890000000  0.4858660000000  0.4822720000000 1.0
C      1  0.4852820000000  0.5167030000000  0.4677840000000 1.0
C      1  0.4404470000000  0.5352560000000  0.5258650000000 1.0
C      1  0.5565470000000  0.5429240000000  0.4952050000000 1.0
C      1  0.5720840000000  0.5031510000000  0.5773510000000 1.0
C      1  0.5911710000000  0.4600640000000  0.4998610000000 1.0
C      1  0.4837960000000  0.5495070000000  0.4661420000000 1.0
C      1  0.6086430000000  0.4772890000000  0.4786150000000 1.0
C      1  0.5350400000000  0.5304030000000  0.3930440000000 1.0
C      1  0.4546340000000  0.4966480000000  0.5568800000000 1.0
C      1  0.4608640000000  0.4566170000000  0.4441140000000 1.0
C      1  0.4464620000000  0.5161910000000  0.5824940000000 1.0
C      1  0.4831050000000  0.5708410000000  0.5667370000000 1.0
C      1  0.4951970000000  0.3793650000000  0.4960140000000 1.0
C      1  0.5429500000000  0.4301140000000  0.4277380000000 1.0
C      1  0.5243660000000  0.4507490000000  0.4996060000000 1.0
C      1  0.5235810000000  0.3895060000000  0.5014100000000 1.0
C      1  0.5531390000000  0.4648980000000  0.4541000000000 1.0
C      1  0.4925970000000  0.4479920000000  0.4950870000000 1.0
C      1  0.4838730000000  0.4569030000000  0.5528570000000 1.0
C      1  0.4866640000000  0.5065850000000  0.4383100000000 1.0
C      1  0.5602070000000  0.4403730000000  0.5137020000000 1.0
C      1  0.4599430000000  0.4376880000000  0.5678270000000 1.0
C      1  0.5047620000000  0.5332920000000  0.4370950000000 1.0
C      1  0.4772680000000  0.4640510000000  0.5916240000000 1.0
C      1  0.5755250000000  0.5787590000000  0.4868670000000 1.0
C      1  0.5407970000000  0.4020840000000  0.4748640000000 1.0
C      1  0.5888620000000  0.4825940000000  0.5212980000000 1.0
C      1  0.5052090000000  0.4721370000000  0.4081250000000 1.0
C      1  0.5269090000000  0.4775790000000  0.5864030000000 1.0
C      1  0.5174860000000  0.4964450000000  0.4284070000000 1.0
C      1  0.4211040000000  0.5646670000000  0.5072500000000 1.0
C      1  0.4453310000000  0.5435220000000  0.4715190000000 1.0
C      1  0.4571810000000  0.5398240000000  0.5022120000000 1.0
C      1  0.4493580000000  0.4744010000000  0.5215060000000 1.0
C      1  0.4636870000000  0.5361460000000  0.4193540000000 1.0
C      1  0.5438460000000  0.4282560000000  0.5329870000000 1.0
C      1  0.5339760000000  0.5088920000000  0.4789450000000 1.0
C      1  0.4897680000000  0.4349100000000  0.5856590000000 1.0
C      1  0.4840910000000  0.5214350000000  0.4996860000000 1.0
C      1  0.4229410000000  0.4183310000000  0.5272050000000 1.0
C      1  0.5497330000000  0.5435020000000  0.4669380000000 1.0
C      1  0.5453430000000  0.5567190000000  0.5171010000000 1.0
C      1  0.4195090000000  0.4842440000000  0.5141750000000 1.0
C      1  0.4867430000000  0.4166820000000  0.4241070000000 1.0
C      1  0.5548680000000  0.4759540000000  0.5739250000000 1.0
C      1  0.4561410000000  0.4816080000000  0.4060430000000 1.0
C      1  0.4655460000000  0.5588670000000  0.4408280000000 1.0
C      1  0.4473780000000  0.4637740000000  0.5859790000000 1.0
C      1  0.5016150000000  0.5288660000000  0.5985000000000 1.0
C      1  0.5518930000000  0.5819430000000  0.5581760000000 1.0
C      1  0.4340840000000  0.4869480000000  0.5896880000000 1.0
C      1  0.4110650000000  0.4273580000000  0.5077310000000 1.0
C      1  0.4605720000000  0.4085220000000  0.5179970000000 1.0
C      1  0.4440770000000  0.4361240000000  0.4621190000000 1.0
C      1  0.4842060000000  0.5319800000000  0.5381010000000 1.0
C      1  0.4653160000000  0.4122590000000  0.4680590000000 1.0
C      1  0.4577030000000  0.4538540000000  0.4136780000000 1.0
C      1  0.4734660000000  0.5037510000000  0.5337880000000 1.0
C      1  0.4051930000000  0.4735690000000  0.5498180000000 1.0
C      1  0.4489480000000  0.5750810000000  0.4659430000000 1.0
C      1  0.4766960000000  0.4606970000000  0.5228370000000 1.0
C      1  0.4081220000000  0.4873010000000  0.4759750000000 1.0
C      1  0.5624020000000  0.5327540000000  0.4116120000000 1.0
C      1  0.4810330000000  0.4911670000000  0.3967300000000 1.0
C      1  0.5930350000000  0.5530890000000  0.4824890000000 1.0
C      1  0.4924330000000  0.5615410000000  0.5290230000000 1.0
C      1  0.5737520000000  0.4961310000000  0.5450420000000 1.0
C      1  0.5511450000000  0.5439490000000  0.5458020000000 1.0
C      1  0.5400190000000  0.5128580000000  0.5700900000000 1.0
C      1  0.4146060000000  0.5194620000000  0.4655290000000 1.0
C      1  0.5079780000000  0.4379730000000  0.4658540000000 1.0
C      1  0.5993690000000  0.5324780000000  0.5431740000000 1.0
C      1  0.5184060000000  0.4490370000000  0.5764380000000 1.0
C      1  0.5206390000000  0.5181970000000  0.5467420000000 1.0
C      1  0.4932070000000  0.5536350000000  0.4128840000000 1.0
C      1  0.4415390000000  0.4898420000000  0.4543390000000 1.0
C      1  0.5517880000000  0.5827260000000  0.4725940000000 1.0
C      1  0.5370460000000  0.4014820000000  0.5295910000000 1.0
C      1  0.4366430000000  0.5653530000000  0.5382940000000 1.0
C      1  0.5121890000000  0.4611910000000  0.4459210000000 1.0
C      1  0.5877470000000  0.5378280000000  0.4569140000000 1.0
C      1  0.4762630000000  0.5392890000000  0.5694430000000 1.0
C      1  0.5490800000000  0.4680040000000  0.5012520000000 1.0
C      1  0.5016910000000  0.6120970000000  0.4867650000000 1.0
C      1  0.5322530000000  0.4572650000000  0.4209110000000 1.0
C      1  0.4763190000000  0.5638180000000  0.4928340000000 1.0
C      1  0.5528210000000  0.4717040000000  0.5408650000000 1.0
C      1  0.4072630000000  0.5457120000000  0.4820460000000 1.0
C      1  0.4982080000000  0.5119420000000  0.5694560000000 1.0
C      1  0.5868090000000  0.4621320000000  0.4605210000000 1.0
C      1  0.4389400000000  0.4509410000000  0.4915970000000 1.0
C      1  0.5252480000000  0.5060930000000  0.6004730000000 1.0
C      1  0.5224730000000  0.4782580000000  0.5284650000000 1.0
C      1  0.5477660000000  0.5665630000000  0.4435750000000 1.0
C      1  0.4713820000000  0.5899460000000  0.5104670000000 1.0
C      1  0.4093610000000  0.5352120000000  0.5196360000000 1.0
C      1  0.4785240000000  0.4053150000000  0.5447170000000 1.0
C      1  0.5598540000000  0.4974320000000  0.4617960000000 1.0
C      1  0.5821130000000  0.4861780000000  0.4381920000000 1.0
C      1  0.4237980000000  0.4631880000000  0.4573290000000 1.0
C      1  0.4969370000000  0.4260030000000  0.5538490000000 1.0
C      1  0.4441540000000  0.5100900000000  0.4789020000000 1.0
C      1  0.5108750000000  0.5280260000000  0.5178950000000 1.0
C      1  0.3894460000000  0.4974130000000  0.5534930000000 1.0
C      1  0.5215130000000  0.4473290000000  0.5434060000000 1.0
C      1  0.5959670000000  0.4994680000000  0.4964200000000 1.0
C      1  0.4780650000000  0.5870220000000  0.4537040000000 1.0
C      1  0.4960270000000  0.4817480000000  0.5727690000000 1.0
C      1  0.4576320000000  0.5001470000000  0.5039010000000 1.0
C      1  0.4715390000000  0.4304340000000  0.4054440000000 1.0
C      1  0.5698670000000  0.4407700000000  0.4811180000000 1.0
C      1  0.4692360000000  0.5302630000000  0.6017320000000 1.0
C      1  0.5018310000000  0.5930680000000  0.4668860000000 1.0
C      1  0.5026270000000  0.5883930000000  0.5470570000000 1.0
C      1  0.4441060000000  0.4991820000000  0.4246250000000 1.0
C      1  0.4846000000000  0.4748250000000  0.4350020000000 1.0
C      1  0.4609560000000  0.4706220000000  0.4746340000000 1.0
C      1  0.5420270000000  0.4334730000000  0.4615990000000 1.0
C      1  0.4899050000000  0.4172840000000  0.4512370000000 1.0
END
