TITL C-2778430-5657-178 -0.00317779964347448 125000 -467.653929273976 0 0 82 (C1) n - 1
REM
REM in /home/nfs/bkarasulu/CARBON/AIRSS/Generating-Clusters/REBO/Only-C1/SD-CG/HFTN-CG
REM
REM
REM
REM
REM
REM ./C.cell (11c1c37f851c82e70ff6c80c92926a4b)
REM
REM compiler GCC version 9.2.1 20190827 (Red Hat 9.2.1-1)
REM options -cpp -mtune=generic -march=x86-64 -g -O0 -fpre-include=/usr/include/finclude/math-vector-fortran.h
REM seed 1679604091 -1501849396 469032420 672861913 1077054957 783973137 1185021901 2099649686 1197690439 -1371879951 1519731701 -123189631 -1459812730 -1619250007 -1110447235 1952689968 -388978462 -66982397 -820084100 -1567854085 1330416103 -267019456 1982109894 -766148288 810203580 -1791992792 110079780 -23269782 1657989256 -228738723 -1782187075 1088482691 402791557
REM
CELL 1.54180   50.00000   50.00000   50.00000   90.00000   90.00000   90.00000
LATT -1
SFAC C  
C      1  0.5681640000000  0.4777030000000  0.5024760000000 1.0
C      1  0.5129170000000  0.5765640000000  0.5091480000000 1.0
C      1  0.5015890000000  0.4141220000000  0.5053680000000 1.0
C      1  0.4632450000000  0.5666420000000  0.5304480000000 1.0
C      1  0.4780740000000  0.4636440000000  0.5004830000000 1.0
C      1  0.4403100000000  0.4460160000000  0.4637190000000 1.0
C      1  0.4267390000000  0.5368580000000  0.4972650000000 1.0
C      1  0.4656760000000  0.4675940000000  0.5521350000000 1.0
C      1  0.4890500000000  0.4435280000000  0.5601110000000 1.0
C      1  0.5770710000000  0.5290260000000  0.5121510000000 1.0
C      1  0.5069760000000  0.3885190000000  0.4865830000000 1.0
C      1  0.4091650000000  0.4900870000000  0.4825520000000 1.0
C      1  0.4718390000000  0.4414640000000  0.4515380000000 1.0
C      1  0.5228620000000  0.4921110000000  0.5307180000000 1.0
C      1  0.4500830000000  0.5070940000000  0.5101200000000 1.0
C      1  0.4625330000000  0.5106630000000  0.4318190000000 1.0
C      1  0.4285680000000  0.4665730000000  0.4853410000000 1.0
C      1  0.5841980000000  0.5067740000000  0.4950410000000 1.0
C      1  0.5329970000000  0.5514450000000  0.5635450000000 1.0
C      1  0.5091730000000  0.4546060000000  0.4967860000000 1.0
C      1  0.4827800000000  0.5205370000000  0.5489270000000 1.0
C      1  0.5269140000000  0.5157470000000  0.4736490000000 1.0
C      1  0.5127080000000  0.5523950000000  0.4422700000000 1.0
C      1  0.5070820000000  0.5336580000000  0.5882170000000 1.0
C      1  0.4589230000000  0.5712000000000  0.4663080000000 1.0
C      1  0.4641770000000  0.5179490000000  0.4819480000000 1.0
C      1  0.5627480000000  0.5208790000000  0.5354700000000 1.0
C      1  0.4859090000000  0.5364400000000  0.5708160000000 1.0
C      1  0.5206170000000  0.4525360000000  0.5358080000000 1.0
C      1  0.4181420000000  0.5003710000000  0.5107030000000 1.0
C      1  0.4708110000000  0.5282070000000  0.5230260000000 1.0
C      1  0.5790370000000  0.5159220000000  0.4679380000000 1.0
C      1  0.5621060000000  0.5400890000000  0.4687850000000 1.0
C      1  0.4485340000000  0.4751090000000  0.5053350000000 1.0
C      1  0.5640830000000  0.4721960000000  0.4690600000000 1.0
C      1  0.5417150000000  0.5400030000000  0.5401290000000 1.0
C      1  0.4997050000000  0.4361510000000  0.4521540000000 1.0
C      1  0.5274220000000  0.5164080000000  0.5819690000000 1.0
C      1  0.4909830000000  0.4679930000000  0.5295600000000 1.0
C      1  0.5207520000000  0.4595180000000  0.4456690000000 1.0
C      1  0.4824590000000  0.5482250000000  0.5006300000000 1.0
C      1  0.4497160000000  0.5538370000000  0.4919430000000 1.0
C      1  0.5486150000000  0.4512160000000  0.4587730000000 1.0
C      1  0.5335030000000  0.4997140000000  0.5625070000000 1.0
C      1  0.4788840000000  0.5796600000000  0.4877010000000 1.0
C      1  0.4664350000000  0.4289970000000  0.5419590000000 1.0
C      1  0.5125360000000  0.5368000000000  0.4961530000000 1.0
C      1  0.5070890000000  0.4178730000000  0.4725410000000 1.0
C      1  0.4942490000000  0.5105810000000  0.4961000000000 1.0
C      1  0.5380080000000  0.5349730000000  0.4474980000000 1.0
C      1  0.4519560000000  0.4956250000000  0.5543040000000 1.0
C      1  0.4959090000000  0.4937250000000  0.5503850000000 1.0
C      1  0.5203230000000  0.4867020000000  0.4252470000000 1.0
C      1  0.5564760000000  0.4908580000000  0.5316980000000 1.0
C      1  0.5337440000000  0.5525050000000  0.5128330000000 1.0
C      1  0.5139870000000  0.4870490000000  0.5032280000000 1.0
C      1  0.5021030000000  0.4803150000000  0.5780480000000 1.0
C      1  0.4936340000000  0.4940850000000  0.4696880000000 1.0
C      1  0.4383950000000  0.5433320000000  0.5286550000000 1.0
C      1  0.5126170000000  0.5753470000000  0.4573910000000 1.0
C      1  0.4373180000000  0.5219830000000  0.4521570000000 1.0
C      1  0.5442330000000  0.4682170000000  0.5541330000000 1.0
C      1  0.5090800000000  0.5078910000000  0.4469560000000 1.0
C      1  0.4416600000000  0.5170580000000  0.5479250000000 1.0
C      1  0.4640070000000  0.5412590000000  0.4569730000000 1.0
C      1  0.5466910000000  0.5051500000000  0.4348440000000 1.0
C      1  0.4887980000000  0.5778800000000  0.5263610000000 1.0
C      1  0.4420190000000  0.4448760000000  0.5425020000000 1.0
C      1  0.5505990000000  0.4538870000000  0.5192680000000 1.0
C      1  0.5173580000000  0.5867280000000  0.4821430000000 1.0
C      1  0.5450740000000  0.4296700000000  0.4766640000000 1.0
C      1  0.4982190000000  0.4286620000000  0.5304120000000 1.0
C      1  0.4656760000000  0.4657900000000  0.4708030000000 1.0
C      1  0.4640510000000  0.4936280000000  0.4590960000000 1.0
C      1  0.5252170000000  0.4812520000000  0.4715920000000 1.0
C      1  0.5226790000000  0.4653140000000  0.5795390000000 1.0
C      1  0.4935500000000  0.5071750000000  0.4183130000000 1.0
C      1  0.4858660000000  0.5370030000000  0.4336340000000 1.0
C      1  0.5672840000000  0.4950730000000  0.4523650000000 1.0
C      1  0.5606490000000  0.5483020000000  0.4964470000000 1.0
C      1  0.5324820000000  0.4388230000000  0.5002780000000 1.0
C      1  0.4204720000000  0.5186160000000  0.4752280000000 1.0
END
