TITL C-2778431-5191-908 -0.0126937228798979 125000 -907.406447426161 0 0 156 (C1) n - 1
REM
REM in /home/nfs/bkarasulu/CARBON/AIRSS/Generating-Clusters/REBO/Only-C1/SD-CG/HFTN-CG
REM
REM
REM
REM
REM
REM ./C.cell (11c1c37f851c82e70ff6c80c92926a4b)
REM
REM compiler GCC version 9.2.1 20190827 (Red Hat 9.2.1-1)
REM options -cpp -mtune=generic -march=x86-64 -g -O0 -fpre-include=/usr/include/finclude/math-vector-fortran.h
REM seed 95084097 1495035654 -1568455843 20413936 1867912648 2057123433 1731969610 -1181563832 415017933 44251300 857457873 418385875 -38071297 -422899471 -2082529740 1949037959 -217360153 2093650510 153927732 -805252871 864337096 -1269246868 1586137745 -796466960 1283525703 -1708061387 597072009 -135802216 -688241953 67603286 843990775 778277312 -1921421127
REM
CELL 1.54180   50.00000   50.00000   50.00000   90.00000   90.00000   90.00000
LATT -1
SFAC C  
C      1  0.4786110000000  0.4813880000000  0.4356900000000 1.0
C      1  0.5322400000000  0.5295470000000  0.5008860000000 1.0
C      1  0.4969110000000  0.5567250000000  0.4204770000000 1.0
C      1  0.4889540000000  0.4429920000000  0.5287080000000 1.0
C      1  0.4779580000000  0.4454040000000  0.5593420000000 1.0
C      1  0.5572930000000  0.5548110000000  0.4337260000000 1.0
C      1  0.4209430000000  0.5516410000000  0.5286840000000 1.0
C      1  0.5083740000000  0.4356900000000  0.5833050000000 1.0
C      1  0.4300640000000  0.4267580000000  0.4807160000000 1.0
C      1  0.5194550000000  0.4604040000000  0.4947990000000 1.0
C      1  0.5900490000000  0.4762450000000  0.5391270000000 1.0
C      1  0.5641300000000  0.5404890000000  0.5055170000000 1.0
C      1  0.4845480000000  0.4214430000000  0.4357290000000 1.0
C      1  0.4601080000000  0.5561610000000  0.4680210000000 1.0
C      1  0.4144750000000  0.5264200000000  0.4879560000000 1.0
C      1  0.4765720000000  0.5741850000000  0.5373670000000 1.0
C      1  0.4904340000000  0.5191880000000  0.5213030000000 1.0
C      1  0.4038470000000  0.4768360000000  0.4775610000000 1.0
C      1  0.5096630000000  0.4376570000000  0.4495330000000 1.0
C      1  0.5177570000000  0.5507770000000  0.4806820000000 1.0
C      1  0.5680980000000  0.5122220000000  0.5709280000000 1.0
C      1  0.5655790000000  0.5700590000000  0.5182320000000 1.0
C      1  0.5720600000000  0.4268990000000  0.4963700000000 1.0
C      1  0.5633340000000  0.5257120000000  0.5334090000000 1.0
C      1  0.5006240000000  0.5176940000000  0.4945230000000 1.0
C      1  0.6015470000000  0.4945520000000  0.4784220000000 1.0
C      1  0.4229990000000  0.4322500000000  0.5140830000000 1.0
C      1  0.4917890000000  0.4825800000000  0.4636450000000 1.0
C      1  0.4475550000000  0.5284760000000  0.4790090000000 1.0
C      1  0.4559220000000  0.5146890000000  0.4021920000000 1.0
C      1  0.5936350000000  0.4835990000000  0.4470670000000 1.0
C      1  0.5409510000000  0.5807420000000  0.4432330000000 1.0
C      1  0.5614090000000  0.5341950000000  0.5891210000000 1.0
C      1  0.5996100000000  0.4791620000000  0.5071390000000 1.0
C      1  0.5462780000000  0.4934390000000  0.5678120000000 1.0
C      1  0.4443120000000  0.4887310000000  0.5513580000000 1.0
C      1  0.4461260000000  0.4957800000000  0.4769790000000 1.0
C      1  0.5027560000000  0.3938880000000  0.5137380000000 1.0
C      1  0.4640630000000  0.4531610000000  0.4488770000000 1.0
C      1  0.5322790000000  0.5383570000000  0.4171600000000 1.0
C      1  0.4685040000000  0.5203450000000  0.5545870000000 1.0
C      1  0.4822300000000  0.5224600000000  0.5935820000000 1.0
C      1  0.4536640000000  0.4544520000000  0.5894810000000 1.0
C      1  0.5425080000000  0.5378430000000  0.5505290000000 1.0
C      1  0.5249990000000  0.5173800000000  0.5410840000000 1.0
C      1  0.5380410000000  0.4482980000000  0.4617660000000 1.0
C      1  0.4828150000000  0.5611470000000  0.4446870000000 1.0
C      1  0.5392270000000  0.4416180000000  0.4224200000000 1.0
C      1  0.5586090000000  0.4941920000000  0.4141800000000 1.0
C      1  0.5864560000000  0.4432420000000  0.5171980000000 1.0
C      1  0.4942660000000  0.5453250000000  0.5332570000000 1.0
C      1  0.4470860000000  0.4214550000000  0.5337770000000 1.0
C      1  0.5243960000000  0.4076150000000  0.4948920000000 1.0
C      1  0.5169230000000  0.4799540000000  0.4740050000000 1.0
C      1  0.5386280000000  0.4159250000000  0.4661380000000 1.0
C      1  0.4820070000000  0.4470680000000  0.5990730000000 1.0
C      1  0.4076340000000  0.4608540000000  0.5253630000000 1.0
C      1  0.5554690000000  0.4418670000000  0.5573930000000 1.0
C      1  0.5161760000000  0.6012070000000  0.5324160000000 1.0
C      1  0.5796730000000  0.5591080000000  0.5468420000000 1.0
C      1  0.5127820000000  0.4188370000000  0.5320120000000 1.0
C      1  0.4929930000000  0.4907920000000  0.6000660000000 1.0
C      1  0.4344810000000  0.5008680000000  0.4469200000000 1.0
C      1  0.4187780000000  0.5072850000000  0.5483520000000 1.0
C      1  0.5086560000000  0.5673810000000  0.5796810000000 1.0
C      1  0.5706640000000  0.4392250000000  0.4653650000000 1.0
C      1  0.5497750000000  0.4158820000000  0.5101270000000 1.0
C      1  0.4295870000000  0.5270900000000  0.5681650000000 1.0
C      1  0.5122440000000  0.5930160000000  0.4807320000000 1.0
C      1  0.5169720000000  0.4501100000000  0.5535410000000 1.0
C      1  0.4060700000000  0.5228340000000  0.5207440000000 1.0
C      1  0.5302780000000  0.5458470000000  0.5876810000000 1.0
C      1  0.5236700000000  0.5709230000000  0.4200850000000 1.0
C      1  0.5686810000000  0.4664280000000  0.5008330000000 1.0
C      1  0.4959520000000  0.5899020000000  0.5574150000000 1.0
C      1  0.4351920000000  0.5510440000000  0.5544830000000 1.0
C      1  0.4319220000000  0.4558710000000  0.4923130000000 1.0
C      1  0.5158840000000  0.5189060000000  0.5882660000000 1.0
C      1  0.5621000000000  0.5232180000000  0.4217380000000 1.0
C      1  0.5126680000000  0.5236980000000  0.4364600000000 1.0
C      1  0.4520710000000  0.5269480000000  0.5253960000000 1.0
C      1  0.5344210000000  0.5013060000000  0.4729970000000 1.0
C      1  0.5069500000000  0.5093940000000  0.3992310000000 1.0
C      1  0.5756190000000  0.4737360000000  0.4263170000000 1.0
C      1  0.5156740000000  0.5628570000000  0.5153680000000 1.0
C      1  0.4956380000000  0.5344760000000  0.4019310000000 1.0
C      1  0.5840860000000  0.5147580000000  0.4997880000000 1.0
C      1  0.5252540000000  0.5256140000000  0.4618980000000 1.0
C      1  0.4642570000000  0.5507450000000  0.5074480000000 1.0
C      1  0.4740970000000  0.3996800000000  0.4999920000000 1.0
C      1  0.4100610000000  0.4864740000000  0.5048980000000 1.0
C      1  0.5621770000000  0.5746690000000  0.4853890000000 1.0
C      1  0.4468360000000  0.4389270000000  0.5614800000000 1.0
C      1  0.4704600000000  0.4796950000000  0.4840900000000 1.0
C      1  0.5533980000000  0.5032490000000  0.4979670000000 1.0
C      1  0.5014780000000  0.6009180000000  0.5066090000000 1.0
C      1  0.5359110000000  0.4969060000000  0.5255240000000 1.0
C      1  0.4730440000000  0.4942370000000  0.5338870000000 1.0
C      1  0.4477020000000  0.4574640000000  0.4204770000000 1.0
C      1  0.5984380000000  0.5062860000000  0.5284500000000 1.0
C      1  0.4629260000000  0.5329330000000  0.4245090000000 1.0
C      1  0.4947400000000  0.4173300000000  0.5587740000000 1.0
C      1  0.4668020000000  0.4320050000000  0.5080440000000 1.0
C      1  0.4532760000000  0.5133170000000  0.5827470000000 1.0
C      1  0.5430810000000  0.4249770000000  0.5375640000000 1.0
C      1  0.4739550000000  0.4385650000000  0.4132370000000 1.0
C      1  0.4215210000000  0.5584450000000  0.4782660000000 1.0
C      1  0.4497820000000  0.4236560000000  0.4591870000000 1.0
C      1  0.4627730000000  0.5836160000000  0.4847270000000 1.0
C      1  0.5294320000000  0.5866260000000  0.5605620000000 1.0
C      1  0.5160540000000  0.4820240000000  0.5568010000000 1.0
C      1  0.4610100000000  0.5607670000000  0.5607820000000 1.0
C      1  0.5814300000000  0.4497620000000  0.5477040000000 1.0
C      1  0.5331540000000  0.4910600000000  0.4040220000000 1.0
C      1  0.5906540000000  0.5269050000000  0.5500760000000 1.0
C      1  0.4249990000000  0.5512890000000  0.4494980000000 1.0
C      1  0.4459360000000  0.4720790000000  0.5146910000000 1.0
C      1  0.4886320000000  0.5835830000000  0.4654100000000 1.0
C      1  0.5561260000000  0.5612550000000  0.5706440000000 1.0
C      1  0.4492670000000  0.4821330000000  0.5839070000000 1.0
C      1  0.4390900000000  0.5035990000000  0.5094630000000 1.0
C      1  0.5799680000000  0.5567580000000  0.4710120000000 1.0
C      1  0.4355660000000  0.5611130000000  0.5052460000000 1.0
C      1  0.4152730000000  0.5250310000000  0.4453770000000 1.0
C      1  0.5391050000000  0.5776080000000  0.5296680000000 1.0
C      1  0.5647190000000  0.4476580000000  0.4325300000000 1.0
C      1  0.5390690000000  0.5852820000000  0.4712940000000 1.0
C      1  0.4903010000000  0.4703000000000  0.5749960000000 1.0
C      1  0.5076640000000  0.4338760000000  0.4832380000000 1.0
C      1  0.4760960000000  0.4032990000000  0.5339880000000 1.0
C      1  0.4801680000000  0.5525110000000  0.5812620000000 1.0
C      1  0.4430180000000  0.4898960000000  0.4198760000000 1.0
C      1  0.6074180000000  0.5599240000000  0.4744360000000 1.0
C      1  0.5353780000000  0.4567020000000  0.5809410000000 1.0
C      1  0.4794990000000  0.4171680000000  0.4732930000000 1.0
C      1  0.3949670000000  0.4921270000000  0.5323990000000 1.0
C      1  0.4733950000000  0.4863200000000  0.4036150000000 1.0
C      1  0.5063760000000  0.4489830000000  0.4174010000000 1.0
C      1  0.4698340000000  0.4489060000000  0.4819580000000 1.0
C      1  0.4155160000000  0.4623100000000  0.4283380000000 1.0
C      1  0.4995730000000  0.5116980000000  0.5593090000000 1.0
C      1  0.5040300000000  0.4758020000000  0.4044110000000 1.0
C      1  0.4460630000000  0.5551980000000  0.4306690000000 1.0
C      1  0.4747660000000  0.5898400000000  0.5108150000000 1.0
C      1  0.4799090000000  0.5194590000000  0.4732890000000 1.0
C      1  0.4782000000000  0.4696880000000  0.5150350000000 1.0
C      1  0.4343270000000  0.4597400000000  0.5428470000000 1.0
C      1  0.4834100000000  0.5148620000000  0.4417470000000 1.0
C      1  0.5729530000000  0.5033990000000  0.4632570000000 1.0
C      1  0.4021950000000  0.4773520000000  0.4462280000000 1.0
C      1  0.5707870000000  0.5315750000000  0.4536240000000 1.0
C      1  0.5398190000000  0.4689960000000  0.5131080000000 1.0
C      1  0.3993220000000  0.5062150000000  0.4651160000000 1.0
C      1  0.5613860000000  0.4720080000000  0.4698030000000 1.0
C      1  0.5265010000000  0.4867090000000  0.5947740000000 1.0
C      1  0.4892460000000  0.5559600000000  0.4952770000000 1.0
END
