TITL C-2778436-5916-1345 -0.00202715125821367 125000 -1088.4887570046 0 0 186 (C1) n - 1
REM
REM in /home/nfs/bkarasulu/CARBON/AIRSS/Generating-Clusters/REBO/Only-C1/SD-CG/HFTN-CG
REM
REM
REM
REM
REM
REM ./C.cell (11c1c37f851c82e70ff6c80c92926a4b)
REM
REM compiler GCC version 9.2.1 20190827 (Red Hat 9.2.1-1)
REM options -cpp -mtune=generic -march=x86-64 -g -O0 -fpre-include=/usr/include/finclude/math-vector-fortran.h
REM seed 943701548 1395493783 1012959505 -1711591289 2044451976 153842922 -1655355438 1400702223 73703920 611027401 -1950227481 510891054 1828925646 38062270 88296656 -958220014 632502527 -838105648 -854360360 1792873815 452017604 645994202 1535532551 1871053005 210083868 -685370675 -628796741 -1155927078 -1177054318 1059632435 -838126444 1945590797 -938024843
REM
CELL 1.54180   50.00000   50.00000   50.00000   90.00000   90.00000   90.00000
LATT -1
SFAC C  
C      1  0.5628170000000  0.5089530000000  0.5948660000000 1.0
C      1  0.4796060000000  0.5327520000000  0.4383970000000 1.0
C      1  0.5842730000000  0.4708360000000  0.5713810000000 1.0
C      1  0.5373790000000  0.5471300000000  0.5457440000000 1.0
C      1  0.5349560000000  0.3926810000000  0.4857890000000 1.0
C      1  0.4985690000000  0.4504150000000  0.5244440000000 1.0
C      1  0.4262730000000  0.4514700000000  0.4992170000000 1.0
C      1  0.5119680000000  0.5705310000000  0.4678910000000 1.0
C      1  0.5226880000000  0.5774700000000  0.4380880000000 1.0
C      1  0.4513860000000  0.5622390000000  0.5804780000000 1.0
C      1  0.4598580000000  0.4825660000000  0.5894070000000 1.0
C      1  0.4903360000000  0.5786380000000  0.5127340000000 1.0
C      1  0.4849590000000  0.4665460000000  0.5973890000000 1.0
C      1  0.6073400000000  0.5140710000000  0.4765530000000 1.0
C      1  0.5515350000000  0.5239850000000  0.4081040000000 1.0
C      1  0.5331790000000  0.4897010000000  0.3989210000000 1.0
C      1  0.4828150000000  0.5629620000000  0.4826810000000 1.0
C      1  0.4600250000000  0.4781120000000  0.4552480000000 1.0
C      1  0.5394610000000  0.3905430000000  0.5124440000000 1.0
C      1  0.4231390000000  0.5408670000000  0.5631110000000 1.0
C      1  0.5479850000000  0.4595240000000  0.4890940000000 1.0
C      1  0.5264360000000  0.5817040000000  0.4963150000000 1.0
C      1  0.5846340000000  0.4835810000000  0.4371030000000 1.0
C      1  0.5285980000000  0.5283190000000  0.5904200000000 1.0
C      1  0.4413620000000  0.5048470000000  0.4157740000000 1.0
C      1  0.4371050000000  0.5449850000000  0.5265100000000 1.0
C      1  0.4658560000000  0.4103190000000  0.5503900000000 1.0
C      1  0.4807230000000  0.5182560000000  0.5784630000000 1.0
C      1  0.5141710000000  0.4631730000000  0.4007500000000 1.0
C      1  0.5416470000000  0.5798300000000  0.5466310000000 1.0
C      1  0.5039150000000  0.4231620000000  0.5791030000000 1.0
C      1  0.5934940000000  0.4635000000000  0.5460600000000 1.0
C      1  0.4869580000000  0.5390070000000  0.4059940000000 1.0
C      1  0.5397780000000  0.5070340000000  0.5250820000000 1.0
C      1  0.5625200000000  0.5174150000000  0.5061420000000 1.0
C      1  0.4895930000000  0.4093350000000  0.4709590000000 1.0
C      1  0.5115790000000  0.5909130000000  0.5363400000000 1.0
C      1  0.5672530000000  0.5667320000000  0.5281050000000 1.0
C      1  0.4247910000000  0.5730870000000  0.4696510000000 1.0
C      1  0.5801020000000  0.4637980000000  0.4880290000000 1.0
C      1  0.5575550000000  0.4318730000000  0.5588220000000 1.0
C      1  0.5648820000000  0.5400820000000  0.4341680000000 1.0
C      1  0.5134180000000  0.4821240000000  0.6030770000000 1.0
C      1  0.4651020000000  0.4761360000000  0.5608970000000 1.0
C      1  0.5122660000000  0.5356020000000  0.4406650000000 1.0
C      1  0.4225970000000  0.4419370000000  0.4681270000000 1.0
C      1  0.5778600000000  0.5071850000000  0.4156350000000 1.0
C      1  0.5556740000000  0.5683170000000  0.4989700000000 1.0
C      1  0.5276770000000  0.4018150000000  0.4610300000000 1.0
C      1  0.4141290000000  0.5044330000000  0.4336060000000 1.0
C      1  0.4375940000000  0.4429360000000  0.4374850000000 1.0
C      1  0.4834810000000  0.5812110000000  0.4325900000000 1.0
C      1  0.4906800000000  0.5295430000000  0.4829270000000 1.0
C      1  0.5385890000000  0.5691840000000  0.5788790000000 1.0
C      1  0.4783560000000  0.4522180000000  0.4619780000000 1.0
C      1  0.4226440000000  0.5684170000000  0.4379640000000 1.0
C      1  0.4438480000000  0.4752150000000  0.5044260000000 1.0
C      1  0.4201570000000  0.4518380000000  0.5453150000000 1.0
C      1  0.5220510000000  0.6123970000000  0.4890750000000 1.0
C      1  0.4986610000000  0.4861310000000  0.4601980000000 1.0
C      1  0.6070970000000  0.4870000000000  0.5287280000000 1.0
C      1  0.4026980000000  0.4792250000000  0.4399630000000 1.0
C      1  0.4085790000000  0.5234010000000  0.4533880000000 1.0
C      1  0.6085280000000  0.5280640000000  0.5221220000000 1.0
C      1  0.4884210000000  0.4502790000000  0.4146000000000 1.0
C      1  0.5514770000000  0.5759800000000  0.4657160000000 1.0
C      1  0.4637720000000  0.4407200000000  0.4905490000000 1.0
C      1  0.4469080000000  0.4921390000000  0.4783270000000 1.0
C      1  0.4707250000000  0.5018130000000  0.4334840000000 1.0
C      1  0.5172230000000  0.4988070000000  0.4843490000000 1.0
C      1  0.4381780000000  0.5021390000000  0.5913040000000 1.0
C      1  0.4099490000000  0.4831680000000  0.5474900000000 1.0
C      1  0.4925720000000  0.5044000000000  0.6072590000000 1.0
C      1  0.5114220000000  0.4560490000000  0.4531990000000 1.0
C      1  0.6032720000000  0.5126210000000  0.5491920000000 1.0
C      1  0.4715060000000  0.4004430000000  0.5122500000000 1.0
C      1  0.5128620000000  0.5040490000000  0.5122520000000 1.0
C      1  0.5360100000000  0.4752130000000  0.4678460000000 1.0
C      1  0.4531430000000  0.5912940000000  0.4757890000000 1.0
C      1  0.4844590000000  0.4978970000000  0.3849730000000 1.0
C      1  0.4209110000000  0.5197400000000  0.5173760000000 1.0
C      1  0.4885500000000  0.4950750000000  0.5342920000000 1.0
C      1  0.5333630000000  0.6025420000000  0.4584250000000 1.0
C      1  0.3923330000000  0.5381330000000  0.4966620000000 1.0
C      1  0.5955200000000  0.4852340000000  0.4665970000000 1.0
C      1  0.4950040000000  0.4055200000000  0.5573720000000 1.0
C      1  0.5262050000000  0.5098600000000  0.5700560000000 1.0
C      1  0.4835240000000  0.5616830000000  0.5397390000000 1.0
C      1  0.4764240000000  0.4809900000000  0.5066810000000 1.0
C      1  0.4332510000000  0.5404170000000  0.4642840000000 1.0
C      1  0.4454630000000  0.5558940000000  0.4293130000000 1.0
C      1  0.5573960000000  0.4572450000000  0.5821850000000 1.0
C      1  0.4435970000000  0.4036190000000  0.4733240000000 1.0
C      1  0.5767510000000  0.5219270000000  0.4588170000000 1.0
C      1  0.5075800000000  0.5773940000000  0.5673670000000 1.0
C      1  0.4608930000000  0.5225960000000  0.4716540000000 1.0
C      1  0.5076370000000  0.5408000000000  0.5514670000000 1.0
C      1  0.4567380000000  0.5003100000000  0.5434100000000 1.0
C      1  0.4817020000000  0.4398880000000  0.5867050000000 1.0
C      1  0.4955740000000  0.5484590000000  0.5808810000000 1.0
C      1  0.4050420000000  0.4552050000000  0.5197540000000 1.0
C      1  0.4411840000000  0.4752290000000  0.4299320000000 1.0
C      1  0.6072860000000  0.4797480000000  0.4981530000000 1.0
C      1  0.5587010000000  0.4948670000000  0.4544110000000 1.0
C      1  0.4542540000000  0.5399630000000  0.4084240000000 1.0
C      1  0.5588710000000  0.4064570000000  0.5357050000000 1.0
C      1  0.4668680000000  0.5368520000000  0.5242340000000 1.0
C      1  0.5727300000000  0.5210920000000  0.5582880000000 1.0
C      1  0.5694500000000  0.4358490000000  0.4498390000000 1.0
C      1  0.5047600000000  0.5318690000000  0.6072400000000 1.0
C      1  0.4299540000000  0.4201860000000  0.4956440000000 1.0
C      1  0.5751070000000  0.4566540000000  0.4267010000000 1.0
C      1  0.4195690000000  0.5549830000000  0.4985210000000 1.0
C      1  0.5216390000000  0.4198330000000  0.4396350000000 1.0
C      1  0.5496630000000  0.5382500000000  0.4865050000000 1.0
C      1  0.5677840000000  0.5521000000000  0.5587630000000 1.0
C      1  0.4525300000000  0.5628650000000  0.4952120000000 1.0
C      1  0.4778180000000  0.5989570000000  0.4568260000000 1.0
C      1  0.5880670000000  0.5454580000000  0.4789830000000 1.0
C      1  0.5284650000000  0.4648530000000  0.5168860000000 1.0
C      1  0.5759990000000  0.4914840000000  0.5198270000000 1.0
C      1  0.3945140000000  0.4829350000000  0.5160780000000 1.0
C      1  0.5010020000000  0.6124840000000  0.4650000000000 1.0
C      1  0.5894860000000  0.5002100000000  0.5778980000000 1.0
C      1  0.4689820000000  0.5593610000000  0.4516970000000 1.0
C      1  0.4598240000000  0.5921180000000  0.5093980000000 1.0
C      1  0.4530390000000  0.5243080000000  0.5615810000000 1.0
C      1  0.5331520000000  0.4267280000000  0.5277340000000 1.0
C      1  0.5425770000000  0.4844590000000  0.5963740000000 1.0
C      1  0.5816610000000  0.5712570000000  0.4688370000000 1.0
C      1  0.5742700000000  0.4427990000000  0.5320940000000 1.0
C      1  0.5122110000000  0.4627750000000  0.5683640000000 1.0
C      1  0.4458950000000  0.4097670000000  0.5238880000000 1.0
C      1  0.4944740000000  0.4660170000000  0.4878700000000 1.0
C      1  0.3884260000000  0.5256290000000  0.5236550000000 1.0
C      1  0.5407680000000  0.4999600000000  0.4285850000000 1.0
C      1  0.4479110000000  0.4450960000000  0.5424630000000 1.0
C      1  0.4127900000000  0.4981500000000  0.5745660000000 1.0
C      1  0.4624670000000  0.4851280000000  0.3976790000000 1.0
C      1  0.5004260000000  0.5309240000000  0.5215110000000 1.0
C      1  0.5158820000000  0.3999220000000  0.5348200000000 1.0
C      1  0.5346650000000  0.4313390000000  0.4963140000000 1.0
C      1  0.4456640000000  0.5943980000000  0.5345900000000 1.0
C      1  0.3895390000000  0.5177440000000  0.4754340000000 1.0
C      1  0.4692070000000  0.3949210000000  0.4850650000000 1.0
C      1  0.5042670000000  0.4333490000000  0.4887680000000 1.0
C      1  0.5051920000000  0.5127910000000  0.4156690000000 1.0
C      1  0.4951160000000  0.4832910000000  0.4206040000000 1.0
C      1  0.5763200000000  0.4341150000000  0.4772300000000 1.0
C      1  0.5603190000000  0.4706800000000  0.5250440000000 1.0
C      1  0.4955550000000  0.4175510000000  0.5176410000000 1.0
C      1  0.5326790000000  0.4522870000000  0.5472450000000 1.0
C      1  0.5212220000000  0.5083740000000  0.4518580000000 1.0
C      1  0.5226730000000  0.5558220000000  0.5177060000000 1.0
C      1  0.4595460000000  0.4342530000000  0.5688170000000 1.0
C      1  0.4733550000000  0.5771950000000  0.5656670000000 1.0
C      1  0.4029960000000  0.5249600000000  0.5712780000000 1.0
C      1  0.5434920000000  0.5614180000000  0.4184690000000 1.0
C      1  0.5297560000000  0.4381220000000  0.5841190000000 1.0
C      1  0.5255700000000  0.5428390000000  0.3966470000000 1.0
C      1  0.4965010000000  0.4255300000000  0.4289450000000 1.0
C      1  0.4708310000000  0.5125180000000  0.5027530000000 1.0
C      1  0.4658780000000  0.4442800000000  0.5183190000000 1.0
C      1  0.5110170000000  0.6215680000000  0.5353060000000 1.0
C      1  0.4776100000000  0.4153120000000  0.4455700000000 1.0
C      1  0.5004850000000  0.4944470000000  0.5641560000000 1.0
C      1  0.5403300000000  0.5457530000000  0.4547450000000 1.0
C      1  0.5046650000000  0.5655680000000  0.4117120000000 1.0
C      1  0.5458790000000  0.4602250000000  0.4108100000000 1.0
C      1  0.5463520000000  0.5086170000000  0.5516450000000 1.0
C      1  0.4856040000000  0.4594760000000  0.5520680000000 1.0
C      1  0.4028430000000  0.4692220000000  0.4671500000000 1.0
C      1  0.4368650000000  0.5682940000000  0.5499810000000 1.0
C      1  0.5152150000000  0.5127790000000  0.3844870000000 1.0
C      1  0.4268460000000  0.5170180000000  0.4882250000000 1.0
C      1  0.5833030000000  0.5421530000000  0.5109420000000 1.0
C      1  0.4494120000000  0.4164860000000  0.4485410000000 1.0
C      1  0.5565940000000  0.5421640000000  0.5893750000000 1.0
C      1  0.6220260000000  0.5167890000000  0.5006770000000 1.0
C      1  0.4474480000000  0.5340870000000  0.5938780000000 1.0
C      1  0.5397750000000  0.4440720000000  0.4387310000000 1.0
C      1  0.3926710000000  0.4893130000000  0.4869300000000 1.0
C      1  0.5175560000000  0.5438520000000  0.4872820000000 1.0
C      1  0.5664630000000  0.4228180000000  0.5063260000000 1.0
C      1  0.4325360000000  0.4938100000000  0.5274960000000 1.0
C      1  0.4571560000000  0.4540130000000  0.4111850000000 1.0
END
