TITL C-2778437-8639-1311 0.132886302261931 125000 -399.60732313249 0 0 69 (C1) n - 1
REM
REM in /home/nfs/bkarasulu/CARBON/AIRSS/Generating-Clusters/REBO/Only-C1/SD-CG/HFTN-CG
REM
REM
REM
REM
REM
REM ./C.cell (11c1c37f851c82e70ff6c80c92926a4b)
REM
REM compiler GCC version 9.2.1 20190827 (Red Hat 9.2.1-1)
REM options -cpp -mtune=generic -march=x86-64 -g -O0 -fpre-include=/usr/include/finclude/math-vector-fortran.h
REM seed 1538646506 94030890 -1444681621 1599097451 1675698835 -867498115 -1949024961 -496675814 1847413906 -655033027 -1151921003 1152617409 89194069 -596962305 1907707851 521850694 1082552445 -277845012 -66617420 -1272246479 1616207103 -61891953 -1967623495 -2080609269 -1544619767 1219006160 2088357245 -585804211 -2083488025 254139317 1421241383 -912710337 -1853552040
REM
CELL 1.54180   50.00000   50.00000   50.00000   90.00000   90.00000   90.00000
LATT -1
SFAC C  
C      1  0.4547300000000  0.4593870000000  0.4619570000000 1.0
C      1  0.4942380000000  0.5661040000000  0.4689850000000 1.0
C      1  0.5189810000000  0.4656240000000  0.4350990000000 1.0
C      1  0.4708230000000  0.4117490000000  0.5324290000000 1.0
C      1  0.5380400000000  0.4007230000000  0.4872030000000 1.0
C      1  0.4541410000000  0.5032180000000  0.5669180000000 1.0
C      1  0.4595370000000  0.5502380000000  0.5543190000000 1.0
C      1  0.4842650000000  0.4352600000000  0.5385620000000 1.0
C      1  0.5089100000000  0.5236290000000  0.4247750000000 1.0
C      1  0.4520110000000  0.5449080000000  0.4762210000000 1.0
C      1  0.5126570000000  0.5121650000000  0.5373430000000 1.0
C      1  0.5088420000000  0.4367900000000  0.4423650000000 1.0
C      1  0.5074550000000  0.4975390000000  0.5111550000000 1.0
C      1  0.5209440000000  0.4511200000000  0.5395560000000 1.0
C      1  0.5513810000000  0.5372570000000  0.5112200000000 1.0
C      1  0.5201830000000  0.4723400000000  0.4669270000000 1.0
C      1  0.5301660000000  0.4745040000000  0.5085220000000 1.0
C      1  0.5356690000000  0.5312030000000  0.4308590000000 1.0
C      1  0.5402410000000  0.4843590000000  0.4191720000000 1.0
C      1  0.4768120000000  0.5005030000000  0.4253330000000 1.0
C      1  0.5333190000000  0.4361230000000  0.5245890000000 1.0
C      1  0.5404080000000  0.5315230000000  0.5383890000000 1.0
C      1  0.5234600000000  0.5026950000000  0.4811540000000 1.0
C      1  0.4988040000000  0.5228190000000  0.5666250000000 1.0
C      1  0.5416140000000  0.4272190000000  0.4948990000000 1.0
C      1  0.5767280000000  0.4640750000000  0.4893690000000 1.0
C      1  0.5530050000000  0.5056370000000  0.4329610000000 1.0
C      1  0.4756410000000  0.4854810000000  0.5110280000000 1.0
C      1  0.4211060000000  0.5165950000000  0.4991120000000 1.0
C      1  0.4701710000000  0.5142790000000  0.4952180000000 1.0
C      1  0.5173600000000  0.5472170000000  0.5554780000000 1.0
C      1  0.4259260000000  0.5239750000000  0.5272620000000 1.0
C      1  0.5493300000000  0.5474640000000  0.4525360000000 1.0
C      1  0.4843820000000  0.5906510000000  0.4877570000000 1.0
C      1  0.4741120000000  0.5479640000000  0.4578840000000 1.0
C      1  0.5681220000000  0.4407770000000  0.4863530000000 1.0
C      1  0.5513670000000  0.4787530000000  0.5344280000000 1.0
C      1  0.4692290000000  0.5268680000000  0.5680290000000 1.0
C      1  0.5140350000000  0.5653010000000  0.4963370000000 1.0
C      1  0.5492120000000  0.5162220000000  0.4651360000000 1.0
C      1  0.5417260000000  0.5604620000000  0.4970690000000 1.0
C      1  0.4553050000000  0.4817970000000  0.5338790000000 1.0
C      1  0.4912030000000  0.4552690000000  0.5131470000000 1.0
C      1  0.4456300000000  0.5447460000000  0.5297810000000 1.0
C      1  0.5590290000000  0.5147660000000  0.4948810000000 1.0
C      1  0.4914340000000  0.4414830000000  0.5647700000000 1.0
C      1  0.5542420000000  0.5663670000000  0.4722210000000 1.0
C      1  0.4769020000000  0.5729960000000  0.5552600000000 1.0
C      1  0.4328090000000  0.5014940000000  0.5440170000000 1.0
C      1  0.4936690000000  0.4881670000000  0.4591240000000 1.0
C      1  0.5412310000000  0.5004360000000  0.5523310000000 1.0
C      1  0.4245110000000  0.5372060000000  0.4788030000000 1.0
C      1  0.4687690000000  0.4778590000000  0.4449380000000 1.0
C      1  0.4420850000000  0.4971880000000  0.4927510000000 1.0
C      1  0.4694860000000  0.4360330000000  0.4692050000000 1.0
C      1  0.5044600000000  0.5710870000000  0.5546410000000 1.0
C      1  0.4981690000000  0.4726780000000  0.5411240000000 1.0
C      1  0.4811700000000  0.5299820000000  0.4369540000000 1.0
C      1  0.5070770000000  0.4910270000000  0.4157140000000 1.0
C      1  0.5158520000000  0.4490270000000  0.4910220000000 1.0
C      1  0.5169450000000  0.4965690000000  0.5737640000000 1.0
C      1  0.5609070000000  0.4860750000000  0.5036590000000 1.0
C      1  0.4850030000000  0.5658390000000  0.5078760000000 1.0
C      1  0.4640920000000  0.5449620000000  0.5058490000000 1.0
C      1  0.4717380000000  0.4761860000000  0.5622920000000 1.0
C      1  0.4387980000000  0.4720710000000  0.4813980000000 1.0
C      1  0.4920930000000  0.5137370000000  0.4748010000000 1.0
C      1  0.5006460000000  0.4708520000000  0.5777380000000 1.0
C      1  0.4976620000000  0.4333800000000  0.4675300000000 1.0
END
