TITL C-2778427-5640-1404 0.00119083436452323 125000 -199.662403337687 0 0 35 (C1) n - 1
REM
REM in /home/nfs/bkarasulu/CARBON/AIRSS/Generating-Clusters/REBO/Only-C1/SD-CG/HFTN-CG
REM
REM
REM
REM
REM
REM ./C.cell (11c1c37f851c82e70ff6c80c92926a4b)
REM
REM compiler GCC version 9.2.1 20190827 (Red Hat 9.2.1-1)
REM options -cpp -mtune=generic -march=x86-64 -g -O0 -fpre-include=/usr/include/finclude/math-vector-fortran.h
REM seed 400700918 1986013198 124350881 -820197147 -499822435 -2054938217 -1496105631 1161985282 1698636274 1987250026 1798938205 712084160 -75039874 -152567992 2039861572 -2110677758 -379806609 1551712427 862520239 1733100419 -609212376 190065935 -1958987689 -1625885951 1199630716 -1447946101 1244062693 1211697227 1602610267 1854243756 -1807879142 -1052528213 -284702732
REM
CELL 1.54180   50.00000   50.00000   50.00000   90.00000   90.00000   90.00000
LATT -1
SFAC C  
C      1  0.4946670000000  0.4439740000000  0.3848760000000 1.0
C      1  0.4815420000000  0.4634410000000  0.5407860000000 1.0
C      1  0.5605260000000  0.5165040000000  0.4976010000000 1.0
C      1  0.4915020000000  0.4600870000000  0.4350970000000 1.0
C      1  0.4930970000000  0.4519660000000  0.4097850000000 1.0
C      1  0.4547550000000  0.4611530000000  0.5279440000000 1.0
C      1  0.5364070000000  0.5172430000000  0.5422380000000 1.0
C      1  0.4428010000000  0.4449560000000  0.5086340000000 1.0
C      1  0.4898310000000  0.4685930000000  0.4616070000000 1.0
C      1  0.4155590000000  0.6461860000000  0.5257970000000 1.0
C      1  0.4865330000000  0.4940310000000  0.5474210000000 1.0
C      1  0.5791110000000  0.4889350000000  0.4941270000000 1.0
C      1  0.4911890000000  0.5391610000000  0.4949860000000 1.0
C      1  0.5220650000000  0.4726250000000  0.5038600000000 1.0
C      1  0.5154140000000  0.5000000000000  0.5464710000000 1.0
C      1  0.5137310000000  0.4684780000000  0.5335580000000 1.0
C      1  0.5489490000000  0.4782350000000  0.5038820000000 1.0
C      1  0.4620490000000  0.4944470000000  0.5252370000000 1.0
C      1  0.4656740000000  0.5545390000000  0.5056420000000 1.0
C      1  0.4614410000000  0.4929860000000  0.4913920000000 1.0
C      1  0.4653110000000  0.5216510000000  0.5062180000000 1.0
C      1  0.5366170000000  0.4519470000000  0.5480160000000 1.0
C      1  0.4529960000000  0.5777230000000  0.5107410000000 1.0
C      1  0.4645420000000  0.4710870000000  0.4749670000000 1.0
C      1  0.4484330000000  0.4486500000000  0.4818050000000 1.0
C      1  0.5383380000000  0.5177060000000  0.4791100000000 1.0
C      1  0.5551830000000  0.5247650000000  0.5240540000000 1.0
C      1  0.4279050000000  0.6236080000000  0.5208320000000 1.0
C      1  0.5155820000000  0.5332040000000  0.4846970000000 1.0
C      1  0.5622310000000  0.4797750000000  0.4662120000000 1.0
C      1  0.5355850000000  0.4919570000000  0.4649960000000 1.0
C      1  0.5638420000000  0.4545110000000  0.5435340000000 1.0
C      1  0.5731640000000  0.4693330000000  0.5214810000000 1.0
C      1  0.4404510000000  0.6006660000000  0.5157870000000 1.0
C      1  0.5129780000000  0.4758790000000  0.4766060000000 1.0
END
