TITL C-2778434-4341-216 -0.000330781439025345 125000 -1017.15969980528 0 0 175 (C1) n - 1
REM
REM in /home/nfs/bkarasulu/CARBON/AIRSS/Generating-Clusters/REBO/Only-C1/SD-CG/HFTN-CG
REM
REM
REM
REM
REM
REM ./C.cell (11c1c37f851c82e70ff6c80c92926a4b)
REM
REM compiler GCC version 9.2.1 20190827 (Red Hat 9.2.1-1)
REM options -cpp -mtune=generic -march=x86-64 -g -O0 -fpre-include=/usr/include/finclude/math-vector-fortran.h
REM seed 568206821 1998139576 -234477030 37178026 -1565940175 -852793278 -1432911379 581006459 -151216119 -1147335450 -1966157338 1266349137 -1532233905 -1294487442 -1648007885 2036522825 -1160063331 845111560 1211558449 855734291 -2137564391 -522170594 -1347980901 546895703 449692218 213634028 1980373552 -151654516 -862487987 -1904908553 69304480 1341072440 1308312891
REM
CELL 1.54180   50.00000   50.00000   50.00000   90.00000   90.00000   90.00000
LATT -1
SFAC C  
C      1  0.5788650000000  0.5318000000000  0.5475090000000 1.0
C      1  0.4805060000000  0.4793870000000  0.6018970000000 1.0
C      1  0.4697550000000  0.5264970000000  0.4471580000000 1.0
C      1  0.3996750000000  0.4757750000000  0.4598750000000 1.0
C      1  0.4716780000000  0.4743580000000  0.5616100000000 1.0
C      1  0.5241280000000  0.4286170000000  0.4521170000000 1.0
C      1  0.4505550000000  0.5483790000000  0.4920430000000 1.0
C      1  0.4898860000000  0.5139880000000  0.5599420000000 1.0
C      1  0.4987880000000  0.4013610000000  0.5602930000000 1.0
C      1  0.5385100000000  0.5364200000000  0.3997370000000 1.0
C      1  0.5540090000000  0.5745100000000  0.5813790000000 1.0
C      1  0.5260460000000  0.4289190000000  0.5318630000000 1.0
C      1  0.4995190000000  0.6243790000000  0.4840400000000 1.0
C      1  0.4785710000000  0.5535970000000  0.5878690000000 1.0
C      1  0.5758720000000  0.4995400000000  0.4308860000000 1.0
C      1  0.4559370000000  0.4925600000000  0.4831200000000 1.0
C      1  0.4381610000000  0.5677120000000  0.4462420000000 1.0
C      1  0.4250740000000  0.4436350000000  0.5570690000000 1.0
C      1  0.5557820000000  0.4799280000000  0.4505360000000 1.0
C      1  0.4395860000000  0.5048840000000  0.5575580000000 1.0
C      1  0.4600310000000  0.5288770000000  0.5819840000000 1.0
C      1  0.4271320000000  0.4199410000000  0.5052640000000 1.0
C      1  0.4888420000000  0.4588570000000  0.4303130000000 1.0
C      1  0.4875970000000  0.5277130000000  0.5066100000000 1.0
C      1  0.5293600000000  0.5151360000000  0.5911600000000 1.0
C      1  0.5304190000000  0.5342810000000  0.4388460000000 1.0
C      1  0.5845640000000  0.4716510000000  0.4657710000000 1.0
C      1  0.5972740000000  0.4836570000000  0.5016050000000 1.0
C      1  0.5114560000000  0.5479590000000  0.4709270000000 1.0
C      1  0.5152040000000  0.5531400000000  0.3978480000000 1.0
C      1  0.4448670000000  0.4504340000000  0.5331330000000 1.0
C      1  0.5190520000000  0.4212950000000  0.5736070000000 1.0
C      1  0.4870490000000  0.4194640000000  0.4338870000000 1.0
C      1  0.4723430000000  0.5181870000000  0.5325500000000 1.0
C      1  0.5871430000000  0.5725590000000  0.5186650000000 1.0
C      1  0.5872720000000  0.5541270000000  0.4898990000000 1.0
C      1  0.5057930000000  0.5165790000000  0.4101910000000 1.0
C      1  0.6027080000000  0.4963040000000  0.4704990000000 1.0
C      1  0.4774140000000  0.4624230000000  0.4623440000000 1.0
C      1  0.4560900000000  0.5188340000000  0.4186520000000 1.0
C      1  0.4879370000000  0.4463330000000  0.5960030000000 1.0
C      1  0.4427910000000  0.5617350000000  0.5300900000000 1.0
C      1  0.5222980000000  0.3990990000000  0.5407600000000 1.0
C      1  0.5129460000000  0.5801180000000  0.4125220000000 1.0
C      1  0.5134050000000  0.6020960000000  0.4846500000000 1.0
C      1  0.4122300000000  0.4297120000000  0.4779960000000 1.0
C      1  0.5082450000000  0.4850730000000  0.5255340000000 1.0
C      1  0.6005670000000  0.5277700000000  0.4729380000000 1.0
C      1  0.5017340000000  0.5199910000000  0.4700830000000 1.0
C      1  0.5309420000000  0.4713830000000  0.4025620000000 1.0
C      1  0.5175080000000  0.5381590000000  0.6109210000000 1.0
C      1  0.5512380000000  0.5001430000000  0.4772860000000 1.0
C      1  0.4714530000000  0.5728140000000  0.4932830000000 1.0
C      1  0.5221670000000  0.6056920000000  0.5376600000000 1.0
C      1  0.5589530000000  0.4774960000000  0.5742510000000 1.0
C      1  0.5395940000000  0.5435010000000  0.4845460000000 1.0
C      1  0.4675060000000  0.4405490000000  0.4149350000000 1.0
C      1  0.5639160000000  0.5556160000000  0.6059620000000 1.0
C      1  0.4477450000000  0.5313170000000  0.5173230000000 1.0
C      1  0.5451490000000  0.4087170000000  0.5739280000000 1.0
C      1  0.5510180000000  0.5227330000000  0.5425910000000 1.0
C      1  0.5059680000000  0.4993450000000  0.4462770000000 1.0
C      1  0.4931810000000  0.5648200000000  0.4468930000000 1.0
C      1  0.5924670000000  0.5168050000000  0.5029800000000 1.0
C      1  0.5176590000000  0.4492820000000  0.5563420000000 1.0
C      1  0.5494660000000  0.5972120000000  0.5564200000000 1.0
C      1  0.5566700000000  0.5922660000000  0.4853950000000 1.0
C      1  0.5062070000000  0.4739600000000  0.4652190000000 1.0
C      1  0.4353480000000  0.4457810000000  0.4616330000000 1.0
C      1  0.4038870000000  0.4632350000000  0.5508900000000 1.0
C      1  0.5523180000000  0.4318000000000  0.5130680000000 1.0
C      1  0.4568850000000  0.4593050000000  0.5892450000000 1.0
C      1  0.5440380000000  0.4580810000000  0.4946500000000 1.0
C      1  0.4856810000000  0.4464380000000  0.5561670000000 1.0
C      1  0.3807940000000  0.4767650000000  0.5059870000000 1.0
C      1  0.4632330000000  0.4752700000000  0.5084470000000 1.0
C      1  0.5789860000000  0.5807480000000  0.5508430000000 1.0
C      1  0.5197060000000  0.5628900000000  0.5131130000000 1.0
C      1  0.4611840000000  0.5642400000000  0.5652230000000 1.0
C      1  0.5418650000000  0.5615380000000  0.4490050000000 1.0
C      1  0.4888960000000  0.4191770000000  0.4685220000000 1.0
C      1  0.5698940000000  0.5271250000000  0.4378520000000 1.0
C      1  0.5952360000000  0.5069020000000  0.5641280000000 1.0
C      1  0.5110700000000  0.4695300000000  0.5901970000000 1.0
C      1  0.4525110000000  0.4040680000000  0.5217400000000 1.0
C      1  0.5333520000000  0.4583210000000  0.4645280000000 1.0
C      1  0.5142390000000  0.5107690000000  0.5097230000000 1.0
C      1  0.5130490000000  0.4394720000000  0.4247120000000 1.0
C      1  0.5282850000000  0.4767100000000  0.5487850000000 1.0
C      1  0.4942570000000  0.5577270000000  0.5056310000000 1.0
C      1  0.5767240000000  0.4519740000000  0.4888430000000 1.0
C      1  0.5347090000000  0.5022220000000  0.4351700000000 1.0
C      1  0.4390730000000  0.4842970000000  0.5302470000000 1.0
C      1  0.5942230000000  0.4570210000000  0.5170010000000 1.0
C      1  0.4961450000000  0.4337450000000  0.4993490000000 1.0
C      1  0.4348920000000  0.5749370000000  0.4773370000000 1.0
C      1  0.5976810000000  0.5307960000000  0.5823710000000 1.0
C      1  0.5333420000000  0.5851050000000  0.4297340000000 1.0
C      1  0.5034610000000  0.4670550000000  0.3940070000000 1.0
C      1  0.5523900000000  0.3944900000000  0.5481000000000 1.0
C      1  0.4297820000000  0.5812810000000  0.5103510000000 1.0
C      1  0.4033690000000  0.5933030000000  0.5186370000000 1.0
C      1  0.4603940000000  0.4277520000000  0.4520440000000 1.0
C      1  0.5853630000000  0.4797740000000  0.5633350000000 1.0
C      1  0.5323430000000  0.5929580000000  0.5093280000000 1.0
C      1  0.5933710000000  0.4602340000000  0.5438990000000 1.0
C      1  0.4098290000000  0.5118310000000  0.4879790000000 1.0
C      1  0.5423030000000  0.5028480000000  0.5656970000000 1.0
C      1  0.4722060000000  0.5169810000000  0.4800650000000 1.0
C      1  0.5046820000000  0.5000040000000  0.5783160000000 1.0
C      1  0.5045630000000  0.5591990000000  0.5975940000000 1.0
C      1  0.5573860000000  0.4028260000000  0.4952630000000 1.0
C      1  0.4332720000000  0.4671490000000  0.4837180000000 1.0
C      1  0.4787660000000  0.4863690000000  0.5334770000000 1.0
C      1  0.4612100000000  0.4981730000000  0.5827590000000 1.0
C      1  0.4758330000000  0.3937720000000  0.4992580000000 1.0
C      1  0.4387780000000  0.4359570000000  0.5803840000000 1.0
C      1  0.5682650000000  0.4050080000000  0.5267180000000 1.0
C      1  0.4471300000000  0.4676730000000  0.4099350000000 1.0
C      1  0.4899100000000  0.5965560000000  0.5438690000000 1.0
C      1  0.3937160000000  0.5494580000000  0.4222850000000 1.0
C      1  0.5662970000000  0.4957920000000  0.5025830000000 1.0
C      1  0.5804130000000  0.5561890000000  0.5698510000000 1.0
C      1  0.4667440000000  0.5380210000000  0.3977990000000 1.0
C      1  0.4697540000000  0.4516430000000  0.4888380000000 1.0
C      1  0.4836290000000  0.5630510000000  0.4081490000000 1.0
C      1  0.5347670000000  0.5027890000000  0.4030950000000 1.0
C      1  0.5150720000000  0.5808000000000  0.4647260000000 1.0
C      1  0.4245540000000  0.5114550000000  0.5152010000000 1.0
C      1  0.4197040000000  0.5209060000000  0.4599720000000 1.0
C      1  0.4690710000000  0.5911170000000  0.4646340000000 1.0
C      1  0.4985500000000  0.5364280000000  0.4338980000000 1.0
C      1  0.4666740000000  0.5772110000000  0.4341620000000 1.0
C      1  0.5486010000000  0.5339680000000  0.6115260000000 1.0
C      1  0.4582590000000  0.4223490000000  0.4935510000000 1.0
C      1  0.4381240000000  0.4420560000000  0.4299540000000 1.0
C      1  0.4825110000000  0.4854940000000  0.4011930000000 1.0
C      1  0.5428950000000  0.4511040000000  0.4220300000000 1.0
C      1  0.5109670000000  0.5951550000000  0.5669770000000 1.0
C      1  0.5619800000000  0.5932560000000  0.5249760000000 1.0
C      1  0.5599400000000  0.5277240000000  0.4645680000000 1.0
C      1  0.4406660000000  0.5388810000000  0.5557330000000 1.0
C      1  0.4788170000000  0.4891450000000  0.4327550000000 1.0
C      1  0.4530230000000  0.4829080000000  0.4528570000000 1.0
C      1  0.4714450000000  0.4101130000000  0.5474190000000 1.0
C      1  0.4752840000000  0.4364000000000  0.5267120000000 1.0
C      1  0.4227250000000  0.4926180000000  0.4451680000000 1.0
C      1  0.4043480000000  0.5113440000000  0.5398810000000 1.0
C      1  0.5615740000000  0.5438260000000  0.4157920000000 1.0
C      1  0.5407680000000  0.4608430000000  0.5868730000000 1.0
C      1  0.5493330000000  0.4934540000000  0.5277060000000 1.0
C      1  0.4515700000000  0.6005980000000  0.4923840000000 1.0
C      1  0.3954780000000  0.4477160000000  0.4620690000000 1.0
C      1  0.4449740000000  0.5395770000000  0.4620510000000 1.0
C      1  0.4704860000000  0.4241600000000  0.5769460000000 1.0
C      1  0.5259820000000  0.4241550000000  0.4842180000000 1.0
C      1  0.5902030000000  0.5404110000000  0.5217120000000 1.0
C      1  0.4233250000000  0.4527400000000  0.5087570000000 1.0
C      1  0.5583930000000  0.4283070000000  0.4726920000000 1.0
C      1  0.4398170000000  0.4948310000000  0.4173880000000 1.0
C      1  0.5219100000000  0.5780030000000  0.5849200000000 1.0
C      1  0.5603890000000  0.4406660000000  0.4410320000000 1.0
C      1  0.5002870000000  0.3836980000000  0.4973130000000 1.0
C      1  0.5252070000000  0.3929400000000  0.4940410000000 1.0
C      1  0.4673330000000  0.5817980000000  0.5426020000000 1.0
C      1  0.5117750000000  0.3989030000000  0.4569710000000 1.0
C      1  0.3977050000000  0.4618320000000  0.5226290000000 1.0
C      1  0.3919170000000  0.4901210000000  0.4836180000000 1.0
C      1  0.5220250000000  0.4981670000000  0.4826960000000 1.0
C      1  0.4089770000000  0.4901660000000  0.5594170000000 1.0
C      1  0.5179560000000  0.4564080000000  0.5133510000000 1.0
C      1  0.4133280000000  0.5466950000000  0.4393740000000 1.0
C      1  0.5621920000000  0.5659090000000  0.4751590000000 1.0
C      1  0.5355840000000  0.5344080000000  0.5171630000000 1.0
C      1  0.4834070000000  0.5137100000000  0.3899070000000 1.0
END
