TITL C-2778428-5639-495 0.00290510419201085 125000 -787.335600897358 0 0 136 (C1) n - 1
REM
REM in /home/nfs/bkarasulu/CARBON/AIRSS/Generating-Clusters/REBO/Only-C1/SD-CG/HFTN-CG
REM
REM
REM
REM
REM
REM ./C.cell (11c1c37f851c82e70ff6c80c92926a4b)
REM
REM compiler GCC version 9.2.1 20190827 (Red Hat 9.2.1-1)
REM options -cpp -mtune=generic -march=x86-64 -g -O0 -fpre-include=/usr/include/finclude/math-vector-fortran.h
REM seed 1997530088 -332818886 -96808688 -570267993 -888814599 1641549048 677304732 -2092563640 -839866331 1413165834 1275635136 1372406544 1996162697 -1872425548 -257166596 1612181140 -37674276 -68857101 -374871024 1985700931 -381918381 -1580271206 -1251167587 -1428199207 5396096 -591390907 341903613 1472997422 -2042239444 619972657 1793588233 8702276 1620742285
REM
CELL 1.54180   50.00000   50.00000   50.00000   90.00000   90.00000   90.00000
LATT -1
SFAC C  
C      1  0.4864580000000  0.5608090000000  0.5189710000000 1.0
C      1  0.4220300000000  0.5421570000000  0.5276140000000 1.0
C      1  0.4526740000000  0.5399090000000  0.5166090000000 1.0
C      1  0.5511280000000  0.5322410000000  0.5443490000000 1.0
C      1  0.4491630000000  0.4187900000000  0.4815630000000 1.0
C      1  0.4832540000000  0.4984200000000  0.4143160000000 1.0
C      1  0.5084100000000  0.4058930000000  0.5009300000000 1.0
C      1  0.5673090000000  0.4310610000000  0.4578890000000 1.0
C      1  0.5785240000000  0.5374650000000  0.5023740000000 1.0
C      1  0.5503810000000  0.5815840000000  0.5213060000000 1.0
C      1  0.5054540000000  0.5098190000000  0.4378460000000 1.0
C      1  0.4829530000000  0.5517240000000  0.4181510000000 1.0
C      1  0.5737450000000  0.5121490000000  0.4826510000000 1.0
C      1  0.4996540000000  0.4248880000000  0.5455470000000 1.0
C      1  0.4871340000000  0.4472240000000  0.5939700000000 1.0
C      1  0.4580370000000  0.4785130000000  0.5126660000000 1.0
C      1  0.5198210000000  0.4334270000000  0.4300460000000 1.0
C      1  0.4424340000000  0.4451110000000  0.5281000000000 1.0
C      1  0.4701540000000  0.5515140000000  0.4922790000000 1.0
C      1  0.4885260000000  0.4149400000000  0.5172070000000 1.0
C      1  0.4626840000000  0.4280520000000  0.5085770000000 1.0
C      1  0.4725790000000  0.5157330000000  0.5414880000000 1.0
C      1  0.4978330000000  0.5130920000000  0.5645290000000 1.0
C      1  0.4513490000000  0.5856510000000  0.4445600000000 1.0
C      1  0.5351720000000  0.4943550000000  0.5510020000000 1.0
C      1  0.5228110000000  0.4868680000000  0.6003770000000 1.0
C      1  0.5119240000000  0.4527480000000  0.5713710000000 1.0
C      1  0.5525620000000  0.5508580000000  0.5072990000000 1.0
C      1  0.5445200000000  0.4206430000000  0.4723590000000 1.0
C      1  0.5386930000000  0.5763550000000  0.4893050000000 1.0
C      1  0.4785300000000  0.5377590000000  0.4428500000000 1.0
C      1  0.5010330000000  0.4728200000000  0.4083860000000 1.0
C      1  0.4978220000000  0.5233680000000  0.5116220000000 1.0
C      1  0.5050200000000  0.5429420000000  0.4023020000000 1.0
C      1  0.4550480000000  0.5085950000000  0.5131760000000 1.0
C      1  0.4206240000000  0.4981090000000  0.4645320000000 1.0
C      1  0.5298170000000  0.4765100000000  0.4114440000000 1.0
C      1  0.4219720000000  0.4294570000000  0.4846510000000 1.0
C      1  0.5071000000000  0.5358180000000  0.5421770000000 1.0
C      1  0.5314450000000  0.5613070000000  0.4375900000000 1.0
C      1  0.5476880000000  0.5572810000000  0.4625580000000 1.0
C      1  0.5663910000000  0.4489200000000  0.4349550000000 1.0
C      1  0.5612000000000  0.4983690000000  0.5810080000000 1.0
C      1  0.5361820000000  0.4129810000000  0.4990150000000 1.0
C      1  0.5742630000000  0.4056770000000  0.5344400000000 1.0
C      1  0.4789460000000  0.5293760000000  0.5950940000000 1.0
C      1  0.5090880000000  0.4955060000000  0.4653490000000 1.0
C      1  0.4969700000000  0.4335500000000  0.4744020000000 1.0
C      1  0.5643610000000  0.4670370000000  0.5156730000000 1.0
C      1  0.4980640000000  0.4827980000000  0.5800660000000 1.0
C      1  0.4289170000000  0.4665200000000  0.4714110000000 1.0
C      1  0.4547480000000  0.4569580000000  0.4915090000000 1.0
C      1  0.4168890000000  0.4608970000000  0.5434320000000 1.0
C      1  0.4537820000000  0.4818810000000  0.4444260000000 1.0
C      1  0.4555810000000  0.4981660000000  0.4218720000000 1.0
C      1  0.4897850000000  0.4441450000000  0.4204680000000 1.0
C      1  0.5328550000000  0.5410660000000  0.4169220000000 1.0
C      1  0.5389640000000  0.4482180000000  0.5176450000000 1.0
C      1  0.4295740000000  0.5874600000000  0.4990670000000 1.0
C      1  0.5477180000000  0.4188520000000  0.5287780000000 1.0
C      1  0.4802990000000  0.5917800000000  0.4581020000000 1.0
C      1  0.4908530000000  0.4727820000000  0.5049730000000 1.0
C      1  0.5822140000000  0.5291790000000  0.5474860000000 1.0
C      1  0.4379540000000  0.4832430000000  0.5392060000000 1.0
C      1  0.5628150000000  0.4950270000000  0.4326900000000 1.0
C      1  0.5297860000000  0.5532770000000  0.5699060000000 1.0
C      1  0.4519610000000  0.5991040000000  0.5090920000000 1.0
C      1  0.4133060000000  0.5082760000000  0.4399970000000 1.0
C      1  0.4363150000000  0.5215230000000  0.5710410000000 1.0
C      1  0.5243150000000  0.4644810000000  0.5433430000000 1.0
C      1  0.5229880000000  0.4498410000000  0.4891590000000 1.0
C      1  0.4633780000000  0.4351800000000  0.4380310000000 1.0
C      1  0.5451380000000  0.5253070000000  0.4696880000000 1.0
C      1  0.5051720000000  0.5746460000000  0.4421760000000 1.0
C      1  0.4249470000000  0.5119010000000  0.5424180000000 1.0
C      1  0.6087560000000  0.4752180000000  0.4261360000000 1.0
C      1  0.4408840000000  0.5504510000000  0.5714930000000 1.0
C      1  0.5136810000000  0.5880440000000  0.5094100000000 1.0
C      1  0.4256680000000  0.5623180000000  0.5515450000000 1.0
C      1  0.4769590000000  0.5814090000000  0.4228580000000 1.0
C      1  0.5203370000000  0.5555420000000  0.5178140000000 1.0
C      1  0.4735350000000  0.5548660000000  0.5758340000000 1.0
C      1  0.4221430000000  0.5657700000000  0.4821470000000 1.0
C      1  0.4571530000000  0.4821300000000  0.5634880000000 1.0
C      1  0.4628750000000  0.4916610000000  0.4723910000000 1.0
C      1  0.4187540000000  0.5377570000000  0.4955670000000 1.0
C      1  0.4434460000000  0.4544330000000  0.4431200000000 1.0
C      1  0.4874580000000  0.5025160000000  0.4893190000000 1.0
C      1  0.5311500000000  0.4279690000000  0.5570790000000 1.0
C      1  0.5424860000000  0.5083630000000  0.4127620000000 1.0
C      1  0.5210120000000  0.4247650000000  0.4566870000000 1.0
C      1  0.5553210000000  0.4865780000000  0.4917020000000 1.0
C      1  0.5482300000000  0.4931020000000  0.4589340000000 1.0
C      1  0.4771240000000  0.4308150000000  0.5665100000000 1.0
C      1  0.5086090000000  0.5171990000000  0.5967490000000 1.0
C      1  0.5405980000000  0.4516440000000  0.4221090000000 1.0
C      1  0.5773200000000  0.4914250000000  0.5585410000000 1.0
C      1  0.5814140000000  0.4732950000000  0.4301990000000 1.0
C      1  0.4696910000000  0.4218680000000  0.4621240000000 1.0
C      1  0.5468630000000  0.4740710000000  0.5900390000000 1.0
C      1  0.5213330000000  0.5266180000000  0.4894720000000 1.0
C      1  0.4692440000000  0.5476890000000  0.5435800000000 1.0
C      1  0.4151900000000  0.4801790000000  0.4997410000000 1.0
C      1  0.4716820000000  0.4772070000000  0.5999950000000 1.0
C      1  0.4766560000000  0.4605730000000  0.4693180000000 1.0
C      1  0.5267140000000  0.4666720000000  0.4595300000000 1.0
C      1  0.5106130000000  0.5113020000000  0.4037820000000 1.0
C      1  0.4152290000000  0.5069750000000  0.5101680000000 1.0
C      1  0.5517370000000  0.4520630000000  0.5695220000000 1.0
C      1  0.4588320000000  0.5060520000000  0.5872980000000 1.0
C      1  0.4999680000000  0.4521830000000  0.5251300000000 1.0
C      1  0.5028950000000  0.5887600000000  0.5419410000000 1.0
C      1  0.4421920000000  0.5167750000000  0.4823930000000 1.0
C      1  0.5013280000000  0.5642170000000  0.5602680000000 1.0
C      1  0.4978410000000  0.4621880000000  0.4466860000000 1.0
C      1  0.5616630000000  0.4967410000000  0.5297140000000 1.0
C      1  0.5362570000000  0.5162770000000  0.5182220000000 1.0
C      1  0.5787400000000  0.5579750000000  0.4568870000000 1.0
C      1  0.4569620000000  0.5410110000000  0.4636670000000 1.0
C      1  0.4703640000000  0.4515970000000  0.5413860000000 1.0
C      1  0.4830580000000  0.4832450000000  0.5431170000000 1.0
C      1  0.5071980000000  0.5349870000000  0.4607890000000 1.0
C      1  0.6346170000000  0.4770360000000  0.4222930000000 1.0
C      1  0.4909190000000  0.5629110000000  0.4710880000000 1.0
C      1  0.4378030000000  0.5645780000000  0.4581370000000 1.0
C      1  0.4566990000000  0.4542480000000  0.5796380000000 1.0
C      1  0.5089810000000  0.4982140000000  0.5296500000000 1.0
C      1  0.5381950000000  0.5204490000000  0.5728050000000 1.0
C      1  0.5700910000000  0.4630180000000  0.5490110000000 1.0
C      1  0.4308600000000  0.5114190000000  0.4184940000000 1.0
C      1  0.4807050000000  0.5936240000000  0.5165430000000 1.0
C      1  0.5919830000000  0.5391330000000  0.4725970000000 1.0
C      1  0.5955790000000  0.5328770000000  0.5265380000000 1.0
C      1  0.5470470000000  0.5649060000000  0.5460530000000 1.0
C      1  0.5218590000000  0.4836430000000  0.4947830000000 1.0
C      1  0.4183120000000  0.4495660000000  0.5058220000000 1.0
END
