TITL C-2778432-5617-432 0.013412195036276 125000 -277.687413495297 0 0 50 (C1) n - 1
REM
REM in /home/nfs/bkarasulu/CARBON/AIRSS/Generating-Clusters/REBO/Only-C1/SD-CG/HFTN-CG
REM
REM
REM
REM
REM
REM ./C.cell (11c1c37f851c82e70ff6c80c92926a4b)
REM
REM compiler GCC version 9.2.1 20190827 (Red Hat 9.2.1-1)
REM options -cpp -mtune=generic -march=x86-64 -g -O0 -fpre-include=/usr/include/finclude/math-vector-fortran.h
REM seed -1430745543 -916687988 1468114179 219503100 -596052634 543883985 -1426057349 1221222375 904000726 -939889342 -1054607334 249659723 -1452641085 -1493111293 590502655 -1607541863 -1022280824 -195778775 -1585625483 867492272 -1380788582 -586796354 -1109766784 -1995374297 2063335071 1648510342 230101121 -1660119244 -1671699186 -905197055 -899899836 -1520538817 2120233228
REM
CELL 1.54180   50.00000   50.00000   50.00000   90.00000   90.00000   90.00000
LATT -1
SFAC C  
C      1  0.4652250000000  0.5250040000000  0.4656330000000 1.0
C      1  0.5081150000000  0.5772360000000  0.5293660000000 1.0
C      1  0.4772970000000  0.5779040000000  0.5245150000000 1.0
C      1  0.5269280000000  0.4791080000000  0.5459490000000 1.0
C      1  0.4663560000000  0.4267650000000  0.4784890000000 1.0
C      1  0.5527120000000  0.4858600000000  0.4885050000000 1.0
C      1  0.4637840000000  0.4990430000000  0.5544890000000 1.0
C      1  0.5254930000000  0.4491750000000  0.5073070000000 1.0
C      1  0.4464290000000  0.5420480000000  0.4543350000000 1.0
C      1  0.4781530000000  0.5061300000000  0.5781320000000 1.0
C      1  0.5351010000000  0.5345490000000  0.5153840000000 1.0
C      1  0.4365720000000  0.4792060000000  0.5036260000000 1.0
C      1  0.5235540000000  0.5622370000000  0.5081050000000 1.0
C      1  0.5243010000000  0.5245160000000  0.4782890000000 1.0
C      1  0.5046200000000  0.4682690000000  0.4791010000000 1.0
C      1  0.5055960000000  0.5053830000000  0.5806990000000 1.0
C      1  0.5486110000000  0.5328860000000  0.4478960000000 1.0
C      1  0.5133990000000  0.5627060000000  0.4794470000000 1.0
C      1  0.5257270000000  0.4880460000000  0.4945510000000 1.0
C      1  0.5044520000000  0.4947520000000  0.4605790000000 1.0
C      1  0.4730830000000  0.4350590000000  0.5170370000000 1.0
C      1  0.5332680000000  0.5045250000000  0.4519030000000 1.0
C      1  0.5516050000000  0.4803570000000  0.4489230000000 1.0
C      1  0.4825710000000  0.5094830000000  0.4499340000000 1.0
C      1  0.5506700000000  0.4580380000000  0.4598540000000 1.0
C      1  0.4426470000000  0.5030480000000  0.5054800000000 1.0
C      1  0.5417560000000  0.4658770000000  0.5244110000000 1.0
C      1  0.4960250000000  0.4989740000000  0.5303190000000 1.0
C      1  0.4799310000000  0.5106390000000  0.4227130000000 1.0
C      1  0.4663580000000  0.4715110000000  0.5471780000000 1.0
C      1  0.4473150000000  0.4544700000000  0.4934170000000 1.0
C      1  0.4997970000000  0.4459070000000  0.5189170000000 1.0
C      1  0.4858170000000  0.5448460000000  0.5233410000000 1.0
C      1  0.4964410000000  0.5370570000000  0.4932260000000 1.0
C      1  0.5553100000000  0.5275820000000  0.4920890000000 1.0
C      1  0.4543580000000  0.4494130000000  0.5326590000000 1.0
C      1  0.5204620000000  0.4195270000000  0.4667090000000 1.0
C      1  0.5176120000000  0.5068560000000  0.5136570000000 1.0
C      1  0.4701430000000  0.5179660000000  0.5301520000000 1.0
C      1  0.5279820000000  0.4448610000000  0.4759020000000 1.0
C      1  0.4786870000000  0.4553840000000  0.4830850000000 1.0
C      1  0.4286950000000  0.5581300000000  0.4436750000000 1.0
C      1  0.5699560000000  0.5324390000000  0.4682370000000 1.0
C      1  0.4971330000000  0.4679920000000  0.5406660000000 1.0
C      1  0.5279100000000  0.5531550000000  0.4557070000000 1.0
C      1  0.5260620000000  0.5034700000000  0.5607670000000 1.0
C      1  0.5312810000000  0.5271810000000  0.5468220000000 1.0
C      1  0.5120990000000  0.5494100000000  0.5444800000000 1.0
C      1  0.4365230000000  0.4232240000000  0.4877210000000 1.0
C      1  0.4660830000000  0.5227990000000  0.4966230000000 1.0
END
