TITL C-2778425-5191-933 0.00123790508265676 125000 -729.504988653089 0 0 125 (C1) n - 1
REM
REM in /home/nfs/bkarasulu/CARBON/AIRSS/Generating-Clusters/REBO/Only-C1/SD-CG/HFTN-CG
REM
REM
REM
REM
REM
REM ./C.cell (11c1c37f851c82e70ff6c80c92926a4b)
REM
REM compiler GCC version 9.2.1 20190827 (Red Hat 9.2.1-1)
REM options -cpp -mtune=generic -march=x86-64 -g -O0 -fpre-include=/usr/include/finclude/math-vector-fortran.h
REM seed 1536677737 -679576698 1741207475 79645828 122996489 1603999106 892610586 599359126 698893824 -1518996676 -1837819906 346182412 2033838115 1145702055 -1487398730 -34428395 -2085784720 1221753513 -2004228732 824148850 1745767174 -1084405275 -805782160 -1696567099 -1999882057 2051853905 -684216462 218819936 -1232379632 228266712 -398663958 -1754816690 -1772593926
REM
CELL 1.54180   50.00000   50.00000   50.00000   90.00000   90.00000   90.00000
LATT -1
SFAC C  
C      1  0.5249170000000  0.5652920000000  0.5342090000000 1.0
C      1  0.4154260000000  0.4685130000000  0.5412000000000 1.0
C      1  0.4682150000000  0.4548380000000  0.5731290000000 1.0
C      1  0.5378700000000  0.5154630000000  0.4612490000000 1.0
C      1  0.5051680000000  0.4299740000000  0.5593270000000 1.0
C      1  0.4557890000000  0.4419700000000  0.4326480000000 1.0
C      1  0.5727320000000  0.4929140000000  0.4417190000000 1.0
C      1  0.4792060000000  0.5006640000000  0.5978780000000 1.0
C      1  0.4597190000000  0.5214880000000  0.5789200000000 1.0
C      1  0.5191100000000  0.5157890000000  0.4847210000000 1.0
C      1  0.5558550000000  0.4738360000000  0.5184850000000 1.0
C      1  0.5032390000000  0.5125990000000  0.4147360000000 1.0
C      1  0.5393580000000  0.4172420000000  0.5264920000000 1.0
C      1  0.4069020000000  0.5104200000000  0.4747190000000 1.0
C      1  0.4762720000000  0.5553200000000  0.5056620000000 1.0
C      1  0.4842440000000  0.4868090000000  0.4093150000000 1.0
C      1  0.4829590000000  0.5320800000000  0.4576250000000 1.0
C      1  0.5241070000000  0.5444410000000  0.5581510000000 1.0
C      1  0.4296830000000  0.4268590000000  0.4774000000000 1.0
C      1  0.5626440000000  0.4514410000000  0.4734650000000 1.0
C      1  0.4565120000000  0.4004050000000  0.5103260000000 1.0
C      1  0.5150040000000  0.5721860000000  0.4267880000000 1.0
C      1  0.5333420000000  0.4044760000000  0.4698930000000 1.0
C      1  0.4379560000000  0.4790820000000  0.4667560000000 1.0
C      1  0.5722630000000  0.4803400000000  0.5693910000000 1.0
C      1  0.5075050000000  0.4680040000000  0.4163530000000 1.0
C      1  0.4767210000000  0.5714270000000  0.4586380000000 1.0
C      1  0.5339000000000  0.5377870000000  0.4194290000000 1.0
C      1  0.4412510000000  0.5719000000000  0.4941550000000 1.0
C      1  0.4566970000000  0.5573150000000  0.4416710000000 1.0
C      1  0.4725160000000  0.5354200000000  0.4252870000000 1.0
C      1  0.4524140000000  0.4152500000000  0.4868660000000 1.0
C      1  0.4227090000000  0.4570340000000  0.4856140000000 1.0
C      1  0.5520690000000  0.4385060000000  0.5674440000000 1.0
C      1  0.5453440000000  0.5054730000000  0.5264660000000 1.0
C      1  0.5314360000000  0.4191860000000  0.5561910000000 1.0
C      1  0.4457610000000  0.4871120000000  0.4981360000000 1.0
C      1  0.5412650000000  0.4683840000000  0.5714530000000 1.0
C      1  0.5339030000000  0.4880560000000  0.4494680000000 1.0
C      1  0.4946060000000  0.5540420000000  0.5329800000000 1.0
C      1  0.5120560000000  0.4287110000000  0.4591160000000 1.0
C      1  0.4351400000000  0.5450980000000  0.5423430000000 1.0
C      1  0.5247430000000  0.4159050000000  0.5007470000000 1.0
C      1  0.4885280000000  0.5059300000000  0.4868730000000 1.0
C      1  0.5208500000000  0.4692910000000  0.4966230000000 1.0
C      1  0.4563150000000  0.4369630000000  0.5531110000000 1.0
C      1  0.5422910000000  0.5072400000000  0.4085990000000 1.0
C      1  0.5310710000000  0.4847110000000  0.4215090000000 1.0
C      1  0.5022610000000  0.5454370000000  0.4121320000000 1.0
C      1  0.4948890000000  0.4415780000000  0.5315090000000 1.0
C      1  0.5330450000000  0.5456690000000  0.4506600000000 1.0
C      1  0.5774320000000  0.4624320000000  0.4961140000000 1.0
C      1  0.5192730000000  0.4824690000000  0.5495100000000 1.0
C      1  0.4753480000000  0.5946790000000  0.5126990000000 1.0
C      1  0.4694840000000  0.4486670000000  0.5122150000000 1.0
C      1  0.4412440000000  0.4452380000000  0.5108580000000 1.0
C      1  0.5169520000000  0.4981170000000  0.5128990000000 1.0
C      1  0.5075040000000  0.4439620000000  0.4319890000000 1.0
C      1  0.5557420000000  0.5732730000000  0.4945800000000 1.0
C      1  0.4846590000000  0.4778510000000  0.4507380000000 1.0
C      1  0.5861970000000  0.5115570000000  0.5182070000000 1.0
C      1  0.4184500000000  0.5312110000000  0.4922580000000 1.0
C      1  0.5631170000000  0.5219890000000  0.4948630000000 1.0
C      1  0.5321670000000  0.5152790000000  0.5839840000000 1.0
C      1  0.5772610000000  0.4933010000000  0.4709690000000 1.0
C      1  0.4941480000000  0.4124940000000  0.5044300000000 1.0
C      1  0.4675280000000  0.5840480000000  0.4840360000000 1.0
C      1  0.4620420000000  0.5067290000000  0.4183330000000 1.0
C      1  0.5141910000000  0.4727970000000  0.4646420000000 1.0
C      1  0.5093590000000  0.5985640000000  0.4689140000000 1.0
C      1  0.5474550000000  0.4491230000000  0.5353800000000 1.0
C      1  0.4611680000000  0.4818230000000  0.5788610000000 1.0
C      1  0.4934820000000  0.5063100000000  0.4429120000000 1.0
C      1  0.5486420000000  0.5708710000000  0.4658780000000 1.0
C      1  0.4866860000000  0.4600610000000  0.4781790000000 1.0
C      1  0.4763250000000  0.5654030000000  0.5591810000000 1.0
C      1  0.4673310000000  0.4236440000000  0.4452750000000 1.0
C      1  0.5141630000000  0.5154450000000  0.5484600000000 1.0
C      1  0.5509850000000  0.5416200000000  0.5729340000000 1.0
C      1  0.5788600000000  0.5582700000000  0.5027430000000 1.0
C      1  0.4742240000000  0.4155370000000  0.5334820000000 1.0
C      1  0.4822920000000  0.4266630000000  0.4756860000000 1.0
C      1  0.5087250000000  0.4977040000000  0.5932540000000 1.0
C      1  0.5625090000000  0.5224360000000  0.4305790000000 1.0
C      1  0.5800180000000  0.4962800000000  0.5433700000000 1.0
C      1  0.4685400000000  0.5304150000000  0.4869890000000 1.0
C      1  0.5099350000000  0.5871800000000  0.4947050000000 1.0
C      1  0.5178310000000  0.4604960000000  0.5263330000000 1.0
C      1  0.5809690000000  0.5422600000000  0.5264720000000 1.0
C      1  0.4327450000000  0.4462270000000  0.5382320000000 1.0
C      1  0.5337740000000  0.4424940000000  0.4814070000000 1.0
C      1  0.4943970000000  0.5413220000000  0.5706520000000 1.0
C      1  0.4383260000000  0.4977140000000  0.4380650000000 1.0
C      1  0.5682830000000  0.5309640000000  0.4622700000000 1.0
C      1  0.5666170000000  0.4631440000000  0.4471210000000 1.0
C      1  0.5094610000000  0.5528160000000  0.4960550000000 1.0
C      1  0.4311160000000  0.5477270000000  0.4511710000000 1.0
C      1  0.4202680000000  0.5197540000000  0.4488520000000 1.0
C      1  0.5903940000000  0.5465260000000  0.4791390000000 1.0
C      1  0.4245430000000  0.5557400000000  0.4784020000000 1.0
C      1  0.4814680000000  0.3820930000000  0.5129130000000 1.0
C      1  0.4849740000000  0.5102690000000  0.5601100000000 1.0
C      1  0.4631550000000  0.5083760000000  0.5271390000000 1.0
C      1  0.4440270000000  0.5190420000000  0.5028740000000 1.0
C      1  0.4513080000000  0.5483430000000  0.5659530000000 1.0
C      1  0.5725020000000  0.5454210000000  0.5539480000000 1.0
C      1  0.4261810000000  0.5180670000000  0.5384960000000 1.0
C      1  0.4442640000000  0.5610220000000  0.5210990000000 1.0
C      1  0.5344250000000  0.5334940000000  0.5090820000000 1.0
C      1  0.5512450000000  0.4914850000000  0.4901360000000 1.0
C      1  0.5142140000000  0.4698020000000  0.5869730000000 1.0
C      1  0.4571710000000  0.4708470000000  0.4415580000000 1.0
C      1  0.4757180000000  0.5890030000000  0.5370110000000 1.0
C      1  0.5942670000000  0.4896600000000  0.4963400000000 1.0
C      1  0.4067330000000  0.4860370000000  0.4905050000000 1.0
C      1  0.4203190000000  0.4920840000000  0.5206270000000 1.0
C      1  0.4874400000000  0.4854550000000  0.5366260000000 1.0
C      1  0.4940970000000  0.5218580000000  0.5229660000000 1.0
C      1  0.5052890000000  0.5536440000000  0.4637450000000 1.0
C      1  0.4468660000000  0.4998260000000  0.5559160000000 1.0
C      1  0.5259310000000  0.5849610000000  0.4498760000000 1.0
C      1  0.5336970000000  0.5800420000000  0.5121010000000 1.0
C      1  0.4958430000000  0.4487440000000  0.5791600000000 1.0
C      1  0.4778590000000  0.4791910000000  0.5042380000000 1.0
C      1  0.5510660000000  0.5047340000000  0.5587520000000 1.0
END
