TITL C-2778437-8639-679 -0.00309526358721183 125000 -901.081078436931 0 0 156 (C1) n - 1
REM
REM in /home/nfs/bkarasulu/CARBON/AIRSS/Generating-Clusters/REBO/Only-C1/SD-CG/HFTN-CG
REM
REM
REM
REM
REM
REM ./C.cell (11c1c37f851c82e70ff6c80c92926a4b)
REM
REM compiler GCC version 9.2.1 20190827 (Red Hat 9.2.1-1)
REM options -cpp -mtune=generic -march=x86-64 -g -O0 -fpre-include=/usr/include/finclude/math-vector-fortran.h
REM seed -1362078456 -1832230862 -549835494 -416086989 -1217436025 1680192190 994520918 1322961780 803329686 -387160679 -89818173 -470931417 -112388591 -2139969435 1523248088 -198653717 -441973416 213255187 1174037681 -1849651596 1352134300 -1606124009 1404538712 -1820528093 502068270 26913150 -1436344725 1023792829 -2008260097 -1498794108 1223042452 1051139449 1633738735
REM
CELL 1.54180   50.00000   50.00000   50.00000   90.00000   90.00000   90.00000
LATT -1
SFAC C  
C      1  0.4568880000000  0.5858350000000  0.5297830000000 1.0
C      1  0.5530060000000  0.5350360000000  0.5437460000000 1.0
C      1  0.5094710000000  0.6026980000000  0.5551660000000 1.0
C      1  0.4692880000000  0.5308530000000  0.4679250000000 1.0
C      1  0.5292100000000  0.4449800000000  0.4436160000000 1.0
C      1  0.5311250000000  0.5202220000000  0.5137250000000 1.0
C      1  0.4412370000000  0.5094350000000  0.5038320000000 1.0
C      1  0.4841940000000  0.4516990000000  0.4402350000000 1.0
C      1  0.4892380000000  0.4821150000000  0.5853640000000 1.0
C      1  0.5859000000000  0.4508490000000  0.4625500000000 1.0
C      1  0.5528520000000  0.4506060000000  0.4628280000000 1.0
C      1  0.4656490000000  0.4822510000000  0.5606360000000 1.0
C      1  0.5132630000000  0.5966270000000  0.5219440000000 1.0
C      1  0.4901450000000  0.5008540000000  0.5459090000000 1.0
C      1  0.4769640000000  0.5997730000000  0.4766190000000 1.0
C      1  0.4091140000000  0.5493470000000  0.4896410000000 1.0
C      1  0.5036210000000  0.4080610000000  0.5234790000000 1.0
C      1  0.5512510000000  0.5033850000000  0.5845870000000 1.0
C      1  0.5290410000000  0.4673670000000  0.5250930000000 1.0
C      1  0.6036840000000  0.5801970000000  0.5213740000000 1.0
C      1  0.5271890000000  0.4914300000000  0.5937760000000 1.0
C      1  0.5815820000000  0.4617210000000  0.5399560000000 1.0
C      1  0.4346730000000  0.5794530000000  0.4557040000000 1.0
C      1  0.5290600000000  0.5253020000000  0.4096900000000 1.0
C      1  0.5980170000000  0.4774800000000  0.5206050000000 1.0
C      1  0.5772900000000  0.5789290000000  0.5210850000000 1.0
C      1  0.5536520000000  0.4875860000000  0.5156100000000 1.0
C      1  0.5577870000000  0.5554320000000  0.4359530000000 1.0
C      1  0.4769420000000  0.5553700000000  0.4180260000000 1.0
C      1  0.5332230000000  0.4795140000000  0.4110020000000 1.0
C      1  0.4059770000000  0.4845430000000  0.5072500000000 1.0
C      1  0.5204440000000  0.5458160000000  0.5457080000000 1.0
C      1  0.4562130000000  0.4818540000000  0.4349550000000 1.0
C      1  0.4435480000000  0.4590200000000  0.5483980000000 1.0
C      1  0.4049100000000  0.5214560000000  0.4927710000000 1.0
C      1  0.5017810000000  0.5426850000000  0.4924580000000 1.0
C      1  0.4413600000000  0.5042520000000  0.4143600000000 1.0
C      1  0.4881970000000  0.4848580000000  0.4413720000000 1.0
C      1  0.5491120000000  0.5350060000000  0.5915110000000 1.0
C      1  0.5579350000000  0.5232300000000  0.4264140000000 1.0
C      1  0.4501420000000  0.4447720000000  0.4685160000000 1.0
C      1  0.4525120000000  0.4377480000000  0.5808550000000 1.0
C      1  0.4074260000000  0.5137620000000  0.5246530000000 1.0
C      1  0.5597740000000  0.5887620000000  0.4942810000000 1.0
C      1  0.4064740000000  0.4720120000000  0.4517630000000 1.0
C      1  0.5715430000000  0.5167860000000  0.5134200000000 1.0
C      1  0.4251280000000  0.4813200000000  0.5638290000000 1.0
C      1  0.5005050000000  0.5587290000000  0.5213720000000 1.0
C      1  0.4151720000000  0.5650870000000  0.4674930000000 1.0
C      1  0.4505700000000  0.5388740000000  0.5102760000000 1.0
C      1  0.5675170000000  0.4304990000000  0.5383440000000 1.0
C      1  0.4635100000000  0.3973310000000  0.4665340000000 1.0
C      1  0.4192430000000  0.4964260000000  0.4393110000000 1.0
C      1  0.4228820000000  0.4959230000000  0.4792220000000 1.0
C      1  0.4655190000000  0.4835670000000  0.4018040000000 1.0
C      1  0.5503540000000  0.5040340000000  0.5447540000000 1.0
C      1  0.4956770000000  0.3956670000000  0.4664120000000 1.0
C      1  0.4924100000000  0.5507850000000  0.4544270000000 1.0
C      1  0.5575170000000  0.5334020000000  0.4869760000000 1.0
C      1  0.4807010000000  0.4535230000000  0.5195300000000 1.0
C      1  0.5249150000000  0.4036390000000  0.4752470000000 1.0
C      1  0.4494420000000  0.5286550000000  0.5821690000000 1.0
C      1  0.5670030000000  0.5433830000000  0.6112360000000 1.0
C      1  0.5192570000000  0.5097050000000  0.3888840000000 1.0
C      1  0.5058670000000  0.5888090000000  0.4382070000000 1.0
C      1  0.5584730000000  0.4080590000000  0.5158410000000 1.0
C      1  0.5690600000000  0.4774600000000  0.4515230000000 1.0
C      1  0.5272980000000  0.4522750000000  0.5624510000000 1.0
C      1  0.5064740000000  0.5623860000000  0.5803940000000 1.0
C      1  0.5996410000000  0.4756880000000  0.4915200000000 1.0
C      1  0.4187970000000  0.5329640000000  0.5743660000000 1.0
C      1  0.4978990000000  0.4778830000000  0.4930150000000 1.0
C      1  0.5386490000000  0.5922680000000  0.5446160000000 1.0
C      1  0.5314740000000  0.4927790000000  0.4623080000000 1.0
C      1  0.4526600000000  0.5362910000000  0.4131790000000 1.0
C      1  0.4658930000000  0.5404790000000  0.5621630000000 1.0
C      1  0.5308850000000  0.4001530000000  0.5085670000000 1.0
C      1  0.4597940000000  0.4785360000000  0.5198500000000 1.0
C      1  0.5042350000000  0.5389030000000  0.4254610000000 1.0
C      1  0.4234620000000  0.4263860000000  0.4771390000000 1.0
C      1  0.5387620000000  0.5593110000000  0.5713060000000 1.0
C      1  0.4885140000000  0.4514770000000  0.5704510000000 1.0
C      1  0.5449290000000  0.5680400000000  0.4715720000000 1.0
C      1  0.5339620000000  0.4299720000000  0.5382040000000 1.0
C      1  0.4226420000000  0.5574300000000  0.5155520000000 1.0
C      1  0.5808850000000  0.5082590000000  0.4473400000000 1.0
C      1  0.5445300000000  0.5025580000000  0.4880950000000 1.0
C      1  0.5675480000000  0.4838720000000  0.5625480000000 1.0
C      1  0.5950380000000  0.4301500000000  0.4777400000000 1.0
C      1  0.4747620000000  0.4538760000000  0.4087240000000 1.0
C      1  0.5710360000000  0.5372150000000  0.4605360000000 1.0
C      1  0.5380630000000  0.5767610000000  0.5143320000000 1.0
C      1  0.5230490000000  0.4551030000000  0.4156830000000 1.0
C      1  0.4771160000000  0.5258930000000  0.4993570000000 1.0
C      1  0.4607810000000  0.5882950000000  0.4523540000000 1.0
C      1  0.4647500000000  0.4204670000000  0.5624210000000 1.0
C      1  0.5050410000000  0.6050220000000  0.4624590000000 1.0
C      1  0.3944650000000  0.4685590000000  0.4793930000000 1.0
C      1  0.5372120000000  0.5481390000000  0.5095640000000 1.0
C      1  0.5602780000000  0.5679690000000  0.5461920000000 1.0
C      1  0.5292480000000  0.5965800000000  0.4808060000000 1.0
C      1  0.4890890000000  0.5871870000000  0.5059410000000 1.0
C      1  0.4447930000000  0.4762150000000  0.4619870000000 1.0
C      1  0.5447140000000  0.4294330000000  0.4851340000000 1.0
C      1  0.5849650000000  0.5235170000000  0.5416320000000 1.0
C      1  0.6038500000000  0.5031510000000  0.5326300000000 1.0
C      1  0.4955200000000  0.5069030000000  0.4209410000000 1.0
C      1  0.4146630000000  0.5394380000000  0.5435740000000 1.0
C      1  0.5460680000000  0.4943870000000  0.4342880000000 1.0
C      1  0.4795000000000  0.4196010000000  0.4482560000000 1.0
C      1  0.4654400000000  0.4259130000000  0.5065280000000 1.0
C      1  0.5195560000000  0.4972110000000  0.5341320000000 1.0
C      1  0.4623100000000  0.4928950000000  0.4827210000000 1.0
C      1  0.4923320000000  0.4981250000000  0.3903740000000 1.0
C      1  0.5949840000000  0.5206470000000  0.4918720000000 1.0
C      1  0.4521220000000  0.4961570000000  0.5887570000000 1.0
C      1  0.5179250000000  0.4635210000000  0.5888910000000 1.0
C      1  0.4187750000000  0.5041380000000  0.5850610000000 1.0
C      1  0.5746710000000  0.4165990000000  0.4919320000000 1.0
C      1  0.4474680000000  0.5480970000000  0.5408880000000 1.0
C      1  0.5273830000000  0.5706580000000  0.4357490000000 1.0
C      1  0.5164450000000  0.4664750000000  0.4667910000000 1.0
C      1  0.4216450000000  0.4463000000000  0.4495280000000 1.0
C      1  0.4850310000000  0.4996500000000  0.5143030000000 1.0
C      1  0.4923710000000  0.5818330000000  0.5657780000000 1.0
C      1  0.5046700000000  0.5106530000000  0.5948450000000 1.0
C      1  0.5320160000000  0.5418660000000  0.4539530000000 1.0
C      1  0.4339250000000  0.4947870000000  0.5338170000000 1.0
C      1  0.4420780000000  0.4497360000000  0.5115220000000 1.0
C      1  0.4481510000000  0.4093580000000  0.4869610000000 1.0
C      1  0.5063310000000  0.4122470000000  0.4197330000000 1.0
C      1  0.4713500000000  0.4599190000000  0.4867640000000 1.0
C      1  0.4787060000000  0.5804580000000  0.4314050000000 1.0
C      1  0.5190550000000  0.4132220000000  0.5618380000000 1.0
C      1  0.4430950000000  0.4631420000000  0.5873770000000 1.0
C      1  0.5151610000000  0.5218960000000  0.4693760000000 1.0
C      1  0.4925020000000  0.4984540000000  0.4684170000000 1.0
C      1  0.5009820000000  0.4382960000000  0.4065230000000 1.0
C      1  0.4916480000000  0.5305780000000  0.5551590000000 1.0
C      1  0.5017680000000  0.4540760000000  0.5395100000000 1.0
C      1  0.4985410000000  0.4378450000000  0.4679880000000 1.0
C      1  0.4706420000000  0.5203290000000  0.4360370000000 1.0
C      1  0.4978760000000  0.4269290000000  0.4957760000000 1.0
C      1  0.4834220000000  0.4113510000000  0.5438270000000 1.0
C      1  0.4583010000000  0.6000210000000  0.5046610000000 1.0
C      1  0.5967460000000  0.4989980000000  0.4745200000000 1.0
C      1  0.4788380000000  0.5726480000000  0.5417370000000 1.0
C      1  0.4104910000000  0.4460530000000  0.4981250000000 1.0
C      1  0.5149860000000  0.5365860000000  0.5935030000000 1.0
C      1  0.5210230000000  0.4153980000000  0.4438100000000 1.0
C      1  0.4154970000000  0.4599430000000  0.5287380000000 1.0
C      1  0.5017830000000  0.4239600000000  0.5770290000000 1.0
C      1  0.5252810000000  0.4395050000000  0.5090470000000 1.0
C      1  0.5573040000000  0.4529500000000  0.5610110000000 1.0
C      1  0.4428630000000  0.5150300000000  0.4528460000000 1.0
C      1  0.5109470000000  0.5679330000000  0.4752600000000 1.0
END
