TITL C-2778427-5640-1018 -0.00375758936508544 125000 -261.503980281852 0 0 46 (C1) n - 1
REM
REM in /home/nfs/bkarasulu/CARBON/AIRSS/Generating-Clusters/REBO/Only-C1/SD-CG/HFTN-CG
REM
REM
REM
REM
REM
REM ./C.cell (11c1c37f851c82e70ff6c80c92926a4b)
REM
REM compiler GCC version 9.2.1 20190827 (Red Hat 9.2.1-1)
REM options -cpp -mtune=generic -march=x86-64 -g -O0 -fpre-include=/usr/include/finclude/math-vector-fortran.h
REM seed 37731984 1168767423 171137516 -703022856 -1736650575 -882123824 1234827754 1180795793 -2047803477 -690699385 1015659656 336453020 -1707186391 -225130366 -1009574090 161960134 1495569686 -698137822 -519814279 -567607208 1147177371 54164130 304699154 24189760 -27830972 -640893242 1577293469 -1627832599 314450501 -567510257 530242838 -1417652658 1392701371
REM
CELL 1.54180   50.00000   50.00000   50.00000   90.00000   90.00000   90.00000
LATT -1
SFAC C  
C      1  0.4365920000000  0.4536190000000  0.4750880000000 1.0
C      1  0.5224760000000  0.5492760000000  0.4577000000000 1.0
C      1  0.4430840000000  0.5323810000000  0.4927670000000 1.0
C      1  0.4540030000000  0.5446950000000  0.5162960000000 1.0
C      1  0.4475700000000  0.4554950000000  0.4522170000000 1.0
C      1  0.4621080000000  0.5000180000000  0.5098810000000 1.0
C      1  0.4990150000000  0.4632820000000  0.5472360000000 1.0
C      1  0.4636790000000  0.5021590000000  0.4757560000000 1.0
C      1  0.4991950000000  0.4901250000000  0.4846400000000 1.0
C      1  0.5146700000000  0.5139690000000  0.5441160000000 1.0
C      1  0.4310060000000  0.5029990000000  0.4966590000000 1.0
C      1  0.4674250000000  0.5023220000000  0.5392110000000 1.0
C      1  0.4803550000000  0.4662690000000  0.4988890000000 1.0
C      1  0.4817000000000  0.5431830000000  0.5227300000000 1.0
C      1  0.4470120000000  0.4726100000000  0.4967450000000 1.0
C      1  0.5615930000000  0.4809980000000  0.5299840000000 1.0
C      1  0.5248190000000  0.5643410000000  0.5021410000000 1.0
C      1  0.5536400000000  0.4659260000000  0.5073070000000 1.0
C      1  0.5307740000000  0.5218330000000  0.4457960000000 1.0
C      1  0.4658260000000  0.4784680000000  0.4478140000000 1.0
C      1  0.5781830000000  0.5239020000000  0.5054640000000 1.0
C      1  0.5399320000000  0.5177330000000  0.4747570000000 1.0
C      1  0.5412560000000  0.5574480000000  0.4790070000000 1.0
C      1  0.5083910000000  0.5060090000000  0.4383850000000 1.0
C      1  0.5157860000000  0.5144370000000  0.4934350000000 1.0
C      1  0.4878150000000  0.4376740000000  0.4852300000000 1.0
C      1  0.5012900000000  0.5432000000000  0.4994020000000 1.0
C      1  0.5622760000000  0.5352520000000  0.4853040000000 1.0
C      1  0.5448570000000  0.4790990000000  0.5551400000000 1.0
C      1  0.4566260000000  0.5428030000000  0.4695380000000 1.0
C      1  0.5026750000000  0.4732660000000  0.5206320000000 1.0
C      1  0.4754950000000  0.4747080000000  0.5572440000000 1.0
C      1  0.4514660000000  0.5081200000000  0.4442450000000 1.0
C      1  0.5382130000000  0.5083950000000  0.5607820000000 1.0
C      1  0.4963070000000  0.4806270000000  0.4533190000000 1.0
C      1  0.4827800000000  0.5182240000000  0.4526120000000 1.0
C      1  0.5239780000000  0.4603360000000  0.5608280000000 1.0
C      1  0.4877810000000  0.5245990000000  0.5434970000000 1.0
C      1  0.5372780000000  0.4570640000000  0.4877470000000 1.0
C      1  0.5733950000000  0.5084600000000  0.5287100000000 1.0
C      1  0.5100240000000  0.4571910000000  0.4737130000000 1.0
C      1  0.5165100000000  0.4977710000000  0.5197340000000 1.0
C      1  0.4801420000000  0.4130570000000  0.4846720000000 1.0
C      1  0.4904890000000  0.5456500000000  0.4679110000000 1.0
C      1  0.4480250000000  0.4885800000000  0.5636690000000 1.0
C      1  0.5624880000000  0.5224280000000  0.5520490000000 1.0
END
