TITL C-2778435-5768-794 -0.000376037842870726 125000 -368.697938905844 0 0 64 (C1) n - 1
REM
REM in /home/nfs/bkarasulu/CARBON/AIRSS/Generating-Clusters/REBO/Only-C1/SD-CG/HFTN-CG
REM
REM
REM
REM
REM
REM ./C.cell (11c1c37f851c82e70ff6c80c92926a4b)
REM
REM compiler GCC version 9.2.1 20190827 (Red Hat 9.2.1-1)
REM options -cpp -mtune=generic -march=x86-64 -g -O0 -fpre-include=/usr/include/finclude/math-vector-fortran.h
REM seed 1534143784 -1595104526 -1215622212 -697156370 -332209443 -936511654 989870288 1863409141 -61004137 -1770406196 -45414199 606274047 -164336534 1623861163 1557182037 -454152304 1944448964 2004784723 600769814 544671178 1634385422 1157721132 1965513368 -1374153077 500656324 232050863 -743485121 1444483979 651146289 1727690880 -1082897145 309961192 -1550296523
REM
CELL 1.54180   50.00000   50.00000   50.00000   90.00000   90.00000   90.00000
LATT -1
SFAC C  
C      1  0.4882060000000  0.4875030000000  0.4657080000000 1.0
C      1  0.5184500000000  0.4816660000000  0.4639130000000 1.0
C      1  0.5183300000000  0.5072770000000  0.5609670000000 1.0
C      1  0.4574790000000  0.5485500000000  0.4858020000000 1.0
C      1  0.5547310000000  0.5357330000000  0.4714020000000 1.0
C      1  0.5308860000000  0.4693940000000  0.5328040000000 1.0
C      1  0.5595450000000  0.4763740000000  0.4925920000000 1.0
C      1  0.5247000000000  0.5420940000000  0.4577400000000 1.0
C      1  0.5143040000000  0.5727300000000  0.5028650000000 1.0
C      1  0.4189570000000  0.4885370000000  0.5216650000000 1.0
C      1  0.5165680000000  0.4991690000000  0.5318320000000 1.0
C      1  0.5102340000000  0.4619930000000  0.4871060000000 1.0
C      1  0.5205220000000  0.5336630000000  0.5758850000000 1.0
C      1  0.4409600000000  0.4510870000000  0.4850570000000 1.0
C      1  0.4892240000000  0.4646140000000  0.5056270000000 1.0
C      1  0.4907980000000  0.5265510000000  0.5811650000000 1.0
C      1  0.4772150000000  0.5360220000000  0.4609140000000 1.0
C      1  0.5455690000000  0.5017560000000  0.4157070000000 1.0
C      1  0.5796930000000  0.5191860000000  0.4655330000000 1.0
C      1  0.4334960000000  0.4874090000000  0.5489720000000 1.0
C      1  0.4858790000000  0.4906450000000  0.5215040000000 1.0
C      1  0.5289810000000  0.4373700000000  0.4909860000000 1.0
C      1  0.4520030000000  0.4623380000000  0.5525800000000 1.0
C      1  0.5667490000000  0.5012280000000  0.5101030000000 1.0
C      1  0.4663210000000  0.5068760000000  0.5039930000000 1.0
C      1  0.4977910000000  0.5309330000000  0.4391750000000 1.0
C      1  0.5250650000000  0.5435140000000  0.4250120000000 1.0
C      1  0.4725220000000  0.4956380000000  0.3953070000000 1.0
C      1  0.4716670000000  0.4803050000000  0.4238350000000 1.0
C      1  0.4535430000000  0.5435680000000  0.5130690000000 1.0
C      1  0.5016180000000  0.5908730000000  0.4830710000000 1.0
C      1  0.4726180000000  0.4692750000000  0.4496620000000 1.0
C      1  0.5872890000000  0.5039480000000  0.4844570000000 1.0
C      1  0.4851530000000  0.5642560000000  0.4769910000000 1.0
C      1  0.4638050000000  0.4457620000000  0.4649660000000 1.0
C      1  0.5563810000000  0.5159150000000  0.5528780000000 1.0
C      1  0.4799710000000  0.5039050000000  0.5502190000000 1.0
C      1  0.5074570000000  0.5223080000000  0.5104620000000 1.0
C      1  0.4484880000000  0.5142390000000  0.5528730000000 1.0
C      1  0.5538490000000  0.5324150000000  0.5053170000000 1.0
C      1  0.4757330000000  0.4384930000000  0.5469810000000 1.0
C      1  0.4748130000000  0.5095390000000  0.4773140000000 1.0
C      1  0.5403530000000  0.4876360000000  0.4385860000000 1.0
C      1  0.5555980000000  0.5386190000000  0.5368640000000 1.0
C      1  0.4969270000000  0.5661790000000  0.5245480000000 1.0
C      1  0.5445850000000  0.4573720000000  0.5070680000000 1.0
C      1  0.4833400000000  0.4267180000000  0.4749200000000 1.0
C      1  0.5319830000000  0.5528810000000  0.4893280000000 1.0
C      1  0.4863820000000  0.5098690000000  0.4209980000000 1.0
C      1  0.5022270000000  0.4240250000000  0.4966580000000 1.0
C      1  0.4719210000000  0.5363780000000  0.5570140000000 1.0
C      1  0.4933510000000  0.4924240000000  0.5776800000000 1.0
C      1  0.4729300000000  0.5529830000000  0.5320370000000 1.0
C      1  0.5509570000000  0.4816980000000  0.4672940000000 1.0
C      1  0.5403750000000  0.5278690000000  0.4090610000000 1.0
C      1  0.5076290000000  0.4522340000000  0.5435930000000 1.0
C      1  0.4670690000000  0.4473770000000  0.5049760000000 1.0
C      1  0.4840480000000  0.4665360000000  0.5637710000000 1.0
C      1  0.4219990000000  0.4633430000000  0.5081910000000 1.0
C      1  0.4955460000000  0.5380570000000  0.4961910000000 1.0
C      1  0.4442370000000  0.4485980000000  0.5245850000000 1.0
C      1  0.4958710000000  0.4271340000000  0.5237970000000 1.0
C      1  0.4397080000000  0.5150000000000  0.5208120000000 1.0
C      1  0.5553980000000  0.4924160000000  0.5380190000000 1.0
END
