TITL C-2778423-5760-468 -0.00116219754201517 125000 -445.9400080192 0 0 79 (C1) n - 1
REM
REM in /home/nfs/bkarasulu/CARBON/AIRSS/Generating-Clusters/REBO/Only-C1/SD-CG/HFTN-CG
REM
REM
REM
REM
REM
REM ./C.cell (11c1c37f851c82e70ff6c80c92926a4b)
REM
REM compiler GCC version 9.2.1 20190827 (Red Hat 9.2.1-1)
REM options -cpp -mtune=generic -march=x86-64 -g -O0 -fpre-include=/usr/include/finclude/math-vector-fortran.h
REM seed -307411395 199950160 1389164909 1587065444 -1851890140 -751547772 1766171439 -505193452 -1360563604 -1679259106 995237194 1371988025 735043512 -2085651725 314435660 247802528 19334406 651147173 1034083127 763487966 950299744 -562737488 152226852 792115383 387387334 -969721933 -1169361176 1380350133 -322637793 -1626803566 -903396673 1677317031 1781850221
REM
CELL 1.54180   50.00000   50.00000   50.00000   90.00000   90.00000   90.00000
LATT -1
SFAC C  
C      1  0.4823690000000  0.5395110000000  0.4277310000000 1.0
C      1  0.4235110000000  0.4674430000000  0.4700280000000 1.0
C      1  0.5476380000000  0.4711930000000  0.4506430000000 1.0
C      1  0.5687470000000  0.4838950000000  0.4754180000000 1.0
C      1  0.5791520000000  0.4626370000000  0.5224970000000 1.0
C      1  0.5509930000000  0.4993640000000  0.5468830000000 1.0
C      1  0.5168800000000  0.5400320000000  0.4612710000000 1.0
C      1  0.5490020000000  0.4671520000000  0.5556870000000 1.0
C      1  0.5162590000000  0.4612360000000  0.4415080000000 1.0
C      1  0.4381870000000  0.4851550000000  0.5409240000000 1.0
C      1  0.4576680000000  0.4260590000000  0.5052330000000 1.0
C      1  0.5265340000000  0.5138400000000  0.4416500000000 1.0
C      1  0.4791210000000  0.4667580000000  0.5197920000000 1.0
C      1  0.5635230000000  0.5370920000000  0.5185790000000 1.0
C      1  0.4654360000000  0.5392740000000  0.4849400000000 1.0
C      1  0.4324070000000  0.5442730000000  0.4900350000000 1.0
C      1  0.4748810000000  0.4460300000000  0.4670550000000 1.0
C      1  0.5067860000000  0.5772940000000  0.4832100000000 1.0
C      1  0.4463520000000  0.4926280000000  0.5097020000000 1.0
C      1  0.4905410000000  0.4282390000000  0.5595420000000 1.0
C      1  0.5043220000000  0.4986480000000  0.5689850000000 1.0
C      1  0.4485390000000  0.5643840000000  0.5105080000000 1.0
C      1  0.4261670000000  0.4984980000000  0.4638230000000 1.0
C      1  0.5467860000000  0.5183570000000  0.4765300000000 1.0
C      1  0.4802540000000  0.5638980000000  0.4699020000000 1.0
C      1  0.4754980000000  0.5480980000000  0.5593770000000 1.0
C      1  0.5791250000000  0.4882950000000  0.5075970000000 1.0
C      1  0.5580190000000  0.5026810000000  0.4489720000000 1.0
C      1  0.5698220000000  0.5107970000000  0.5233490000000 1.0
C      1  0.4783440000000  0.4577670000000  0.5694020000000 1.0
C      1  0.5302000000000  0.4358890000000  0.4569840000000 1.0
C      1  0.5192880000000  0.4642460000000  0.4902100000000 1.0
C      1  0.4800530000000  0.5633940000000  0.4401080000000 1.0
C      1  0.4561810000000  0.4461400000000  0.5256560000000 1.0
C      1  0.4578810000000  0.5270570000000  0.5479530000000 1.0
C      1  0.4803170000000  0.4103160000000  0.5095520000000 1.0
C      1  0.5081080000000  0.5551380000000  0.5354800000000 1.0
C      1  0.4979510000000  0.4559530000000  0.5420810000000 1.0
C      1  0.5146420000000  0.5031280000000  0.5300760000000 1.0
C      1  0.4809900000000  0.4852440000000  0.4693110000000 1.0
C      1  0.4755630000000  0.5563000000000  0.5272500000000 1.0
C      1  0.5407200000000  0.5566600000000  0.5339470000000 1.0
C      1  0.4957610000000  0.5954060000000  0.5044270000000 1.0
C      1  0.4769220000000  0.4875640000000  0.5727310000000 1.0
C      1  0.5492290000000  0.5441000000000  0.4543790000000 1.0
C      1  0.5291690000000  0.4886050000000  0.4725160000000 1.0
C      1  0.4775040000000  0.5874090000000  0.4265870000000 1.0
C      1  0.4753880000000  0.4982550000000  0.5256240000000 1.0
C      1  0.5267600000000  0.5442840000000  0.5618530000000 1.0
C      1  0.4977710000000  0.5529700000000  0.5739980000000 1.0
C      1  0.5025270000000  0.4918570000000  0.4433680000000 1.0
C      1  0.4782410000000  0.5098200000000  0.4296700000000 1.0
C      1  0.4517520000000  0.5028210000000  0.4489450000000 1.0
C      1  0.5492120000000  0.5331680000000  0.4251890000000 1.0
C      1  0.4179010000000  0.5220000000000  0.4787520000000 1.0
C      1  0.5182870000000  0.4766470000000  0.5492480000000 1.0
C      1  0.4758170000000  0.5166580000000  0.4689540000000 1.0
C      1  0.5616790000000  0.4415250000000  0.5277750000000 1.0
C      1  0.5304010000000  0.5145170000000  0.5647500000000 1.0
C      1  0.5287770000000  0.5135120000000  0.5031350000000 1.0
C      1  0.5404810000000  0.4846830000000  0.5171360000000 1.0
C      1  0.5511000000000  0.5621510000000  0.5029230000000 1.0
C      1  0.4930680000000  0.5265640000000  0.5293100000000 1.0
C      1  0.4694080000000  0.5807830000000  0.4963210000000 1.0
C      1  0.4888830000000  0.4627090000000  0.4912180000000 1.0
C      1  0.5072440000000  0.5143560000000  0.4765960000000 1.0
C      1  0.5344350000000  0.5632210000000  0.4784640000000 1.0
C      1  0.5449890000000  0.4365350000000  0.4772870000000 1.0
C      1  0.4837190000000  0.4566030000000  0.4416590000000 1.0
C      1  0.4453970000000  0.4431390000000  0.4799820000000 1.0
C      1  0.4520150000000  0.4765490000000  0.4848850000000 1.0
C      1  0.4671090000000  0.4777490000000  0.4316620000000 1.0
C      1  0.5371770000000  0.4290090000000  0.5285550000000 1.0
C      1  0.5047600000000  0.4178940000000  0.5319480000000 1.0
C      1  0.5137910000000  0.4412190000000  0.5106450000000 1.0
C      1  0.4368330000000  0.4570390000000  0.5426280000000 1.0
C      1  0.5512930000000  0.4634370000000  0.4940720000000 1.0
C      1  0.4540720000000  0.5009700000000  0.5593290000000 1.0
C      1  0.4563710000000  0.5242820000000  0.5140960000000 1.0
END
