TITL C-2778425-5191-1372 0.00231751630279168 125000 -1011.56993674218 0 0 170 (C1) n - 1
REM
REM in /home/nfs/bkarasulu/CARBON/AIRSS/Generating-Clusters/REBO/Only-C1/SD-CG/HFTN-CG
REM
REM
REM
REM
REM
REM ./C.cell (11c1c37f851c82e70ff6c80c92926a4b)
REM
REM compiler GCC version 9.2.1 20190827 (Red Hat 9.2.1-1)
REM options -cpp -mtune=generic -march=x86-64 -g -O0 -fpre-include=/usr/include/finclude/math-vector-fortran.h
REM seed -336773272 419080322 -1276250246 -694731364 -2050725022 759630847 -411020321 825920310 1767280280 -1567848193 -464158424 2130153692 1398183766 -1529476242 -563413763 -1608110616 -910340657 -1959465880 1340106576 1510637373 -2044610967 1212126802 -427249426 -1334578712 -992014424 411120598 -756490746 -1900007269 -1925514531 -1233120942 -1999264872 -1378988255 -76609228
REM
CELL 1.54180   50.00000   50.00000   50.00000   90.00000   90.00000   90.00000
LATT -1
SFAC C  
C      1  0.4510450000000  0.5894150000000  0.4809900000000 1.0
C      1  0.6077550000000  0.4713440000000  0.4849510000000 1.0
C      1  0.5450210000000  0.4349070000000  0.5028560000000 1.0
C      1  0.3915510000000  0.5047830000000  0.5024930000000 1.0
C      1  0.5056710000000  0.5100360000000  0.5397720000000 1.0
C      1  0.5765010000000  0.4402760000000  0.5155290000000 1.0
C      1  0.5012520000000  0.4446850000000  0.4496050000000 1.0
C      1  0.4674720000000  0.5345330000000  0.5988100000000 1.0
C      1  0.6092120000000  0.5050290000000  0.5528710000000 1.0
C      1  0.5208440000000  0.4013910000000  0.5043700000000 1.0
C      1  0.5482780000000  0.5310660000000  0.5873870000000 1.0
C      1  0.5013500000000  0.5149660000000  0.5910580000000 1.0
C      1  0.4625440000000  0.4660260000000  0.4971870000000 1.0
C      1  0.4341860000000  0.5421380000000  0.4460890000000 1.0
C      1  0.4838480000000  0.5268960000000  0.4392300000000 1.0
C      1  0.5062050000000  0.5207320000000  0.4579420000000 1.0
C      1  0.5919750000000  0.5716840000000  0.5112590000000 1.0
C      1  0.5218610000000  0.4962520000000  0.4852550000000 1.0
C      1  0.4973290000000  0.6073840000000  0.4907020000000 1.0
C      1  0.4437610000000  0.4649320000000  0.4619430000000 1.0
C      1  0.4596190000000  0.4976130000000  0.5589410000000 1.0
C      1  0.4420910000000  0.4511160000000  0.4311160000000 1.0
C      1  0.4735330000000  0.5328650000000  0.4942070000000 1.0
C      1  0.4453390000000  0.5508920000000  0.5013040000000 1.0
C      1  0.5483210000000  0.4521380000000  0.4746450000000 1.0
C      1  0.5058990000000  0.5446880000000  0.5846950000000 1.0
C      1  0.4857460000000  0.4694810000000  0.6021170000000 1.0
C      1  0.5314790000000  0.5762850000000  0.5107900000000 1.0
C      1  0.4563890000000  0.5188680000000  0.4480610000000 1.0
C      1  0.5157550000000  0.5537890000000  0.4089670000000 1.0
C      1  0.5384030000000  0.4840090000000  0.5085110000000 1.0
C      1  0.4764840000000  0.5582200000000  0.5468710000000 1.0
C      1  0.5026650000000  0.4477050000000  0.5942600000000 1.0
C      1  0.4040360000000  0.4323490000000  0.5226790000000 1.0
C      1  0.5368570000000  0.5158550000000  0.5522390000000 1.0
C      1  0.5649510000000  0.4687790000000  0.5773290000000 1.0
C      1  0.4943540000000  0.5998160000000  0.4405970000000 1.0
C      1  0.5065140000000  0.4848220000000  0.5200420000000 1.0
C      1  0.4151540000000  0.4909070000000  0.5681850000000 1.0
C      1  0.3997190000000  0.4776950000000  0.5080830000000 1.0
C      1  0.4744160000000  0.4276930000000  0.4862290000000 1.0
C      1  0.5555580000000  0.4888610000000  0.4047860000000 1.0
C      1  0.5880990000000  0.5132120000000  0.5104700000000 1.0
C      1  0.4414430000000  0.4922870000000  0.5856660000000 1.0
C      1  0.4633100000000  0.5684030000000  0.4596330000000 1.0
C      1  0.4339800000000  0.5610750000000  0.4722630000000 1.0
C      1  0.6140580000000  0.4961910000000  0.4970410000000 1.0
C      1  0.4560930000000  0.4102640000000  0.5089900000000 1.0
C      1  0.4898850000000  0.5545410000000  0.4223180000000 1.0
C      1  0.5328650000000  0.5780840000000  0.5615310000000 1.0
C      1  0.4507450000000  0.5790600000000  0.5469750000000 1.0
C      1  0.4901170000000  0.5176070000000  0.4070880000000 1.0
C      1  0.5135070000000  0.5256400000000  0.4908890000000 1.0
C      1  0.5110490000000  0.4944700000000  0.4185140000000 1.0
C      1  0.5832800000000  0.5146960000000  0.4311050000000 1.0
C      1  0.4723570000000  0.4360670000000  0.4272700000000 1.0
C      1  0.4624110000000  0.5331390000000  0.4028990000000 1.0
C      1  0.5259420000000  0.5442110000000  0.5414690000000 1.0
C      1  0.3756700000000  0.4644340000000  0.5613290000000 1.0
C      1  0.5062280000000  0.5912680000000  0.5619060000000 1.0
C      1  0.5833220000000  0.4917370000000  0.5646280000000 1.0
C      1  0.5043390000000  0.3777300000000  0.4621490000000 1.0
C      1  0.4277590000000  0.5058320000000  0.4860940000000 1.0
C      1  0.5230390000000  0.4465580000000  0.5237930000000 1.0
C      1  0.5567260000000  0.4401140000000  0.5632780000000 1.0
C      1  0.5237030000000  0.4046360000000  0.4702390000000 1.0
C      1  0.5314610000000  0.5047720000000  0.4425720000000 1.0
C      1  0.4429160000000  0.4341880000000  0.5499510000000 1.0
C      1  0.4686210000000  0.5983400000000  0.5285790000000 1.0
C      1  0.5286760000000  0.4371400000000  0.5750520000000 1.0
C      1  0.4982830000000  0.4256130000000  0.5687700000000 1.0
C      1  0.5032010000000  0.5519040000000  0.5558990000000 1.0
C      1  0.6012720000000  0.5252640000000  0.5352700000000 1.0
C      1  0.4840490000000  0.5509110000000  0.4717650000000 1.0
C      1  0.4855300000000  0.4865500000000  0.4598510000000 1.0
C      1  0.4818770000000  0.4876520000000  0.4322130000000 1.0
C      1  0.5200500000000  0.4375460000000  0.4718960000000 1.0
C      1  0.4719880000000  0.5026050000000  0.4841080000000 1.0
C      1  0.4586250000000  0.4136410000000  0.5396920000000 1.0
C      1  0.4754540000000  0.4985880000000  0.5164220000000 1.0
C      1  0.4709940000000  0.5670870000000  0.5146830000000 1.0
C      1  0.5752320000000  0.5667660000000  0.5344380000000 1.0
C      1  0.5798880000000  0.4889250000000  0.4190150000000 1.0
C      1  0.5456010000000  0.4420700000000  0.4361100000000 1.0
C      1  0.5977060000000  0.5186700000000  0.4560400000000 1.0
C      1  0.5187240000000  0.5267260000000  0.3954480000000 1.0
C      1  0.5538200000000  0.4569650000000  0.5347150000000 1.0
C      1  0.5623090000000  0.4184730000000  0.5375300000000 1.0
C      1  0.4743490000000  0.5800530000000  0.4333510000000 1.0
C      1  0.5118580000000  0.6130060000000  0.5150750000000 1.0
C      1  0.4885450000000  0.4627470000000  0.5053260000000 1.0
C      1  0.4958350000000  0.5328030000000  0.5180870000000 1.0
C      1  0.4879950000000  0.4686180000000  0.5624020000000 1.0
C      1  0.4861780000000  0.5794860000000  0.5793250000000 1.0
C      1  0.4429010000000  0.4229530000000  0.4737950000000 1.0
C      1  0.5597640000000  0.5723910000000  0.4657930000000 1.0
C      1  0.5831460000000  0.5673490000000  0.4806320000000 1.0
C      1  0.4700220000000  0.5606490000000  0.5913500000000 1.0
C      1  0.4311170000000  0.4730570000000  0.5087650000000 1.0
C      1  0.4588540000000  0.4581260000000  0.5530210000000 1.0
C      1  0.5328610000000  0.5405760000000  0.4597090000000 1.0
C      1  0.5037160000000  0.4368730000000  0.4981540000000 1.0
C      1  0.4303090000000  0.5145420000000  0.5117180000000 1.0
C      1  0.5429390000000  0.4022520000000  0.5257420000000 1.0
C      1  0.5478950000000  0.5770450000000  0.5357060000000 1.0
C      1  0.5309270000000  0.4708480000000  0.4438870000000 1.0
C      1  0.5586280000000  0.4817210000000  0.4813130000000 1.0
C      1  0.5728530000000  0.4414180000000  0.4543690000000 1.0
C      1  0.5316300000000  0.5095610000000  0.5973870000000 1.0
C      1  0.5452680000000  0.5151950000000  0.4024110000000 1.0
C      1  0.4110000000000  0.5194800000000  0.4456250000000 1.0
C      1  0.5403330000000  0.4839870000000  0.5890780000000 1.0
C      1  0.5278190000000  0.4170600000000  0.4387210000000 1.0
C      1  0.4536190000000  0.5195710000000  0.5261040000000 1.0
C      1  0.4092830000000  0.5163200000000  0.5564700000000 1.0
C      1  0.3871940000000  0.4897710000000  0.4161030000000 1.0
C      1  0.5011830000000  0.4229930000000  0.4243590000000 1.0
C      1  0.5659680000000  0.4177590000000  0.4847650000000 1.0
C      1  0.4029780000000  0.5240180000000  0.5259130000000 1.0
C      1  0.5578380000000  0.5626710000000  0.4381480000000 1.0
C      1  0.4696420000000  0.6028880000000  0.4969680000000 1.0
C      1  0.5607710000000  0.4860340000000  0.5414860000000 1.0
C      1  0.5114750000000  0.5928730000000  0.4668590000000 1.0
C      1  0.5358430000000  0.5313440000000  0.5154370000000 1.0
C      1  0.5370940000000  0.4649300000000  0.4120690000000 1.0
C      1  0.5897980000000  0.4423760000000  0.4842770000000 1.0
C      1  0.4546660000000  0.5357830000000  0.5489360000000 1.0
C      1  0.4267680000000  0.5642700000000  0.5466210000000 1.0
C      1  0.4972490000000  0.6053980000000  0.5389670000000 1.0
C      1  0.4637100000000  0.4786300000000  0.4119740000000 1.0
C      1  0.5383580000000  0.5827170000000  0.4823980000000 1.0
C      1  0.5079750000000  0.4681840000000  0.3981860000000 1.0
C      1  0.4868430000000  0.4123400000000  0.5484150000000 1.0
C      1  0.5863780000000  0.4771480000000  0.4652310000000 1.0
C      1  0.5104010000000  0.5596210000000  0.4662420000000 1.0
C      1  0.4599300000000  0.4663590000000  0.5836140000000 1.0
C      1  0.5582200000000  0.5079020000000  0.5189690000000 1.0
C      1  0.5329290000000  0.4824200000000  0.5577600000000 1.0
C      1  0.6037170000000  0.5462470000000  0.4946120000000 1.0
C      1  0.3868380000000  0.4526000000000  0.5118710000000 1.0
C      1  0.4716800000000  0.5007450000000  0.5996300000000 1.0
C      1  0.5148280000000  0.4582850000000  0.5527100000000 1.0
C      1  0.5666600000000  0.5213750000000  0.5640800000000 1.0
C      1  0.5049800000000  0.5650050000000  0.5146020000000 1.0
C      1  0.4015960000000  0.5129050000000  0.4729070000000 1.0
C      1  0.4032180000000  0.4651870000000  0.5600570000000 1.0
C      1  0.5581270000000  0.5215960000000  0.4522860000000 1.0
C      1  0.4702550000000  0.4479890000000  0.4592160000000 1.0
C      1  0.4203810000000  0.5519300000000  0.5208620000000 1.0
C      1  0.4886240000000  0.4020920000000  0.5160080000000 1.0
C      1  0.4900850000000  0.5011360000000  0.5641490000000 1.0
C      1  0.5340500000000  0.5558600000000  0.5810140000000 1.0
C      1  0.5113960000000  0.4796000000000  0.4661540000000 1.0
C      1  0.4248610000000  0.4207030000000  0.5022790000000 1.0
C      1  0.4809170000000  0.4648090000000  0.3927710000000 1.0
C      1  0.5820880000000  0.5429770000000  0.5481000000000 1.0
C      1  0.4980750000000  0.3817330000000  0.4906190000000 1.0
C      1  0.4278720000000  0.4504350000000  0.4859330000000 1.0
C      1  0.4155870000000  0.4408530000000  0.5475660000000 1.0
C      1  0.4469460000000  0.4943270000000  0.4660610000000 1.0
C      1  0.5455500000000  0.5459660000000  0.4178070000000 1.0
C      1  0.4399910000000  0.4218280000000  0.4456950000000 1.0
C      1  0.4340020000000  0.4807070000000  0.4186660000000 1.0
C      1  0.4116570000000  0.4973170000000  0.4261660000000 1.0
C      1  0.4543290000000  0.5536850000000  0.4236990000000 1.0
C      1  0.4278410000000  0.5382300000000  0.5640070000000 1.0
C      1  0.5745600000000  0.5118000000000  0.4804560000000 1.0
C      1  0.5849230000000  0.4677590000000  0.4370070000000 1.0
C      1  0.6131340000000  0.5231490000000  0.4811080000000 1.0
C      1  0.4512260000000  0.4804850000000  0.5323810000000 1.0
END
