TITL C-2778426-5645-266 0.00284197471949303 125000 -1124.13000895063 0 0 194 (C1) n - 1
REM
REM in /home/nfs/bkarasulu/CARBON/AIRSS/Generating-Clusters/REBO/Only-C1/SD-CG/HFTN-CG
REM
REM
REM
REM
REM
REM ./C.cell (11c1c37f851c82e70ff6c80c92926a4b)
REM
REM compiler GCC version 9.2.1 20190827 (Red Hat 9.2.1-1)
REM options -cpp -mtune=generic -march=x86-64 -g -O0 -fpre-include=/usr/include/finclude/math-vector-fortran.h
REM seed 396234343 141522997 549676386 1400783799 124485388 -1788403774 -1835103731 -789047893 -266314619 -111779202 -1264439336 -1883280089 917604910 -1965248696 2098615125 312847317 -2009876331 -131212444 -1344994006 -306485171 -1397251379 -161613984 1293193614 -1590038174 -1840454062 260290258 -178778278 86322981 -1783578155 2000998688 -1676888383 245840337 319354465
REM
CELL 1.54180   50.00000   50.00000   50.00000   90.00000   90.00000   90.00000
LATT -1
SFAC C  
C      1  0.5262100000000  0.5242200000000  0.4946350000000 1.0
C      1  0.5234960000000  0.4052620000000  0.4759170000000 1.0
C      1  0.5543520000000  0.4550910000000  0.5228340000000 1.0
C      1  0.4617690000000  0.4477620000000  0.5836840000000 1.0
C      1  0.4091780000000  0.5369580000000  0.5385650000000 1.0
C      1  0.4946050000000  0.4165090000000  0.4105350000000 1.0
C      1  0.4093230000000  0.5002700000000  0.5044130000000 1.0
C      1  0.4868040000000  0.4533000000000  0.3938410000000 1.0
C      1  0.4940440000000  0.5076400000000  0.4334580000000 1.0
C      1  0.5692740000000  0.4143780000000  0.4919550000000 1.0
C      1  0.3789250000000  0.5099660000000  0.5160300000000 1.0
C      1  0.4229960000000  0.4738970000000  0.4381750000000 1.0
C      1  0.4253360000000  0.5292340000000  0.4102700000000 1.0
C      1  0.4821580000000  0.4529440000000  0.5246870000000 1.0
C      1  0.5311400000000  0.4461190000000  0.5037570000000 1.0
C      1  0.4387160000000  0.5745570000000  0.5632760000000 1.0
C      1  0.4591770000000  0.5264810000000  0.4307370000000 1.0
C      1  0.5006910000000  0.6107730000000  0.4929770000000 1.0
C      1  0.6077970000000  0.4761670000000  0.4410040000000 1.0
C      1  0.4312170000000  0.4561430000000  0.4729030000000 1.0
C      1  0.5582930000000  0.5273670000000  0.4337920000000 1.0
C      1  0.4548840000000  0.4866670000000  0.5825390000000 1.0
C      1  0.4352720000000  0.5532280000000  0.4284250000000 1.0
C      1  0.5836710000000  0.4393240000000  0.5305420000000 1.0
C      1  0.4593920000000  0.5880600000000  0.4676050000000 1.0
C      1  0.5807840000000  0.4588660000000  0.5804080000000 1.0
C      1  0.5415610000000  0.5598320000000  0.4868830000000 1.0
C      1  0.5041250000000  0.4312360000000  0.5126080000000 1.0
C      1  0.4811880000000  0.5033510000000  0.4649870000000 1.0
C      1  0.5148900000000  0.5949860000000  0.5338690000000 1.0
C      1  0.5443500000000  0.4809020000000  0.4894520000000 1.0
C      1  0.5142880000000  0.4248600000000  0.5768810000000 1.0
C      1  0.5013670000000  0.5679270000000  0.5200560000000 1.0
C      1  0.5074880000000  0.4681800000000  0.4978380000000 1.0
C      1  0.5504540000000  0.5838240000000  0.5041060000000 1.0
C      1  0.4620330000000  0.4542500000000  0.4616760000000 1.0
C      1  0.4703750000000  0.3956880000000  0.4940120000000 1.0
C      1  0.4934670000000  0.4834020000000  0.5234960000000 1.0
C      1  0.4312600000000  0.4444620000000  0.5111430000000 1.0
C      1  0.4222550000000  0.5518000000000  0.4550460000000 1.0
C      1  0.3835360000000  0.4578800000000  0.5234510000000 1.0
C      1  0.5107050000000  0.4537160000000  0.5951350000000 1.0
C      1  0.5236470000000  0.5450230000000  0.5216820000000 1.0
C      1  0.4199470000000  0.4428170000000  0.5564950000000 1.0
C      1  0.5505840000000  0.5296820000000  0.5676610000000 1.0
C      1  0.4624250000000  0.4926300000000  0.3919810000000 1.0
C      1  0.4397070000000  0.5334240000000  0.5424890000000 1.0
C      1  0.5365030000000  0.4579800000000  0.3888850000000 1.0
C      1  0.4439570000000  0.5428430000000  0.4959120000000 1.0
C      1  0.5744030000000  0.4547400000000  0.4458620000000 1.0
C      1  0.4902220000000  0.5851110000000  0.5552650000000 1.0
C      1  0.5422680000000  0.4266100000000  0.4812610000000 1.0
C      1  0.5266760000000  0.5551500000000  0.6056700000000 1.0
C      1  0.6136790000000  0.5202300000000  0.4840470000000 1.0
C      1  0.3951990000000  0.4652910000000  0.5499160000000 1.0
C      1  0.5812640000000  0.4771290000000  0.4235140000000 1.0
C      1  0.5450100000000  0.5543000000000  0.5448680000000 1.0
C      1  0.5237470000000  0.4505690000000  0.5481730000000 1.0
C      1  0.4170180000000  0.5319070000000  0.5095940000000 1.0
C      1  0.4677710000000  0.4151590000000  0.4672310000000 1.0
C      1  0.4815330000000  0.4704630000000  0.5968560000000 1.0
C      1  0.4896250000000  0.4995780000000  0.6078560000000 1.0
C      1  0.5104390000000  0.5483290000000  0.5801920000000 1.0
C      1  0.5139590000000  0.4379590000000  0.3916730000000 1.0
C      1  0.4592080000000  0.4554170000000  0.5013820000000 1.0
C      1  0.5113990000000  0.5140760000000  0.4687930000000 1.0
C      1  0.4202920000000  0.5750700000000  0.5365010000000 1.0
C      1  0.5135670000000  0.5166270000000  0.5312260000000 1.0
C      1  0.5637700000000  0.4010080000000  0.5162860000000 1.0
C      1  0.4765790000000  0.6118880000000  0.5155470000000 1.0
C      1  0.5407410000000  0.4218660000000  0.5555970000000 1.0
C      1  0.5051260000000  0.5419950000000  0.4549640000000 1.0
C      1  0.4569120000000  0.4622860000000  0.3951000000000 1.0
C      1  0.5641900000000  0.5364650000000  0.4972540000000 1.0
C      1  0.4626330000000  0.4245060000000  0.5646260000000 1.0
C      1  0.6011750000000  0.5302220000000  0.4538520000000 1.0
C      1  0.6077930000000  0.5522690000000  0.5358700000000 1.0
C      1  0.5632360000000  0.4952710000000  0.4570310000000 1.0
C      1  0.5361950000000  0.4208260000000  0.4343030000000 1.0
C      1  0.5297280000000  0.4873750000000  0.4589790000000 1.0
C      1  0.6072610000000  0.4884600000000  0.4938400000000 1.0
C      1  0.4801010000000  0.4711120000000  0.4415220000000 1.0
C      1  0.5480670000000  0.6061760000000  0.4797770000000 1.0
C      1  0.4123760000000  0.4683160000000  0.4956910000000 1.0
C      1  0.4522260000000  0.5170070000000  0.3986870000000 1.0
C      1  0.5017070000000  0.3851320000000  0.4925670000000 1.0
C      1  0.6141710000000  0.5349570000000  0.5147390000000 1.0
C      1  0.5135970000000  0.4007150000000  0.5185500000000 1.0
C      1  0.4870430000000  0.4824510000000  0.4115110000000 1.0
C      1  0.5262980000000  0.4124500000000  0.4085450000000 1.0
C      1  0.5302710000000  0.4846610000000  0.4043680000000 1.0
C      1  0.4567210000000  0.5187380000000  0.4749000000000 1.0
C      1  0.4224250000000  0.4404380000000  0.4371940000000 1.0
C      1  0.4230060000000  0.4820910000000  0.5590980000000 1.0
C      1  0.5966880000000  0.4578770000000  0.5049340000000 1.0
C      1  0.5751570000000  0.4781260000000  0.5317920000000 1.0
C      1  0.5179870000000  0.5035540000000  0.6079710000000 1.0
C      1  0.6000090000000  0.5065950000000  0.5189730000000 1.0
C      1  0.5507720000000  0.5182740000000  0.4731430000000 1.0
C      1  0.3983530000000  0.4360420000000  0.5136520000000 1.0
C      1  0.5711130000000  0.4344570000000  0.5587750000000 1.0
C      1  0.5569130000000  0.5469410000000  0.4594090000000 1.0
C      1  0.5905950000000  0.5741500000000  0.5309370000000 1.0
C      1  0.4869150000000  0.4151400000000  0.4413310000000 1.0
C      1  0.5855200000000  0.5088690000000  0.4354530000000 1.0
C      1  0.4718790000000  0.5201240000000  0.5956370000000 1.0
C      1  0.6112650000000  0.5409610000000  0.5845660000000 1.0
C      1  0.6052930000000  0.4881650000000  0.5442240000000 1.0
C      1  0.5150640000000  0.5890200000000  0.4443280000000 1.0
C      1  0.6002710000000  0.5377390000000  0.5594920000000 1.0
C      1  0.6108530000000  0.4584580000000  0.5347010000000 1.0
C      1  0.5500190000000  0.4586050000000  0.5677770000000 1.0
C      1  0.4423950000000  0.4257920000000  0.5372920000000 1.0
C      1  0.4664750000000  0.5648730000000  0.4234210000000 1.0
C      1  0.5278460000000  0.6083490000000  0.5072480000000 1.0
C      1  0.4879020000000  0.4129730000000  0.5615150000000 1.0
C      1  0.4066110000000  0.5522330000000  0.4851620000000 1.0
C      1  0.5635800000000  0.5738750000000  0.5291280000000 1.0
C      1  0.5847790000000  0.4905190000000  0.5685640000000 1.0
C      1  0.5045150000000  0.5336950000000  0.4159090000000 1.0
C      1  0.5227680000000  0.4954370000000  0.4280580000000 1.0
C      1  0.4240410000000  0.5215700000000  0.4649340000000 1.0
C      1  0.5766610000000  0.5183820000000  0.5545810000000 1.0
C      1  0.5935990000000  0.4838590000000  0.4653120000000 1.0
C      1  0.4869740000000  0.5438070000000  0.5016790000000 1.0
C      1  0.4966900000000  0.4518630000000  0.5646310000000 1.0
C      1  0.4988210000000  0.4967550000000  0.5530000000000 1.0
C      1  0.4702380000000  0.4619520000000  0.5528730000000 1.0
C      1  0.5468660000000  0.5128310000000  0.5971560000000 1.0
C      1  0.4310160000000  0.5712460000000  0.5102870000000 1.0
C      1  0.4791360000000  0.5177630000000  0.5639380000000 1.0
C      1  0.5643440000000  0.4849580000000  0.5942710000000 1.0
C      1  0.4796690000000  0.5504850000000  0.5867270000000 1.0
C      1  0.5625480000000  0.4241630000000  0.4410690000000 1.0
C      1  0.5408980000000  0.4022270000000  0.5318750000000 1.0
C      1  0.3833770000000  0.5488960000000  0.5539600000000 1.0
C      1  0.3755250000000  0.4790710000000  0.5065770000000 1.0
C      1  0.4808620000000  0.4336490000000  0.4901030000000 1.0
C      1  0.5624110000000  0.4778000000000  0.3990670000000 1.0
C      1  0.5485590000000  0.5633760000000  0.4200750000000 1.0
C      1  0.4568620000000  0.4941120000000  0.4347260000000 1.0
C      1  0.4799390000000  0.4741540000000  0.4811740000000 1.0
C      1  0.4750560000000  0.5454680000000  0.4508670000000 1.0
C      1  0.4683260000000  0.6141450000000  0.4825300000000 1.0
C      1  0.4642480000000  0.4049800000000  0.5214130000000 1.0
C      1  0.5605710000000  0.5103280000000  0.4042370000000 1.0
C      1  0.4406510000000  0.4274800000000  0.4592620000000 1.0
C      1  0.4990200000000  0.5869200000000  0.4726470000000 1.0
C      1  0.5322530000000  0.4757540000000  0.5988010000000 1.0
C      1  0.4371520000000  0.4553910000000  0.4132330000000 1.0
C      1  0.5865830000000  0.5613240000000  0.4540300000000 1.0
C      1  0.5690590000000  0.5163310000000  0.5217830000000 1.0
C      1  0.4707930000000  0.5791250000000  0.5209140000000 1.0
C      1  0.4523150000000  0.4873310000000  0.5483310000000 1.0
C      1  0.4885770000000  0.4020370000000  0.5365330000000 1.0
C      1  0.4826730000000  0.5496710000000  0.4040190000000 1.0
C      1  0.5190230000000  0.5595740000000  0.4323190000000 1.0
C      1  0.4389130000000  0.5145360000000  0.5888430000000 1.0
C      1  0.3870440000000  0.4808090000000  0.4778010000000 1.0
C      1  0.5086250000000  0.4613000000000  0.4533180000000 1.0
C      1  0.4707960000000  0.5767480000000  0.5721650000000 1.0
C      1  0.5105800000000  0.5588450000000  0.4822550000000 1.0
C      1  0.5185690000000  0.5184980000000  0.5704180000000 1.0
C      1  0.4265530000000  0.5036670000000  0.4261450000000 1.0
C      1  0.5357470000000  0.4787230000000  0.5367080000000 1.0
C      1  0.4786730000000  0.5399420000000  0.5482030000000 1.0
C      1  0.5349480000000  0.4891300000000  0.5675680000000 1.0
C      1  0.5746040000000  0.4675580000000  0.4849630000000 1.0
C      1  0.4327890000000  0.4602310000000  0.5820930000000 1.0
C      1  0.5901830000000  0.5442680000000  0.4832880000000 1.0
C      1  0.5452480000000  0.5970330000000  0.4526230000000 1.0
C      1  0.3933910000000  0.5072210000000  0.4684380000000 1.0
C      1  0.5797320000000  0.4281540000000  0.4674200000000 1.0
C      1  0.5136580000000  0.4337000000000  0.4476880000000 1.0
C      1  0.3832710000000  0.5175790000000  0.5455060000000 1.0
C      1  0.5193770000000  0.5693060000000  0.5564170000000 1.0
C      1  0.5640190000000  0.5798640000000  0.4382170000000 1.0
C      1  0.5493610000000  0.4540300000000  0.4690510000000 1.0
C      1  0.4574070000000  0.5605010000000  0.5383460000000 1.0
C      1  0.4309620000000  0.5750220000000  0.4764130000000 1.0
C      1  0.4478580000000  0.5980040000000  0.5043610000000 1.0
C      1  0.5400930000000  0.5006630000000  0.5146760000000 1.0
C      1  0.4667240000000  0.5571820000000  0.4777870000000 1.0
C      1  0.4484580000000  0.5436370000000  0.5739490000000 1.0
C      1  0.4834360000000  0.5154980000000  0.5169520000000 1.0
C      1  0.4408570000000  0.5019610000000  0.4983720000000 1.0
C      1  0.3839660000000  0.5283040000000  0.4880660000000 1.0
C      1  0.5000170000000  0.3928970000000  0.4595930000000 1.0
C      1  0.3933810000000  0.4963990000000  0.5639060000000 1.0
C      1  0.4810310000000  0.5843480000000  0.4436870000000 1.0
C      1  0.4536260000000  0.5092040000000  0.5272650000000 1.0
C      1  0.5368930000000  0.5336000000000  0.4082800000000 1.0
C      1  0.4312490000000  0.4890500000000  0.4675910000000 1.0
C      1  0.4108490000000  0.5086960000000  0.5863130000000 1.0
END
