TITL C-2778436-5916-801 0.00336471302350471 125000 -542.111255009569 0 0 94 (C1) n - 1
REM
REM in /home/nfs/bkarasulu/CARBON/AIRSS/Generating-Clusters/REBO/Only-C1/SD-CG/HFTN-CG
REM
REM
REM
REM
REM
REM ./C.cell (11c1c37f851c82e70ff6c80c92926a4b)
REM
REM compiler GCC version 9.2.1 20190827 (Red Hat 9.2.1-1)
REM options -cpp -mtune=generic -march=x86-64 -g -O0 -fpre-include=/usr/include/finclude/math-vector-fortran.h
REM seed 2070168453 -1483920321 -151588692 -1368872434 -1052888549 1361683929 -1647288739 -1216540757 1831347388 -1837925618 376874756 491500881 1486655425 2116135633 -259504860 -1468130750 -1863780239 1705270392 2135801471 -1972917729 -1228424688 243728978 1785858319 1080811647 516267461 49226068 -1784096141 408044917 317000808 -1220377455 1011681090 1562006964 1430947123
REM
CELL 1.54180   50.00000   50.00000   50.00000   90.00000   90.00000   90.00000
LATT -1
SFAC C  
C      1  0.5623980000000  0.4592560000000  0.5099800000000 1.0
C      1  0.4799740000000  0.4214940000000  0.5286160000000 1.0
C      1  0.4701190000000  0.5565540000000  0.4306600000000 1.0
C      1  0.4629190000000  0.4548180000000  0.5637500000000 1.0
C      1  0.5691790000000  0.5603200000000  0.4581580000000 1.0
C      1  0.5245850000000  0.5012700000000  0.4194500000000 1.0
C      1  0.5479910000000  0.4871040000000  0.4404730000000 1.0
C      1  0.5060960000000  0.5966560000000  0.4793610000000 1.0
C      1  0.4943760000000  0.6025570000000  0.5055180000000 1.0
C      1  0.5266680000000  0.5198860000000  0.5864560000000 1.0
C      1  0.4896540000000  0.5675930000000  0.5430140000000 1.0
C      1  0.4816970000000  0.5289890000000  0.5130690000000 1.0
C      1  0.5187500000000  0.4668870000000  0.5147880000000 1.0
C      1  0.4787420000000  0.4899900000000  0.5052500000000 1.0
C      1  0.4299610000000  0.4839320000000  0.4548910000000 1.0
C      1  0.4523900000000  0.5190780000000  0.4542070000000 1.0
C      1  0.5173640000000  0.4373830000000  0.5598170000000 1.0
C      1  0.4598440000000  0.4292430000000  0.5045000000000 1.0
C      1  0.4583880000000  0.4835010000000  0.5681460000000 1.0
C      1  0.5084190000000  0.4546950000000  0.4319580000000 1.0
C      1  0.4551410000000  0.4402970000000  0.5395990000000 1.0
C      1  0.4919780000000  0.5660970000000  0.4796160000000 1.0
C      1  0.5180320000000  0.4158220000000  0.4653780000000 1.0
C      1  0.5427590000000  0.4395530000000  0.4983090000000 1.0
C      1  0.5179970000000  0.5124530000000  0.5377030000000 1.0
C      1  0.4674910000000  0.4741160000000  0.4117820000000 1.0
C      1  0.4384790000000  0.5555620000000  0.5133540000000 1.0
C      1  0.4953380000000  0.4180690000000  0.4483590000000 1.0
C      1  0.4694460000000  0.4900180000000  0.4560490000000 1.0
C      1  0.4182310000000  0.5077660000000  0.5246870000000 1.0
C      1  0.5530430000000  0.5025050000000  0.5066610000000 1.0
C      1  0.5249270000000  0.4960920000000  0.5124990000000 1.0
C      1  0.5784340000000  0.4788830000000  0.4873030000000 1.0
C      1  0.5270110000000  0.4174360000000  0.5123330000000 1.0
C      1  0.5260260000000  0.5236520000000  0.4729770000000 1.0
C      1  0.4374610000000  0.5206540000000  0.5448310000000 1.0
C      1  0.5549420000000  0.5812750000000  0.4681950000000 1.0
C      1  0.4749900000000  0.4447990000000  0.4835060000000 1.0
C      1  0.4530120000000  0.5201820000000  0.5027220000000 1.0
C      1  0.5702720000000  0.5353080000000  0.5410070000000 1.0
C      1  0.4671430000000  0.5550210000000  0.5552420000000 1.0
C      1  0.4945810000000  0.5066250000000  0.4452820000000 1.0
C      1  0.4634350000000  0.4755220000000  0.4817860000000 1.0
C      1  0.4310230000000  0.5042130000000  0.4821930000000 1.0
C      1  0.5721240000000  0.4864180000000  0.5283520000000 1.0
C      1  0.4971900000000  0.4469770000000  0.4095720000000 1.0
C      1  0.5076090000000  0.4203870000000  0.5337670000000 1.0
C      1  0.5405690000000  0.4890980000000  0.5906810000000 1.0
C      1  0.5298460000000  0.5781180000000  0.4799600000000 1.0
C      1  0.4894070000000  0.4488040000000  0.5720990000000 1.0
C      1  0.5174140000000  0.5489910000000  0.4899270000000 1.0
C      1  0.5920850000000  0.5028780000000  0.4982970000000 1.0
C      1  0.4633310000000  0.5627620000000  0.4977330000000 1.0
C      1  0.4286640000000  0.4790080000000  0.5248230000000 1.0
C      1  0.5401350000000  0.4606250000000  0.5719100000000 1.0
C      1  0.4832670000000  0.5796860000000  0.5179020000000 1.0
C      1  0.5032370000000  0.5113400000000  0.4949340000000 1.0
C      1  0.4775920000000  0.4392190000000  0.4540840000000 1.0
C      1  0.4619170000000  0.5103960000000  0.4226240000000 1.0
C      1  0.4940650000000  0.4619650000000  0.5028600000000 1.0
C      1  0.4567360000000  0.4979690000000  0.5277210000000 1.0
C      1  0.5577510000000  0.5324630000000  0.4637590000000 1.0
C      1  0.5185290000000  0.5336510000000  0.4282880000000 1.0
C      1  0.4207030000000  0.5310810000000  0.5003100000000 1.0
C      1  0.5843700000000  0.5166130000000  0.5267320000000 1.0
C      1  0.5526400000000  0.5504960000000  0.5087420000000 1.0
C      1  0.5591570000000  0.5278530000000  0.4947140000000 1.0
C      1  0.4862250000000  0.4953110000000  0.5615290000000 1.0
C      1  0.5398770000000  0.5505380000000  0.5391150000000 1.0
C      1  0.4473790000000  0.5454810000000  0.4350980000000 1.0
C      1  0.5602220000000  0.4617550000000  0.5445010000000 1.0
C      1  0.4354090000000  0.4503660000000  0.5136320000000 1.0
C      1  0.4404010000000  0.4862820000000  0.4289760000000 1.0
C      1  0.4876980000000  0.5226740000000  0.5439490000000 1.0
C      1  0.5202490000000  0.4953630000000  0.4586270000000 1.0
C      1  0.4317010000000  0.4703890000000  0.4863290000000 1.0
C      1  0.5204960000000  0.4629960000000  0.4560340000000 1.0
C      1  0.5083550000000  0.5405250000000  0.5789010000000 1.0
C      1  0.5695680000000  0.4774590000000  0.4611580000000 1.0
C      1  0.4686760000000  0.5450950000000  0.4689210000000 1.0
C      1  0.5305880000000  0.4419560000000  0.4718310000000 1.0
C      1  0.5140500000000  0.5578080000000  0.5559150000000 1.0
C      1  0.4770660000000  0.5320720000000  0.5750240000000 1.0
C      1  0.4442100000000  0.5479990000000  0.5407340000000 1.0
C      1  0.5280080000000  0.4996680000000  0.5612330000000 1.0
C      1  0.4919340000000  0.4972600000000  0.4131930000000 1.0
C      1  0.5191610000000  0.4001710000000  0.4897450000000 1.0
C      1  0.4697480000000  0.4614120000000  0.4396280000000 1.0
C      1  0.5314830000000  0.4522340000000  0.5343650000000 1.0
C      1  0.4563750000000  0.5100850000000  0.5833940000000 1.0
C      1  0.5463020000000  0.5197830000000  0.4387570000000 1.0
C      1  0.4932480000000  0.5397590000000  0.4455580000000 1.0
C      1  0.5134550000000  0.5410370000000  0.5196210000000 1.0
C      1  0.5090740000000  0.4745960000000  0.5710030000000 1.0
END
