TITL C-2778430-5657-1491 -0.000237386904907117 125000 -120.008404421251 0 0 23 (C1) n - 1
REM
REM in /home/nfs/bkarasulu/CARBON/AIRSS/Generating-Clusters/REBO/Only-C1/SD-CG/HFTN-CG
REM
REM
REM
REM
REM
REM ./C.cell (11c1c37f851c82e70ff6c80c92926a4b)
REM
REM compiler GCC version 9.2.1 20190827 (Red Hat 9.2.1-1)
REM options -cpp -mtune=generic -march=x86-64 -g -O0 -fpre-include=/usr/include/finclude/math-vector-fortran.h
REM seed -1203599278 2096231044 54562796 1046285633 1837556299 1511305354 -1588404411 2121147111 -1423834741 1463310016 -1956182162 94000896 -512179075 -1311764887 1448195952 314842862 1196392245 1543991776 101583768 -754964136 -848536465 176858148 -734217414 -70464330 -822113717 -502827515 -1531748045 358868531 1263536467 -802341763 216832724 1054375792 -1820055685
REM
CELL 1.54180   50.00000   50.00000   50.00000   90.00000   90.00000   90.00000
LATT -1
SFAC C  
C      1  0.4823670000000  0.5180030000000  0.5084580000000 1.0
C      1  0.5036020000000  0.5564350000000  0.5400690000000 1.0
C      1  0.5137320000000  0.5575070000000  0.5115050000000 1.0
C      1  0.5030370000000  0.5364130000000  0.4682510000000 1.0
C      1  0.4779470000000  0.4704690000000  0.5657100000000 1.0
C      1  0.4949320000000  0.4658140000000  0.4871710000000 1.0
C      1  0.5470350000000  0.3838060000000  0.4434990000000 1.0
C      1  0.4729730000000  0.4929760000000  0.5546830000000 1.0
C      1  0.4862590000000  0.5416070000000  0.5496900000000 1.0
C      1  0.4995420000000  0.5369850000000  0.4948030000000 1.0
C      1  0.5340090000000  0.4043080000000  0.4544170000000 1.0
C      1  0.4817550000000  0.4865530000000  0.4982150000000 1.0
C      1  0.4548570000000  0.4986940000000  0.5098060000000 1.0
C      1  0.5192130000000  0.5881770000000  0.4978710000000 1.0
C      1  0.5496400000000  0.5895860000000  0.4945670000000 1.0
C      1  0.5471610000000  0.5615980000000  0.5067850000000 1.0
C      1  0.5079580000000  0.4453120000000  0.4762530000000 1.0
C      1  0.5209840000000  0.4248100000000  0.4653350000000 1.0
C      1  0.5598540000000  0.3636310000000  0.4327550000000 1.0
C      1  0.4671560000000  0.5193000000000  0.5417860000000 1.0
C      1  0.4293430000000  0.4959610000000  0.5161330000000 1.0
C      1  0.4401890000000  0.5262000000000  0.5399620000000 1.0
C      1  0.5064570000000  0.5358540000000  0.4422740000000 1.0
END
