TITL C-2778429-3646-779 0.0014727215537312 125000 -438.931733618421 0 0 78 (C1) n - 1
REM
REM in /home/nfs/bkarasulu/CARBON/AIRSS/Generating-Clusters/REBO/Only-C1/SD-CG/HFTN-CG
REM
REM
REM
REM
REM
REM ./C.cell (11c1c37f851c82e70ff6c80c92926a4b)
REM
REM compiler GCC version 9.2.1 20190827 (Red Hat 9.2.1-1)
REM options -cpp -mtune=generic -march=x86-64 -g -O0 -fpre-include=/usr/include/finclude/math-vector-fortran.h
REM seed 1295050801 -1653481951 -1963531810 1318104488 -1229470706 246191198 1359481367 -1652234902 194579214 2083043741 -1841110709 158110587 -562126262 1712134889 -824613630 1141940347 -1003560184 -1306779320 543531317 -1288132444 -1268473181 777218146 -1885163396 50797247 -1158946207 175668741 -212892824 -621849008 -917690632 347753009 -772933101 1228472630 -1519901014
REM
CELL 1.54180   50.00000   50.00000   50.00000   90.00000   90.00000   90.00000
LATT -1
SFAC C  
C      1  0.5481750000000  0.3851390000000  0.4406240000000 1.0
C      1  0.5125180000000  0.4834250000000  0.5937270000000 1.0
C      1  0.4792670000000  0.4934150000000  0.5099400000000 1.0
C      1  0.4920450000000  0.5825050000000  0.4942620000000 1.0
C      1  0.4390750000000  0.5271190000000  0.4477000000000 1.0
C      1  0.4352650000000  0.4733240000000  0.5448820000000 1.0
C      1  0.5498740000000  0.4811320000000  0.5139050000000 1.0
C      1  0.5267150000000  0.5740500000000  0.5459110000000 1.0
C      1  0.4466410000000  0.5075250000000  0.4740920000000 1.0
C      1  0.5046150000000  0.4976000000000  0.4222540000000 1.0
C      1  0.5499420000000  0.4586600000000  0.4657770000000 1.0
C      1  0.5630180000000  0.5252430000000  0.4926650000000 1.0
C      1  0.5377140000000  0.4073880000000  0.4514000000000 1.0
C      1  0.5509810000000  0.5405890000000  0.4717910000000 1.0
C      1  0.5324390000000  0.4689390000000  0.4915150000000 1.0
C      1  0.4730050000000  0.4515790000000  0.5609590000000 1.0
C      1  0.4892660000000  0.5660510000000  0.4487460000000 1.0
C      1  0.5404510000000  0.5436520000000  0.5717100000000 1.0
C      1  0.4514320000000  0.4493610000000  0.5423920000000 1.0
C      1  0.4619350000000  0.5678500000000  0.4637170000000 1.0
C      1  0.5123020000000  0.5233860000000  0.4312420000000 1.0
C      1  0.4651590000000  0.5301980000000  0.4282640000000 1.0
C      1  0.4182650000000  0.4853310000000  0.5257900000000 1.0
C      1  0.5223000000000  0.4616660000000  0.5810280000000 1.0
C      1  0.4748540000000  0.4986450000000  0.5368150000000 1.0
C      1  0.4977720000000  0.5058340000000  0.5883230000000 1.0
C      1  0.5036490000000  0.5575360000000  0.5649310000000 1.0
C      1  0.4205140000000  0.5530100000000  0.4862300000000 1.0
C      1  0.5395660000000  0.5214550000000  0.4482540000000 1.0
C      1  0.4868330000000  0.4561300000000  0.4762100000000 1.0
C      1  0.4908050000000  0.5420320000000  0.4331410000000 1.0
C      1  0.4943660000000  0.5347920000000  0.5756020000000 1.0
C      1  0.4341000000000  0.5690490000000  0.4682430000000 1.0
C      1  0.5900610000000  0.5224180000000  0.4972240000000 1.0
C      1  0.5050280000000  0.5474470000000  0.4804110000000 1.0
C      1  0.4462640000000  0.4919590000000  0.5639160000000 1.0
C      1  0.5031380000000  0.4402090000000  0.5288230000000 1.0
C      1  0.5092740000000  0.4792890000000  0.5321050000000 1.0
C      1  0.4432140000000  0.4487830000000  0.4660320000000 1.0
C      1  0.4447050000000  0.4760640000000  0.4599000000000 1.0
C      1  0.4660310000000  0.4697170000000  0.4982130000000 1.0
C      1  0.5414320000000  0.4491190000000  0.5249620000000 1.0
C      1  0.5511170000000  0.5470140000000  0.5410040000000 1.0
C      1  0.4546360000000  0.4988140000000  0.4361580000000 1.0
C      1  0.5216200000000  0.4544930000000  0.5519930000000 1.0
C      1  0.5372080000000  0.4296190000000  0.4767100000000 1.0
C      1  0.4162170000000  0.5090160000000  0.5126420000000 1.0
C      1  0.4723880000000  0.5104930000000  0.5675810000000 1.0
C      1  0.4754100000000  0.5484130000000  0.4817280000000 1.0
C      1  0.5504930000000  0.4896230000000  0.4488340000000 1.0
C      1  0.5265820000000  0.4906440000000  0.4699820000000 1.0
C      1  0.5000400000000  0.4525430000000  0.4499990000000 1.0
C      1  0.5520280000000  0.4951860000000  0.5575640000000 1.0
C      1  0.4882150000000  0.5652570000000  0.5155620000000 1.0
C      1  0.5176490000000  0.4317310000000  0.4500230000000 1.0
C      1  0.5398050000000  0.5653090000000  0.5157300000000 1.0
C      1  0.4610930000000  0.4416870000000  0.5152470000000 1.0
C      1  0.4910070000000  0.5313310000000  0.5142350000000 1.0
C      1  0.5420460000000  0.5112340000000  0.5110370000000 1.0
C      1  0.5406020000000  0.5657840000000  0.4817020000000 1.0
C      1  0.5707130000000  0.4658070000000  0.4423280000000 1.0
C      1  0.5368860000000  0.5176500000000  0.5500240000000 1.0
C      1  0.5714990000000  0.4612060000000  0.5271250000000 1.0
C      1  0.5129100000000  0.5095090000000  0.5291290000000 1.0
C      1  0.4610530000000  0.5266360000000  0.4983100000000 1.0
C      1  0.4992930000000  0.4726040000000  0.4308060000000 1.0
C      1  0.5048190000000  0.4633880000000  0.5032890000000 1.0
C      1  0.5148920000000  0.5212870000000  0.4710780000000 1.0
C      1  0.4895700000000  0.4262570000000  0.5024540000000 1.0
C      1  0.5240250000000  0.4287640000000  0.5037240000000 1.0
C      1  0.5134780000000  0.5768920000000  0.4686630000000 1.0
C      1  0.4743730000000  0.4916630000000  0.4629410000000 1.0
C      1  0.4296090000000  0.5309240000000  0.5015180000000 1.0
C      1  0.5233470000000  0.5392770000000  0.5057210000000 1.0
C      1  0.4877600000000  0.4752330000000  0.5568100000000 1.0
C      1  0.4948920000000  0.5754920000000  0.5406720000000 1.0
C      1  0.4628880000000  0.4335180000000  0.4822770000000 1.0
C      1  0.4958340000000  0.4970860000000  0.4817700000000 1.0
END
