TITL C-2778431-5191-1034 -0.0013936991349998 125000 -352.314323705756 0 0 62 (C1) n - 1
REM
REM in /home/nfs/bkarasulu/CARBON/AIRSS/Generating-Clusters/REBO/Only-C1/SD-CG/HFTN-CG
REM
REM
REM
REM
REM
REM ./C.cell (11c1c37f851c82e70ff6c80c92926a4b)
REM
REM compiler GCC version 9.2.1 20190827 (Red Hat 9.2.1-1)
REM options -cpp -mtune=generic -march=x86-64 -g -O0 -fpre-include=/usr/include/finclude/math-vector-fortran.h
REM seed -914678991 1005627021 -648053289 1197629785 982072893 -1988814678 -249763970 -2045588949 947517534 174551538 -156474771 -1672986071 -258455259 1032110016 -314262000 -91536660 -1675762048 -1710165469 836210493 357993028 1028698072 157668367 695618575 -201155312 897778085 -2109436117 1059236501 1971418927 723516098 599700130 2125000443 2096666149 -853705436
REM
CELL 1.54180   50.00000   50.00000   50.00000   90.00000   90.00000   90.00000
LATT -1
SFAC C  
C      1  0.5181720000000  0.4307170000000  0.5047510000000 1.0
C      1  0.5051900000000  0.4286130000000  0.5326830000000 1.0
C      1  0.4511090000000  0.4741830000000  0.5603930000000 1.0
C      1  0.4588450000000  0.5668450000000  0.5103620000000 1.0
C      1  0.4784780000000  0.4633530000000  0.5707080000000 1.0
C      1  0.5652560000000  0.4800120000000  0.4483700000000 1.0
C      1  0.4711330000000  0.5399460000000  0.4399360000000 1.0
C      1  0.5768870000000  0.5195530000000  0.4862800000000 1.0
C      1  0.5105770000000  0.5613560000000  0.4593130000000 1.0
C      1  0.4614030000000  0.5194820000000  0.4577950000000 1.0
C      1  0.4712380000000  0.5656720000000  0.4532390000000 1.0
C      1  0.5484030000000  0.4558430000000  0.4976410000000 1.0
C      1  0.5223380000000  0.4376920000000  0.5523890000000 1.0
C      1  0.4805030000000  0.4395940000000  0.4649200000000 1.0
C      1  0.5493040000000  0.5598320000000  0.4940140000000 1.0
C      1  0.4864420000000  0.4986800000000  0.5040580000000 1.0
C      1  0.4950160000000  0.5319680000000  0.4247340000000 1.0
C      1  0.4721320000000  0.4820090000000  0.4852260000000 1.0
C      1  0.5728140000000  0.4926490000000  0.5225030000000 1.0
C      1  0.4999620000000  0.4801930000000  0.5648940000000 1.0
C      1  0.4557660000000  0.4439620000000  0.5124080000000 1.0
C      1  0.5367990000000  0.4308870000000  0.4770220000000 1.0
C      1  0.4799060000000  0.4500170000000  0.4377510000000 1.0
C      1  0.4387300000000  0.5309610000000  0.6097880000000 1.0
C      1  0.5036790000000  0.4270400000000  0.4746420000000 1.0
C      1  0.4912240000000  0.5068240000000  0.5620130000000 1.0
C      1  0.4396730000000  0.4614020000000  0.5309160000000 1.0
C      1  0.5491450000000  0.5152470000000  0.5308580000000 1.0
C      1  0.4685180000000  0.5955960000000  0.5017240000000 1.0
C      1  0.5042190000000  0.5465770000000  0.4897530000000 1.0
C      1  0.4597290000000  0.5070910000000  0.5637550000000 1.0
C      1  0.5721610000000  0.4715970000000  0.5092380000000 1.0
C      1  0.4332630000000  0.5437620000000  0.4900520000000 1.0
C      1  0.5399550000000  0.5284440000000  0.4515290000000 1.0
C      1  0.5467230000000  0.4585800000000  0.4644050000000 1.0
C      1  0.5466620000000  0.5017660000000  0.4405520000000 1.0
C      1  0.4561150000000  0.5303580000000  0.4845360000000 1.0
C      1  0.4973690000000  0.4855530000000  0.4431260000000 1.0
C      1  0.5177510000000  0.5442650000000  0.4380950000000 1.0
C      1  0.4655830000000  0.4538140000000  0.4861280000000 1.0
C      1  0.4783610000000  0.4708100000000  0.5314790000000 1.0
C      1  0.4735070000000  0.4938460000000  0.4595840000000 1.0
C      1  0.4516060000000  0.5455360000000  0.5255320000000 1.0
C      1  0.5492060000000  0.5145740000000  0.4989510000000 1.0
C      1  0.4861670000000  0.4712480000000  0.4158240000000 1.0
C      1  0.4806140000000  0.5261850000000  0.5001040000000 1.0
C      1  0.5612290000000  0.5429120000000  0.4735100000000 1.0
C      1  0.4506560000000  0.5214190000000  0.5359050000000 1.0
C      1  0.5256830000000  0.4799030000000  0.4501030000000 1.0
C      1  0.5065320000000  0.5278430000000  0.5512440000000 1.0
C      1  0.5035360000000  0.4824200000000  0.5219400000000 1.0
C      1  0.5260060000000  0.4698670000000  0.5524910000000 1.0
C      1  0.5263930000000  0.5548950000000  0.5123030000000 1.0
C      1  0.5255900000000  0.4603960000000  0.5196820000000 1.0
C      1  0.5276270000000  0.5367080000000  0.5345460000000 1.0
C      1  0.4950330000000  0.5041230000000  0.4164970000000 1.0
C      1  0.4791030000000  0.5688840000000  0.4834890000000 1.0
C      1  0.4483090000000  0.5200730000000  0.5887900000000 1.0
C      1  0.5276350000000  0.5231320000000  0.4815390000000 1.0
C      1  0.4520270000000  0.4915920000000  0.5279990000000 1.0
C      1  0.4791660000000  0.4398810000000  0.5324860000000 1.0
C      1  0.5478430000000  0.4918170000000  0.5535040000000 1.0
END
