TITL C-2778427-5640-260 0.00150757381793731 125000 -231.600252745017 0 0 40 (C1) n - 1
REM
REM in /home/nfs/bkarasulu/CARBON/AIRSS/Generating-Clusters/REBO/Only-C1/SD-CG/HFTN-CG
REM
REM
REM
REM
REM
REM ./C.cell (11c1c37f851c82e70ff6c80c92926a4b)
REM
REM compiler GCC version 9.2.1 20190827 (Red Hat 9.2.1-1)
REM options -cpp -mtune=generic -march=x86-64 -g -O0 -fpre-include=/usr/include/finclude/math-vector-fortran.h
REM seed 281960842 -73563618 41878702 -1919126079 1586580699 962074211 2111954073 1320037466 -2059633296 153176383 -395904425 -1827810458 564967467 -1895035971 1786271963 514064577 -992781751 129559519 2018252548 -1396601598 -894291289 -2052375284 4810840 -774223617 -287504612 -1366085360 1761141784 -1593957698 -16178099 338036293 -1492723375 -454088343 1328859866
REM
CELL 1.54180   50.00000   50.00000   50.00000   90.00000   90.00000   90.00000
LATT -1
SFAC C  
C      1  0.5009050000000  0.4575890000000  0.5110120000000 1.0
C      1  0.5474670000000  0.5374670000000  0.4972340000000 1.0
C      1  0.5468210000000  0.4545650000000  0.4948330000000 1.0
C      1  0.5224180000000  0.4985730000000  0.4845790000000 1.0
C      1  0.4965870000000  0.4340940000000  0.4491230000000 1.0
C      1  0.5012100000000  0.4769320000000  0.5558220000000 1.0
C      1  0.4280750000000  0.4709350000000  0.4825570000000 1.0
C      1  0.5108870000000  0.4310180000000  0.4717870000000 1.0
C      1  0.5122130000000  0.5212800000000  0.5062030000000 1.0
C      1  0.5131870000000  0.5726410000000  0.4966820000000 1.0
C      1  0.4598650000000  0.4683940000000  0.4350960000000 1.0
C      1  0.5095240000000  0.5486140000000  0.5387250000000 1.0
C      1  0.5101130000000  0.5237110000000  0.5567570000000 1.0
C      1  0.5518260000000  0.4831560000000  0.4864670000000 1.0
C      1  0.4777290000000  0.5023100000000  0.5256520000000 1.0
C      1  0.4904670000000  0.5033000000000  0.5634500000000 1.0
C      1  0.4393960000000  0.4877780000000  0.5022080000000 1.0
C      1  0.5601870000000  0.4824090000000  0.5538820000000 1.0
C      1  0.5277740000000  0.5531290000000  0.4814330000000 1.0
C      1  0.5122540000000  0.5387860000000  0.4602870000000 1.0
C      1  0.4352240000000  0.4733400000000  0.4554640000000 1.0
C      1  0.5353990000000  0.5309040000000  0.5268490000000 1.0
C      1  0.5029420000000  0.5702300000000  0.5222700000000 1.0
C      1  0.5618790000000  0.5159020000000  0.4860590000000 1.0
C      1  0.4610220000000  0.5006840000000  0.5552630000000 1.0
C      1  0.5407150000000  0.5102190000000  0.5504180000000 1.0
C      1  0.4484430000000  0.5136850000000  0.4920040000000 1.0
C      1  0.5520930000000  0.5032100000000  0.4585730000000 1.0
C      1  0.4788670000000  0.4484280000000  0.4347240000000 1.0
C      1  0.4544180000000  0.4786220000000  0.5299260000000 1.0
C      1  0.4668530000000  0.5258300000000  0.5105020000000 1.0
C      1  0.5290320000000  0.4786910000000  0.5544740000000 1.0
C      1  0.5201920000000  0.4438320000000  0.4951790000000 1.0
C      1  0.4884650000000  0.5383940000000  0.4970690000000 1.0
C      1  0.4848150000000  0.4642280000000  0.5355580000000 1.0
C      1  0.5234180000000  0.5126950000000  0.4545060000000 1.0
C      1  0.4589160000000  0.5193380000000  0.4645010000000 1.0
C      1  0.5020600000000  0.4893570000000  0.5097390000000 1.0
C      1  0.4531880000000  0.4987170000000  0.4456490000000 1.0
C      1  0.4831560000000  0.5370120000000  0.4674820000000 1.0
END
