TITL C-2778437-8639-1139 -0.000246564995091208 125000 -180.762660238773 0 0 32 (C1) n - 1
REM
REM in /home/nfs/bkarasulu/CARBON/AIRSS/Generating-Clusters/REBO/Only-C1/SD-CG/HFTN-CG
REM
REM
REM
REM
REM
REM ./C.cell (11c1c37f851c82e70ff6c80c92926a4b)
REM
REM compiler GCC version 9.2.1 20190827 (Red Hat 9.2.1-1)
REM options -cpp -mtune=generic -march=x86-64 -g -O0 -fpre-include=/usr/include/finclude/math-vector-fortran.h
REM seed 950035241 -1799024655 -1440968704 411623578 1656921388 -1915807795 951908288 -1751119513 2083548034 1174042625 723985065 1072805811 -2142742934 1391944760 365412585 1664410285 -445261920 -1392769017 -884392197 -1432840166 443674819 1721771622 971704047 1401058748 71323071 33540367 -1466511707 2004383604 2089083818 -622687016 222691837 -1459739527 -1046452770
REM
CELL 1.54180   50.00000   50.00000   50.00000   90.00000   90.00000   90.00000
LATT -1
SFAC C  
C      1  0.4243310000000  0.4553540000000  0.4553350000000 1.0
C      1  0.4860180000000  0.5719460000000  0.5140640000000 1.0
C      1  0.5757960000000  0.4172520000000  0.5116740000000 1.0
C      1  0.5070560000000  0.5845080000000  0.5368050000000 1.0
C      1  0.4929550000000  0.4455390000000  0.4972460000000 1.0
C      1  0.4468910000000  0.4521270000000  0.4691130000000 1.0
C      1  0.5001160000000  0.4717480000000  0.5484740000000 1.0
C      1  0.5765250000000  0.4034870000000  0.4881010000000 1.0
C      1  0.5072640000000  0.5265560000000  0.5399810000000 1.0
C      1  0.5311000000000  0.5972970000000  0.5228130000000 1.0
C      1  0.4988360000000  0.4574090000000  0.5241630000000 1.0
C      1  0.5372810000000  0.6172800000000  0.4754470000000 1.0
C      1  0.5427210000000  0.4521490000000  0.5453250000000 1.0
C      1  0.3792110000000  0.4618080000000  0.4277790000000 1.0
C      1  0.4743660000000  0.5791140000000  0.4905920000000 1.0
C      1  0.5188080000000  0.6168800000000  0.4555710000000 1.0
C      1  0.5133230000000  0.5009460000000  0.5471870000000 1.0
C      1  0.5561380000000  0.4021390000000  0.4697990000000 1.0
C      1  0.4017710000000  0.4585810000000  0.4415570000000 1.0
C      1  0.4694510000000  0.4489010000000  0.4828910000000 1.0
C      1  0.3570100000000  0.4649830000000  0.4142200000000 1.0
C      1  0.4987470000000  0.5964810000000  0.5604420000000 1.0
C      1  0.5409180000000  0.6091150000000  0.5009420000000 1.0
C      1  0.5315580000000  0.4138640000000  0.4712950000000 1.0
C      1  0.5588010000000  0.4324220000000  0.5248570000000 1.0
C      1  0.5369640000000  0.4833870000000  0.5574580000000 1.0
C      1  0.4765470000000  0.5917340000000  0.4667980000000 1.0
C      1  0.5200230000000  0.4572130000000  0.5699910000000 1.0
C      1  0.5274590000000  0.4415160000000  0.5168960000000 1.0
C      1  0.4938640000000  0.6066230000000  0.4521500000000 1.0
C      1  0.5168640000000  0.4298220000000  0.4881620000000 1.0
C      1  0.5012880000000  0.5518170000000  0.5328730000000 1.0
END
