TITL C-2778435-5768-693 -0.00134314717646636 125000 -594.673906299332 0 0 101 (C1) n - 1
REM
REM in /home/nfs/bkarasulu/CARBON/AIRSS/Generating-Clusters/REBO/Only-C1/SD-CG/HFTN-CG
REM
REM
REM
REM
REM
REM ./C.cell (11c1c37f851c82e70ff6c80c92926a4b)
REM
REM compiler GCC version 9.2.1 20190827 (Red Hat 9.2.1-1)
REM options -cpp -mtune=generic -march=x86-64 -g -O0 -fpre-include=/usr/include/finclude/math-vector-fortran.h
REM seed 1482367310 -1613252944 -573513093 1388080119 278157088 -79431170 1597239249 -1456059099 -215602502 1475532126 367242700 978516451 -1511540430 -680436749 475243628 -1328934292 -2025562788 1232317412 1086470509 270367335 163706130 1020069266 -1416837448 -268379153 599332723 628071204 1664007703 1365082111 1673777648 -682192752 -1518882762 -157830291 456185108
REM
CELL 1.54180   50.00000   50.00000   50.00000   90.00000   90.00000   90.00000
LATT -1
SFAC C  
C      1  0.4626400000000  0.4837330000000  0.6084700000000 1.0
C      1  0.4922550000000  0.5748950000000  0.4424960000000 1.0
C      1  0.5069570000000  0.4850070000000  0.4766600000000 1.0
C      1  0.4667240000000  0.5221420000000  0.4284930000000 1.0
C      1  0.5705060000000  0.4459470000000  0.5032120000000 1.0
C      1  0.4945040000000  0.4191300000000  0.5636140000000 1.0
C      1  0.5577580000000  0.5257690000000  0.4682250000000 1.0
C      1  0.4529980000000  0.5590930000000  0.5252340000000 1.0
C      1  0.4860290000000  0.5170250000000  0.5434970000000 1.0
C      1  0.5175480000000  0.4706200000000  0.4231010000000 1.0
C      1  0.5635270000000  0.4716380000000  0.4343680000000 1.0
C      1  0.4835170000000  0.4537310000000  0.5097010000000 1.0
C      1  0.4890440000000  0.5107460000000  0.4152500000000 1.0
C      1  0.5624650000000  0.5308370000000  0.4195960000000 1.0
C      1  0.5405450000000  0.5137990000000  0.4137380000000 1.0
C      1  0.5510110000000  0.4464850000000  0.4432690000000 1.0
C      1  0.4430440000000  0.5127160000000  0.5120630000000 1.0
C      1  0.5040470000000  0.4486280000000  0.5689950000000 1.0
C      1  0.5376510000000  0.4095080000000  0.5314960000000 1.0
C      1  0.4891750000000  0.5014510000000  0.4550530000000 1.0
C      1  0.4673310000000  0.5423580000000  0.4766140000000 1.0
C      1  0.5983650000000  0.5088210000000  0.4889750000000 1.0
C      1  0.5840630000000  0.5088340000000  0.4649930000000 1.0
C      1  0.5310030000000  0.5281170000000  0.5227160000000 1.0
C      1  0.4286770000000  0.4661310000000  0.4654050000000 1.0
C      1  0.5425980000000  0.4857510000000  0.4191850000000 1.0
C      1  0.4458540000000  0.4773300000000  0.5404710000000 1.0
C      1  0.4771750000000  0.4880600000000  0.5325110000000 1.0
C      1  0.5674940000000  0.4834550000000  0.4906470000000 1.0
C      1  0.4786880000000  0.4698840000000  0.5615530000000 1.0
C      1  0.4894630000000  0.5858390000000  0.4905430000000 1.0
C      1  0.5532300000000  0.5377720000000  0.4985540000000 1.0
C      1  0.5234000000000  0.4792420000000  0.5369880000000 1.0
C      1  0.5417180000000  0.5662690000000  0.4971490000000 1.0
C      1  0.5120180000000  0.4111110000000  0.5193270000000 1.0
C      1  0.4745830000000  0.4942240000000  0.5849780000000 1.0
C      1  0.5859150000000  0.4607120000000  0.4770520000000 1.0
C      1  0.4593870000000  0.4209340000000  0.4955790000000 1.0
C      1  0.5252220000000  0.4893310000000  0.5118450000000 1.0
C      1  0.5291330000000  0.4542290000000  0.5493290000000 1.0
C      1  0.5009870000000  0.5316360000000  0.4471930000000 1.0
C      1  0.4684800000000  0.5631480000000  0.4976740000000 1.0
C      1  0.5628240000000  0.5202230000000  0.5261730000000 1.0
C      1  0.5655830000000  0.5067930000000  0.5542410000000 1.0
C      1  0.5462740000000  0.4324600000000  0.5442650000000 1.0
C      1  0.4460970000000  0.5148310000000  0.4484510000000 1.0
C      1  0.4893140000000  0.4095560000000  0.5366340000000 1.0
C      1  0.4862000000000  0.4851450000000  0.5014890000000 1.0
C      1  0.4604870000000  0.4593540000000  0.4873030000000 1.0
C      1  0.4084210000000  0.5367060000000  0.4752750000000 1.0
C      1  0.4588320000000  0.5178470000000  0.5728010000000 1.0
C      1  0.4724390000000  0.5495800000000  0.4443660000000 1.0
C      1  0.5129890000000  0.5336070000000  0.5472210000000 1.0
C      1  0.5048170000000  0.5626740000000  0.5344270000000 1.0
C      1  0.4714620000000  0.5428970000000  0.5715520000000 1.0
C      1  0.5106400000000  0.5645920000000  0.5032190000000 1.0
C      1  0.4658750000000  0.4210260000000  0.5240910000000 1.0
C      1  0.4866250000000  0.5197160000000  0.4822290000000 1.0
C      1  0.4449810000000  0.5742800000000  0.4677100000000 1.0
C      1  0.4919880000000  0.4826520000000  0.4199060000000 1.0
C      1  0.4729170000000  0.5843070000000  0.4640900000000 1.0
C      1  0.5221000000000  0.4495240000000  0.4436290000000 1.0
C      1  0.5115370000000  0.5159770000000  0.5013620000000 1.0
C      1  0.4697270000000  0.4543510000000  0.4581780000000 1.0
C      1  0.4143550000000  0.4863320000000  0.5370080000000 1.0
C      1  0.4370790000000  0.5756370000000  0.5000230000000 1.0
C      1  0.5603530000000  0.5451330000000  0.4439950000000 1.0
C      1  0.4328900000000  0.4417130000000  0.4889970000000 1.0
C      1  0.4814870000000  0.4286300000000  0.4745170000000 1.0
C      1  0.5156050000000  0.5457390000000  0.4749740000000 1.0
C      1  0.4646630000000  0.4506160000000  0.5370050000000 1.0
C      1  0.5412920000000  0.4747690000000  0.4944280000000 1.0
C      1  0.5150010000000  0.5255660000000  0.4179610000000 1.0
C      1  0.5228690000000  0.5260740000000  0.5757210000000 1.0
C      1  0.5073290000000  0.4513910000000  0.4710940000000 1.0
C      1  0.5396390000000  0.4454580000000  0.4971530000000 1.0
C      1  0.5181880000000  0.5674680000000  0.4514330000000 1.0
C      1  0.5092100000000  0.4947300000000  0.5550760000000 1.0
C      1  0.5110800000000  0.4789700000000  0.5826530000000 1.0
C      1  0.4017350000000  0.4602240000000  0.5266210000000 1.0
C      1  0.5262900000000  0.5131660000000  0.4719530000000 1.0
C      1  0.3991780000000  0.5228680000000  0.4967410000000 1.0
C      1  0.4561240000000  0.4972000000000  0.4932650000000 1.0
C      1  0.5450650000000  0.5689530000000  0.4433850000000 1.0
C      1  0.4981210000000  0.5635790000000  0.5683290000000 1.0
C      1  0.4729500000000  0.5649250000000  0.5463280000000 1.0
C      1  0.5099590000000  0.4353850000000  0.5012190000000 1.0
C      1  0.5047690000000  0.5089200000000  0.5916320000000 1.0
C      1  0.5818950000000  0.4984330000000  0.5148130000000 1.0
C      1  0.4107890000000  0.4439260000000  0.5101540000000 1.0
C      1  0.4436910000000  0.4915760000000  0.4665280000000 1.0
C      1  0.4147260000000  0.5094030000000  0.5155560000000 1.0
C      1  0.4361470000000  0.5418600000000  0.4625010000000 1.0
C      1  0.5504470000000  0.5185740000000  0.5750220000000 1.0
C      1  0.5746920000000  0.4799390000000  0.5512900000000 1.0
C      1  0.4371870000000  0.5076330000000  0.5512770000000 1.0
C      1  0.4572070000000  0.5291530000000  0.5345430000000 1.0
C      1  0.5550030000000  0.5882970000000  0.4918820000000 1.0
C      1  0.5781570000000  0.4658810000000  0.5248760000000 1.0
C      1  0.4739250000000  0.4757180000000  0.4420170000000 1.0
C      1  0.5820470000000  0.4819750000000  0.4536080000000 1.0
END
