TITL C-2778424-3986-727 0.00290420211106568 125000 -178.222314964453 0 0 32 (C1) n - 1
REM
REM in /home/nfs/bkarasulu/CARBON/AIRSS/Generating-Clusters/REBO/Only-C1/SD-CG/HFTN-CG
REM
REM
REM
REM
REM
REM ./C.cell (11c1c37f851c82e70ff6c80c92926a4b)
REM
REM compiler GCC version 9.2.1 20190827 (Red Hat 9.2.1-1)
REM options -cpp -mtune=generic -march=x86-64 -g -O0 -fpre-include=/usr/include/finclude/math-vector-fortran.h
REM seed -484079294 1690556296 306438327 -1216085571 1769528849 -649932893 116261088 1784375233 -1352987224 1747004356 610735847 281788990 1674922709 295163959 1769329707 -1641014659 -472870303 -308809384 -1049667625 348377271 -494142517 1153824998 -1457979182 1968933497 -1541688422 694530408 1385327719 -1755563725 2104479197 -1265804664 680792654 1928023153 -1469313750
REM
CELL 1.54180   50.00000   50.00000   50.00000   90.00000   90.00000   90.00000
LATT -1
SFAC C  
C      1  0.4720840000000  0.5191190000000  0.4691190000000 1.0
C      1  0.5054840000000  0.4994480000000  0.5393130000000 1.0
C      1  0.4497170000000  0.4958560000000  0.4774080000000 1.0
C      1  0.4679680000000  0.4686520000000  0.5220900000000 1.0
C      1  0.4614470000000  0.4679150000000  0.4930380000000 1.0
C      1  0.5598390000000  0.4756480000000  0.5041890000000 1.0
C      1  0.4330490000000  0.5127760000000  0.5001110000000 1.0
C      1  0.5146610000000  0.5319670000000  0.5043550000000 1.0
C      1  0.5090200000000  0.4662600000000  0.4688020000000 1.0
C      1  0.5693430000000  0.5008750000000  0.5548530000000 1.0
C      1  0.4541810000000  0.4670550000000  0.4598510000000 1.0
C      1  0.5111500000000  0.4353910000000  0.4780140000000 1.0
C      1  0.4726850000000  0.5173650000000  0.5251980000000 1.0
C      1  0.5346130000000  0.4306440000000  0.4906210000000 1.0
C      1  0.4924260000000  0.5601790000000  0.4871110000000 1.0
C      1  0.4451890000000  0.5101990000000  0.5261170000000 1.0
C      1  0.4972690000000  0.5397530000000  0.4671680000000 1.0
C      1  0.5216860000000  0.5246130000000  0.4657360000000 1.0
C      1  0.4870530000000  0.5189190000000  0.4996810000000 1.0
C      1  0.5578520000000  0.4965260000000  0.5310260000000 1.0
C      1  0.5217340000000  0.4836360000000  0.4951740000000 1.0
C      1  0.5404730000000  0.5283090000000  0.4897580000000 1.0
C      1  0.4498510000000  0.5345350000000  0.4875490000000 1.0
C      1  0.5266830000000  0.4937690000000  0.5206270000000 1.0
C      1  0.4643400000000  0.5550760000000  0.5017330000000 1.0
C      1  0.5572660000000  0.5077780000000  0.4990320000000 1.0
C      1  0.4952750000000  0.5283440000000  0.5444990000000 1.0
C      1  0.4927100000000  0.5523980000000  0.5205750000000 1.0
C      1  0.4810570000000  0.4502770000000  0.4722140000000 1.0
C      1  0.5528230000000  0.4496680000000  0.4985230000000 1.0
C      1  0.5162910000000  0.4971190000000  0.4667890000000 1.0
C      1  0.4847820000000  0.4799350000000  0.5397250000000 1.0
END
