TITL C-2778430-5657-1068 -0.00272249082336495 125000 -361.627279663996 0 0 62 (C1) n - 1
REM
REM in /home/nfs/bkarasulu/CARBON/AIRSS/Generating-Clusters/REBO/Only-C1/SD-CG/HFTN-CG
REM
REM
REM
REM
REM
REM ./C.cell (11c1c37f851c82e70ff6c80c92926a4b)
REM
REM compiler GCC version 9.2.1 20190827 (Red Hat 9.2.1-1)
REM options -cpp -mtune=generic -march=x86-64 -g -O0 -fpre-include=/usr/include/finclude/math-vector-fortran.h
REM seed -217216765 1860302724 -1901354789 -958884747 2044546353 -1341177363 1529355061 -1507786722 -771322950 -2048757303 869417684 -704459350 -2067686097 268544498 700519809 -1835093243 1461541188 -128906947 530323244 265063109 -1963568153 901477253 -921352708 2068323631 1868028713 -2088024827 1082447522 -440096793 -161521998 -1112289487 107577193 -1596931751 -1180596475
REM
CELL 1.54180   50.00000   50.00000   50.00000   90.00000   90.00000   90.00000
LATT -1
SFAC C  
C      1  0.5370000000000  0.4799370000000  0.4693820000000 1.0
C      1  0.4151390000000  0.5001720000000  0.4979510000000 1.0
C      1  0.4668590000000  0.4488180000000  0.4454430000000 1.0
C      1  0.4386770000000  0.4600190000000  0.5357980000000 1.0
C      1  0.5142410000000  0.5704210000000  0.5346140000000 1.0
C      1  0.4525830000000  0.5170100000000  0.5232120000000 1.0
C      1  0.4803280000000  0.4703290000000  0.4286960000000 1.0
C      1  0.5603830000000  0.4938590000000  0.5137630000000 1.0
C      1  0.4774030000000  0.4382320000000  0.5193440000000 1.0
C      1  0.4265970000000  0.5048260000000  0.5237430000000 1.0
C      1  0.5092810000000  0.4965110000000  0.5150030000000 1.0
C      1  0.5056950000000  0.5629430000000  0.4830510000000 1.0
C      1  0.5360130000000  0.5690940000000  0.4760010000000 1.0
C      1  0.5230480000000  0.4379910000000  0.5088140000000 1.0
C      1  0.5164330000000  0.4408930000000  0.4828280000000 1.0
C      1  0.5725090000000  0.5446870000000  0.5052980000000 1.0
C      1  0.4599160000000  0.5351940000000  0.5432800000000 1.0
C      1  0.4869920000000  0.5555150000000  0.4617090000000 1.0
C      1  0.5006340000000  0.5537460000000  0.5124490000000 1.0
C      1  0.4795350000000  0.5431770000000  0.5607310000000 1.0
C      1  0.5348680000000  0.4963220000000  0.4952700000000 1.0
C      1  0.5814750000000  0.5000320000000  0.4893710000000 1.0
C      1  0.5591390000000  0.5369740000000  0.5329470000000 1.0
C      1  0.5320910000000  0.5779520000000  0.5086730000000 1.0
C      1  0.4623570000000  0.5418720000000  0.4744570000000 1.0
C      1  0.5577760000000  0.4607570000000  0.4696280000000 1.0
C      1  0.4988590000000  0.5270770000000  0.5257600000000 1.0
C      1  0.4888540000000  0.5263460000000  0.4489250000000 1.0
C      1  0.5570690000000  0.5496300000000  0.4689940000000 1.0
C      1  0.4675390000000  0.4566440000000  0.5393850000000 1.0
C      1  0.5770460000000  0.4663430000000  0.4907190000000 1.0
C      1  0.4274230000000  0.4851360000000  0.4769850000000 1.0
C      1  0.4849210000000  0.5261050000000  0.4885620000000 1.0
C      1  0.5227700000000  0.4930060000000  0.4491660000000 1.0
C      1  0.4336520000000  0.4576210000000  0.4837870000000 1.0
C      1  0.5539060000000  0.5100930000000  0.5378680000000 1.0
C      1  0.4250360000000  0.4839090000000  0.5431330000000 1.0
C      1  0.4792140000000  0.4505770000000  0.4937280000000 1.0
C      1  0.4588480000000  0.4482670000000  0.4731390000000 1.0
C      1  0.5266910000000  0.5035990000000  0.5422770000000 1.0
C      1  0.4357710000000  0.5426490000000  0.4732620000000 1.0
C      1  0.5395130000000  0.5462230000000  0.5082960000000 1.0
C      1  0.5086530000000  0.5564530000000  0.5591710000000 1.0
C      1  0.4285600000000  0.4492620000000  0.5108930000000 1.0
C      1  0.5616860000000  0.4627950000000  0.5205460000000 1.0
C      1  0.5034050000000  0.4532550000000  0.4610130000000 1.0
C      1  0.4719320000000  0.5065090000000  0.5049220000000 1.0
C      1  0.4874210000000  0.4805190000000  0.4986790000000 1.0
C      1  0.4454260000000  0.4980110000000  0.4587760000000 1.0
C      1  0.4871490000000  0.5053720000000  0.5471060000000 1.0
C      1  0.5054560000000  0.4812100000000  0.4301580000000 1.0
C      1  0.4898170000000  0.4781960000000  0.4668330000000 1.0
C      1  0.4880650000000  0.4762570000000  0.5473980000000 1.0
C      1  0.5192280000000  0.5261420000000  0.4902720000000 1.0
C      1  0.5175740000000  0.4921020000000  0.5691900000000 1.0
C      1  0.5155200000000  0.5189910000000  0.4578970000000 1.0
C      1  0.5180600000000  0.4652940000000  0.5492230000000 1.0
C      1  0.5358110000000  0.4526520000000  0.5295390000000 1.0
C      1  0.5054870000000  0.5239010000000  0.5692890000000 1.0
C      1  0.4945850000000  0.4344010000000  0.4385790000000 1.0
C      1  0.5785580000000  0.5276560000000  0.4810610000000 1.0
C      1  0.4735190000000  0.5005170000000  0.4540120000000 1.0
END
