TITL C-2778428-5639-772 0.00234539661778731 125000 -710.793957837864 0 0 123 (C1) n - 1
REM
REM in /home/nfs/bkarasulu/CARBON/AIRSS/Generating-Clusters/REBO/Only-C1/SD-CG/HFTN-CG
REM
REM
REM
REM
REM
REM ./C.cell (11c1c37f851c82e70ff6c80c92926a4b)
REM
REM compiler GCC version 9.2.1 20190827 (Red Hat 9.2.1-1)
REM options -cpp -mtune=generic -march=x86-64 -g -O0 -fpre-include=/usr/include/finclude/math-vector-fortran.h
REM seed 371857548 571798836 1000018818 989195778 -1871930801 638006316 -884183458 929416701 -337840344 173890701 -1402307536 1438452256 -1721550787 -1662995122 -1137887516 -1853905203 -773953672 1119520214 -1004788137 1511364016 1770647355 -1753700267 -1787435025 932788783 -1596383364 -1937105560 377463789 780713602 1287711199 1371587228 -1248030974 1049663964 -1097356319
REM
CELL 1.54180   50.00000   50.00000   50.00000   90.00000   90.00000   90.00000
LATT -1
SFAC C  
C      1  0.5345370000000  0.4391650000000  0.4735390000000 1.0
C      1  0.4636710000000  0.5344310000000  0.5573010000000 1.0
C      1  0.4293900000000  0.5000260000000  0.5192940000000 1.0
C      1  0.5266460000000  0.4256720000000  0.5385080000000 1.0
C      1  0.5023640000000  0.5410440000000  0.5937170000000 1.0
C      1  0.4496010000000  0.5228340000000  0.4489460000000 1.0
C      1  0.5595680000000  0.4620890000000  0.4387890000000 1.0
C      1  0.4599640000000  0.5695020000000  0.4340290000000 1.0
C      1  0.3892260000000  0.5371080000000  0.5012140000000 1.0
C      1  0.4739640000000  0.4703220000000  0.4230540000000 1.0
C      1  0.5181130000000  0.5876810000000  0.5071330000000 1.0
C      1  0.4198140000000  0.5232670000000  0.4367310000000 1.0
C      1  0.5351890000000  0.4514770000000  0.4239580000000 1.0
C      1  0.4896250000000  0.5183030000000  0.3995780000000 1.0
C      1  0.4991940000000  0.4880350000000  0.5543180000000 1.0
C      1  0.5875650000000  0.5230980000000  0.4852190000000 1.0
C      1  0.5744150000000  0.5218230000000  0.5709150000000 1.0
C      1  0.4429910000000  0.5481550000000  0.5419270000000 1.0
C      1  0.4646170000000  0.4612400000000  0.5226680000000 1.0
C      1  0.5250870000000  0.5155340000000  0.5929180000000 1.0
C      1  0.5368030000000  0.4492670000000  0.5566700000000 1.0
C      1  0.5344640000000  0.5334140000000  0.4063190000000 1.0
C      1  0.4664820000000  0.4175970000000  0.4649130000000 1.0
C      1  0.4633660000000  0.4722590000000  0.5710440000000 1.0
C      1  0.5079360000000  0.5084870000000  0.4427540000000 1.0
C      1  0.5654180000000  0.4569290000000  0.5504400000000 1.0
C      1  0.4085530000000  0.4774770000000  0.5043840000000 1.0
C      1  0.5641520000000  0.4476790000000  0.4640120000000 1.0
C      1  0.3977690000000  0.5329180000000  0.4513580000000 1.0
C      1  0.6107410000000  0.5066080000000  0.4813980000000 1.0
C      1  0.6060930000000  0.4771220000000  0.5187750000000 1.0
C      1  0.4471460000000  0.5121390000000  0.4928180000000 1.0
C      1  0.4699800000000  0.5631250000000  0.4815670000000 1.0
C      1  0.5005580000000  0.5429650000000  0.5169920000000 1.0
C      1  0.4605080000000  0.3763610000000  0.4981320000000 1.0
C      1  0.5192810000000  0.5804870000000  0.4792360000000 1.0
C      1  0.5795230000000  0.5492840000000  0.5309540000000 1.0
C      1  0.5268140000000  0.4918150000000  0.4656940000000 1.0
C      1  0.6362110000000  0.5159440000000  0.4753970000000 1.0
C      1  0.5459230000000  0.5294970000000  0.4611520000000 1.0
C      1  0.4499120000000  0.4260570000000  0.4411610000000 1.0
C      1  0.4950350000000  0.5738440000000  0.5220710000000 1.0
C      1  0.4167370000000  0.5011090000000  0.4818380000000 1.0
C      1  0.4450250000000  0.5700400000000  0.5234660000000 1.0
C      1  0.4937640000000  0.5788280000000  0.5515740000000 1.0
C      1  0.4633970000000  0.4858950000000  0.4475490000000 1.0
C      1  0.5281840000000  0.4978200000000  0.5563910000000 1.0
C      1  0.4529820000000  0.4550620000000  0.4849860000000 1.0
C      1  0.5356680000000  0.5057680000000  0.5291280000000 1.0
C      1  0.4841430000000  0.4555620000000  0.4969210000000 1.0
C      1  0.4920210000000  0.4598020000000  0.5847700000000 1.0
C      1  0.4772350000000  0.5276840000000  0.4984500000000 1.0
C      1  0.5368820000000  0.5479060000000  0.5568770000000 1.0
C      1  0.4212590000000  0.4507050000000  0.4943270000000 1.0
C      1  0.4620380000000  0.4842120000000  0.4799590000000 1.0
C      1  0.4957980000000  0.4003250000000  0.4637110000000 1.0
C      1  0.5107200000000  0.4849600000000  0.5981910000000 1.0
C      1  0.4578960000000  0.4905600000000  0.5324520000000 1.0
C      1  0.4797020000000  0.4949020000000  0.5073300000000 1.0
C      1  0.5874890000000  0.5262440000000  0.5460130000000 1.0
C      1  0.5256590000000  0.4576270000000  0.5851560000000 1.0
C      1  0.5127860000000  0.4434420000000  0.4482990000000 1.0
C      1  0.5435950000000  0.4837120000000  0.5756500000000 1.0
C      1  0.5697580000000  0.4845070000000  0.5841860000000 1.0
C      1  0.5036150000000  0.5908880000000  0.4318380000000 1.0
C      1  0.5436840000000  0.5020910000000  0.4158140000000 1.0
C      1  0.4987200000000  0.4998360000000  0.4802450000000 1.0
C      1  0.4938000000000  0.4201670000000  0.4983510000000 1.0
C      1  0.4899320000000  0.4976390000000  0.4178110000000 1.0
C      1  0.5480860000000  0.5265320000000  0.5757580000000 1.0
C      1  0.4368830000000  0.4988200000000  0.5583940000000 1.0
C      1  0.4410370000000  0.4386980000000  0.5193260000000 1.0
C      1  0.4743850000000  0.5043010000000  0.5674940000000 1.0
C      1  0.4919990000000  0.4394410000000  0.4702450000000 1.0
C      1  0.5171130000000  0.4647580000000  0.5369180000000 1.0
C      1  0.5571690000000  0.5645790000000  0.5400460000000 1.0
C      1  0.4519390000000  0.5672530000000  0.4603000000000 1.0
C      1  0.4522250000000  0.4499960000000  0.4203710000000 1.0
C      1  0.4911990000000  0.5103520000000  0.5928360000000 1.0
C      1  0.5025620000000  0.4600110000000  0.4214600000000 1.0
C      1  0.5542290000000  0.4925640000000  0.4461170000000 1.0
C      1  0.5788740000000  0.5440040000000  0.5015310000000 1.0
C      1  0.5295140000000  0.5492000000000  0.4775430000000 1.0
C      1  0.4759520000000  0.3967310000000  0.4982270000000 1.0
C      1  0.4769930000000  0.4436160000000  0.5591510000000 1.0
C      1  0.5153480000000  0.4182120000000  0.5181840000000 1.0
C      1  0.5068610000000  0.5391570000000  0.4093260000000 1.0
C      1  0.5160200000000  0.5952530000000  0.4558430000000 1.0
C      1  0.6602370000000  0.5247490000000  0.4697360000000 1.0
C      1  0.5476400000000  0.5509260000000  0.5037370000000 1.0
C      1  0.4958330000000  0.5446160000000  0.4752180000000 1.0
C      1  0.4787250000000  0.5129200000000  0.4578390000000 1.0
C      1  0.5717750000000  0.4934160000000  0.5067260000000 1.0
C      1  0.5775700000000  0.4695700000000  0.5309500000000 1.0
C      1  0.5268010000000  0.4786810000000  0.4065340000000 1.0
C      1  0.5303720000000  0.5357330000000  0.5258940000000 1.0
C      1  0.4162950000000  0.5389370000000  0.5460690000000 1.0
C      1  0.4293910000000  0.4513340000000  0.4431960000000 1.0
C      1  0.5404090000000  0.4704450000000  0.4863310000000 1.0
C      1  0.4230720000000  0.5853600000000  0.5182090000000 1.0
C      1  0.5624330000000  0.5062030000000  0.4763310000000 1.0
C      1  0.4683550000000  0.5724670000000  0.5076380000000 1.0
C      1  0.4197030000000  0.4705930000000  0.4666710000000 1.0
C      1  0.4308490000000  0.4667710000000  0.5618160000000 1.0
C      1  0.4168090000000  0.5163500000000  0.5625510000000 1.0
C      1  0.5947300000000  0.5050260000000  0.5295480000000 1.0
C      1  0.5012390000000  0.5420010000000  0.4427450000000 1.0
C      1  0.4458830000000  0.4412010000000  0.5513950000000 1.0
C      1  0.5147690000000  0.5615390000000  0.5704820000000 1.0
C      1  0.5492670000000  0.5301490000000  0.4336680000000 1.0
C      1  0.5186890000000  0.4097280000000  0.4688640000000 1.0
C      1  0.5432650000000  0.5800630000000  0.5187340000000 1.0
C      1  0.5326780000000  0.4799990000000  0.5142320000000 1.0
C      1  0.4104410000000  0.4780110000000  0.5374290000000 1.0
C      1  0.4927470000000  0.4478190000000  0.5326730000000 1.0
C      1  0.4462320000000  0.4220860000000  0.4900810000000 1.0
C      1  0.4318680000000  0.4932840000000  0.4457590000000 1.0
C      1  0.4816580000000  0.5544220000000  0.5709330000000 1.0
C      1  0.3966200000000  0.5433100000000  0.5264900000000 1.0
C      1  0.3970740000000  0.5236970000000  0.4780380000000 1.0
C      1  0.4877810000000  0.5675950000000  0.4288500000000 1.0
C      1  0.5747430000000  0.4688820000000  0.4837410000000 1.0
C      1  0.6049610000000  0.4792610000000  0.4895430000000 1.0
END
