TITL C-2778436-5916-88 -0.00162588442739201 125000 -1000.61516318494 0 0 171 (C1) n - 1
REM
REM in /home/nfs/bkarasulu/CARBON/AIRSS/Generating-Clusters/REBO/Only-C1/SD-CG/HFTN-CG
REM
REM
REM
REM
REM
REM ./C.cell (11c1c37f851c82e70ff6c80c92926a4b)
REM
REM compiler GCC version 9.2.1 20190827 (Red Hat 9.2.1-1)
REM options -cpp -mtune=generic -march=x86-64 -g -O0 -fpre-include=/usr/include/finclude/math-vector-fortran.h
REM seed -1619272696 1459118332 -370730287 -691454470 -536109866 -1573866887 -1180443618 384790441 -1454405189 -2060035588 319704683 474608721 -373834618 1961078593 -483076324 -744939644 2117036471 1493725025 -707471400 -162736827 -1965770428 -1207107188 1934104768 -1873771001 -50005329 879658468 1335519671 1090690910 1229766380 1946554554 -314925349 549419904 -351505530
REM
CELL 1.54180   50.00000   50.00000   50.00000   90.00000   90.00000   90.00000
LATT -1
SFAC C  
C      1  0.5133750000000  0.4677790000000  0.4732920000000 1.0
C      1  0.4342430000000  0.5597480000000  0.5339820000000 1.0
C      1  0.5275460000000  0.4220790000000  0.4623980000000 1.0
C      1  0.5292010000000  0.5779140000000  0.5631660000000 1.0
C      1  0.5876580000000  0.5491570000000  0.5411090000000 1.0
C      1  0.4981660000000  0.4645350000000  0.5470680000000 1.0
C      1  0.5960960000000  0.4893600000000  0.4526420000000 1.0
C      1  0.5282490000000  0.5602960000000  0.5121300000000 1.0
C      1  0.4092550000000  0.5492830000000  0.5480350000000 1.0
C      1  0.4539760000000  0.5149390000000  0.4394020000000 1.0
C      1  0.4615000000000  0.5128690000000  0.5965960000000 1.0
C      1  0.4330520000000  0.5504620000000  0.5040320000000 1.0
C      1  0.5289910000000  0.4370090000000  0.4932120000000 1.0
C      1  0.4392560000000  0.5275050000000  0.5767650000000 1.0
C      1  0.5304430000000  0.6089630000000  0.5046230000000 1.0
C      1  0.5470240000000  0.4637550000000  0.4701530000000 1.0
C      1  0.5752870000000  0.5104700000000  0.5787120000000 1.0
C      1  0.4538510000000  0.5308950000000  0.4929550000000 1.0
C      1  0.5151550000000  0.4902210000000  0.5544650000000 1.0
C      1  0.5660840000000  0.5865010000000  0.4793100000000 1.0
C      1  0.4851000000000  0.4841620000000  0.5105920000000 1.0
C      1  0.4938670000000  0.4221790000000  0.5542580000000 1.0
C      1  0.4913200000000  0.5019040000000  0.5352570000000 1.0
C      1  0.4417930000000  0.5003840000000  0.4873980000000 1.0
C      1  0.5294020000000  0.5173330000000  0.5626480000000 1.0
C      1  0.4839490000000  0.5309880000000  0.5057550000000 1.0
C      1  0.5615800000000  0.5063460000000  0.4954430000000 1.0
C      1  0.4931090000000  0.4439690000000  0.4483460000000 1.0
C      1  0.4052140000000  0.5435170000000  0.4888490000000 1.0
C      1  0.4293930000000  0.6106490000000  0.4363130000000 1.0
C      1  0.5262150000000  0.5762580000000  0.4506750000000 1.0
C      1  0.5888790000000  0.5701990000000  0.5217630000000 1.0
C      1  0.4052940000000  0.4942670000000  0.5081350000000 1.0
C      1  0.4323830000000  0.5837480000000  0.5022010000000 1.0
C      1  0.5332720000000  0.4079140000000  0.5198290000000 1.0
C      1  0.4580970000000  0.4890390000000  0.3971680000000 1.0
C      1  0.4779260000000  0.4213120000000  0.4918010000000 1.0
C      1  0.3916270000000  0.5331010000000  0.5344590000000 1.0
C      1  0.5859430000000  0.5638910000000  0.4908310000000 1.0
C      1  0.4185230000000  0.5714080000000  0.4736910000000 1.0
C      1  0.5047380000000  0.5588250000000  0.4680480000000 1.0
C      1  0.5782860000000  0.4481120000000  0.5115730000000 1.0
C      1  0.4860940000000  0.5591400000000  0.4327710000000 1.0
C      1  0.5636130000000  0.4201420000000  0.5146170000000 1.0
C      1  0.5478780000000  0.4824930000000  0.5243700000000 1.0
C      1  0.4586370000000  0.4576280000000  0.4256280000000 1.0
C      1  0.4787120000000  0.5427070000000  0.4036280000000 1.0
C      1  0.5190160000000  0.5134990000000  0.4198140000000 1.0
C      1  0.5929970000000  0.5124020000000  0.5043620000000 1.0
C      1  0.4501450000000  0.4521810000000  0.4941700000000 1.0
C      1  0.4405490000000  0.5898170000000  0.4550330000000 1.0
C      1  0.4664790000000  0.5019550000000  0.5581080000000 1.0
C      1  0.4376220000000  0.5099030000000  0.5477150000000 1.0
C      1  0.5393110000000  0.5367230000000  0.5955710000000 1.0
C      1  0.5098320000000  0.5084470000000  0.4663350000000 1.0
C      1  0.5451780000000  0.5325600000000  0.5210020000000 1.0
C      1  0.4839230000000  0.5325790000000  0.5397820000000 1.0
C      1  0.4856620000000  0.3961870000000  0.4426310000000 1.0
C      1  0.4956430000000  0.5197810000000  0.3854350000000 1.0
C      1  0.5021420000000  0.5563730000000  0.4966780000000 1.0
C      1  0.5043580000000  0.5065160000000  0.4963090000000 1.0
C      1  0.4683010000000  0.5567390000000  0.5325390000000 1.0
C      1  0.4896370000000  0.4423800000000  0.5789920000000 1.0
C      1  0.3930910000000  0.4962200000000  0.4602980000000 1.0
C      1  0.4902510000000  0.5202930000000  0.4249110000000 1.0
C      1  0.4222090000000  0.4736500000000  0.5529850000000 1.0
C      1  0.5415450000000  0.4466550000000  0.5889540000000 1.0
C      1  0.5596940000000  0.4282820000000  0.4374140000000 1.0
C      1  0.4562960000000  0.5441090000000  0.4295670000000 1.0
C      1  0.4802420000000  0.5720340000000  0.5106780000000 1.0
C      1  0.4898250000000  0.3911130000000  0.4938240000000 1.0
C      1  0.4968600000000  0.5337020000000  0.4530080000000 1.0
C      1  0.4910760000000  0.5276970000000  0.6018290000000 1.0
C      1  0.4557720000000  0.4801970000000  0.5071100000000 1.0
C      1  0.4253370000000  0.4273960000000  0.5129180000000 1.0
C      1  0.4722120000000  0.4714580000000  0.5577900000000 1.0
C      1  0.4296020000000  0.5335410000000  0.4681290000000 1.0
C      1  0.4932150000000  0.5696230000000  0.5630170000000 1.0
C      1  0.4325940000000  0.4934750000000  0.5773920000000 1.0
C      1  0.5130150000000  0.4100330000000  0.5765190000000 1.0
C      1  0.6027920000000  0.4816790000000  0.5432570000000 1.0
C      1  0.5119190000000  0.4305900000000  0.5313930000000 1.0
C      1  0.5536340000000  0.5202380000000  0.4017890000000 1.0
C      1  0.5990030000000  0.4649010000000  0.4943770000000 1.0
C      1  0.6182130000000  0.5037340000000  0.4640150000000 1.0
C      1  0.5508540000000  0.4961850000000  0.5714330000000 1.0
C      1  0.5381790000000  0.4211660000000  0.5752730000000 1.0
C      1  0.5167920000000  0.4895660000000  0.4405050000000 1.0
C      1  0.4907270000000  0.4699000000000  0.5930780000000 1.0
C      1  0.5353340000000  0.5238600000000  0.4483180000000 1.0
C      1  0.5749320000000  0.5250780000000  0.5290950000000 1.0
C      1  0.4637640000000  0.4505810000000  0.4646530000000 1.0
C      1  0.5049660000000  0.4164950000000  0.4378500000000 1.0
C      1  0.3740900000000  0.4750240000000  0.4787140000000 1.0
C      1  0.5080290000000  0.5914080000000  0.5440720000000 1.0
C      1  0.4991470000000  0.4570990000000  0.5170140000000 1.0
C      1  0.5579110000000  0.6020970000000  0.5029050000000 1.0
C      1  0.4979070000000  0.4402050000000  0.4818930000000 1.0
C      1  0.4431430000000  0.5558020000000  0.5744190000000 1.0
C      1  0.4220080000000  0.4837040000000  0.4662830000000 1.0
C      1  0.4003090000000  0.4663360000000  0.5278990000000 1.0
C      1  0.4983450000000  0.4658500000000  0.4297440000000 1.0
C      1  0.4436970000000  0.4305870000000  0.5591630000000 1.0
C      1  0.5728710000000  0.4951500000000  0.5381060000000 1.0
C      1  0.4371740000000  0.5580150000000  0.4481760000000 1.0
C      1  0.5379950000000  0.4501160000000  0.5210150000000 1.0
C      1  0.4208230000000  0.4664180000000  0.4936900000000 1.0
C      1  0.5452540000000  0.4780710000000  0.4440540000000 1.0
C      1  0.6064860000000  0.4867550000000  0.5121260000000 1.0
C      1  0.5973880000000  0.5455730000000  0.4704190000000 1.0
C      1  0.4485010000000  0.5909600000000  0.5314880000000 1.0
C      1  0.5260490000000  0.5200910000000  0.3878800000000 1.0
C      1  0.4242670000000  0.4447380000000  0.4581470000000 1.0
C      1  0.4747200000000  0.3911760000000  0.5203840000000 1.0
C      1  0.4197330000000  0.4267010000000  0.4849530000000 1.0
C      1  0.5158830000000  0.5887290000000  0.5176970000000 1.0
C      1  0.4189470000000  0.5111240000000  0.4207530000000 1.0
C      1  0.5786270000000  0.5377980000000  0.4482710000000 1.0
C      1  0.5694370000000  0.4405810000000  0.4636360000000 1.0
C      1  0.5573670000000  0.5807130000000  0.5556420000000 1.0
C      1  0.4591950000000  0.4811980000000  0.5942300000000 1.0
C      1  0.5349510000000  0.4660660000000  0.4138320000000 1.0
C      1  0.4575980000000  0.4267800000000  0.5142700000000 1.0
C      1  0.5179270000000  0.5479400000000  0.5722140000000 1.0
C      1  0.6098760000000  0.5237390000000  0.4821200000000 1.0
C      1  0.5504840000000  0.5306120000000  0.4752220000000 1.0
C      1  0.5777370000000  0.5081540000000  0.4387530000000 1.0
C      1  0.5192940000000  0.4039970000000  0.4903750000000 1.0
C      1  0.4702040000000  0.3986220000000  0.4670610000000 1.0
C      1  0.5906520000000  0.4648330000000  0.4669010000000 1.0
C      1  0.4664840000000  0.4147400000000  0.5426210000000 1.0
C      1  0.4575040000000  0.4512320000000  0.5778510000000 1.0
C      1  0.5598810000000  0.4722750000000  0.4958850000000 1.0
C      1  0.5500510000000  0.4670950000000  0.5708180000000 1.0
C      1  0.4929540000000  0.5854730000000  0.4531230000000 1.0
C      1  0.5738340000000  0.5579670000000  0.5654000000000 1.0
C      1  0.5665810000000  0.5375300000000  0.5851450000000 1.0
C      1  0.5565970000000  0.5527460000000  0.4980700000000 1.0
C      1  0.4609760000000  0.5746260000000  0.5591920000000 1.0
C      1  0.5053100000000  0.4742740000000  0.3993120000000 1.0
C      1  0.5686060000000  0.5904530000000  0.5287040000000 1.0
C      1  0.5579990000000  0.4917070000000  0.4163910000000 1.0
C      1  0.4359990000000  0.4888260000000  0.4151340000000 1.0
C      1  0.4856150000000  0.4927560000000  0.3891580000000 1.0
C      1  0.4778850000000  0.4917900000000  0.4317590000000 1.0
C      1  0.4628510000000  0.5948760000000  0.4999300000000 1.0
C      1  0.4320420000000  0.4901950000000  0.5247720000000 1.0
C      1  0.5308330000000  0.5064930000000  0.5113570000000 1.0
C      1  0.4788230000000  0.5294580000000  0.5715580000000 1.0
C      1  0.5594860000000  0.4515280000000  0.5466360000000 1.0
C      1  0.5120800000000  0.4891760000000  0.5869150000000 1.0
C      1  0.5400110000000  0.5664040000000  0.4229250000000 1.0
C      1  0.3945820000000  0.5224430000000  0.5091180000000 1.0
C      1  0.4351140000000  0.4683380000000  0.4403510000000 1.0
C      1  0.5345730000000  0.4508860000000  0.6148140000000 1.0
C      1  0.5715170000000  0.4185950000000  0.4856430000000 1.0
C      1  0.5556280000000  0.5609950000000  0.4591860000000 1.0
C      1  0.4675930000000  0.5963360000000  0.4685930000000 1.0
C      1  0.5482920000000  0.5402240000000  0.4228160000000 1.0
C      1  0.5506880000000  0.4199750000000  0.5464310000000 1.0
C      1  0.5316280000000  0.4368190000000  0.4310600000000 1.0
C      1  0.4474780000000  0.4211770000000  0.4660530000000 1.0
C      1  0.3593190000000  0.4924510000000  0.4572730000000 1.0
C      1  0.4122430000000  0.5170100000000  0.4467820000000 1.0
C      1  0.5897200000000  0.4541510000000  0.5408380000000 1.0
C      1  0.4201600000000  0.4418770000000  0.5409750000000 1.0
C      1  0.4825980000000  0.4789730000000  0.4638220000000 1.0
C      1  0.5168180000000  0.5152860000000  0.6005000000000 1.0
C      1  0.5995910000000  0.4994160000000  0.5695620000000 1.0
C      1  0.4639700000000  0.5037540000000  0.4664890000000 1.0
C      1  0.3880670000000  0.4600680000000  0.4975690000000 1.0
END
