TITL C-2778431-5191-1007 -0.00880872079951447 125000 -981.406172176399 0 0 165 (C1) n - 1
REM
REM in /home/nfs/bkarasulu/CARBON/AIRSS/Generating-Clusters/REBO/Only-C1/SD-CG/HFTN-CG
REM
REM
REM
REM
REM
REM ./C.cell (11c1c37f851c82e70ff6c80c92926a4b)
REM
REM compiler GCC version 9.2.1 20190827 (Red Hat 9.2.1-1)
REM options -cpp -mtune=generic -march=x86-64 -g -O0 -fpre-include=/usr/include/finclude/math-vector-fortran.h
REM seed 609073638 -1263516673 -1425431782 1634552640 -677678090 -1555030238 -969841548 -1186567152 1531388743 -2089938369 -1494317430 1409864536 -1834394733 -502579239 2042453485 1239042526 969567656 -1473394911 26946301 -502835570 1862723163 1828671540 -13242901 -1383725323 1761628504 748955903 -632834190 -2128009036 -1688741405 1639151389 -87712163 -521417623 712847869
REM
CELL 1.54180   50.00000   50.00000   50.00000   90.00000   90.00000   90.00000
LATT -1
SFAC C  
C      1  0.5153990000000  0.4048510000000  0.5284830000000 1.0
C      1  0.5447060000000  0.5342600000000  0.4459850000000 1.0
C      1  0.5507770000000  0.4732550000000  0.4923890000000 1.0
C      1  0.5838310000000  0.5661440000000  0.5189370000000 1.0
C      1  0.4444750000000  0.4372570000000  0.5368750000000 1.0
C      1  0.5061210000000  0.5083640000000  0.5957110000000 1.0
C      1  0.4569690000000  0.4491190000000  0.5836760000000 1.0
C      1  0.5426470000000  0.4533210000000  0.5960140000000 1.0
C      1  0.4984960000000  0.5124900000000  0.4450640000000 1.0
C      1  0.5237110000000  0.5244420000000  0.4306400000000 1.0
C      1  0.4942720000000  0.6006460000000  0.5484550000000 1.0
C      1  0.5009210000000  0.5954350000000  0.4930710000000 1.0
C      1  0.5949780000000  0.4945870000000  0.5163370000000 1.0
C      1  0.4639950000000  0.5108650000000  0.5224790000000 1.0
C      1  0.5768940000000  0.5405210000000  0.4443570000000 1.0
C      1  0.5942130000000  0.5054380000000  0.4839470000000 1.0
C      1  0.5418460000000  0.4613000000000  0.4012310000000 1.0
C      1  0.5476520000000  0.4687050000000  0.5320000000000 1.0
C      1  0.4960630000000  0.5328130000000  0.3906090000000 1.0
C      1  0.5510000000000  0.5501520000000  0.4943790000000 1.0
C      1  0.3892970000000  0.5419900000000  0.5391910000000 1.0
C      1  0.5408440000000  0.4478070000000  0.5071180000000 1.0
C      1  0.4314150000000  0.5051220000000  0.5751520000000 1.0
C      1  0.4620130000000  0.4446830000000  0.4232740000000 1.0
C      1  0.5339800000000  0.4806020000000  0.5822370000000 1.0
C      1  0.4824670000000  0.4133360000000  0.5628150000000 1.0
C      1  0.4503120000000  0.4762720000000  0.4148480000000 1.0
C      1  0.5353450000000  0.5806540000000  0.5810490000000 1.0
C      1  0.5199080000000  0.5028720000000  0.5549930000000 1.0
C      1  0.4232740000000  0.4896270000000  0.4989530000000 1.0
C      1  0.5219900000000  0.5962910000000  0.5305140000000 1.0
C      1  0.4962000000000  0.4778520000000  0.5863940000000 1.0
C      1  0.5496520000000  0.5008160000000  0.4089230000000 1.0
C      1  0.5640090000000  0.5867750000000  0.5029300000000 1.0
C      1  0.5093090000000  0.4105280000000  0.5549260000000 1.0
C      1  0.4900240000000  0.4839710000000  0.4377230000000 1.0
C      1  0.4042540000000  0.5263520000000  0.4243100000000 1.0
C      1  0.4799450000000  0.4460130000000  0.4647620000000 1.0
C      1  0.5185580000000  0.3603280000000  0.4614160000000 1.0
C      1  0.4146190000000  0.5655410000000  0.4800020000000 1.0
C      1  0.5398590000000  0.4168960000000  0.5203650000000 1.0
C      1  0.5573750000000  0.5045980000000  0.4691710000000 1.0
C      1  0.4684520000000  0.4159370000000  0.4651980000000 1.0
C      1  0.5549040000000  0.4982560000000  0.5366270000000 1.0
C      1  0.6009390000000  0.4985360000000  0.5451310000000 1.0
C      1  0.6006560000000  0.4775290000000  0.5636580000000 1.0
C      1  0.5096330000000  0.4485140000000  0.5891290000000 1.0
C      1  0.5780390000000  0.4420560000000  0.5200920000000 1.0
C      1  0.4179110000000  0.4820930000000  0.5673700000000 1.0
C      1  0.4804630000000  0.5133510000000  0.5769410000000 1.0
C      1  0.5079580000000  0.5775630000000  0.5690070000000 1.0
C      1  0.3893650000000  0.5330110000000  0.4526370000000 1.0
C      1  0.4017860000000  0.4570400000000  0.5587970000000 1.0
C      1  0.5138760000000  0.5078450000000  0.4989250000000 1.0
C      1  0.4408390000000  0.5812950000000  0.4904860000000 1.0
C      1  0.4375080000000  0.5413570000000  0.4536890000000 1.0
C      1  0.4624270000000  0.5535650000000  0.5437120000000 1.0
C      1  0.5893890000000  0.5377180000000  0.4742840000000 1.0
C      1  0.5855590000000  0.5398330000000  0.5269590000000 1.0
C      1  0.5731120000000  0.4903870000000  0.4284510000000 1.0
C      1  0.5085730000000  0.3848850000000  0.4670120000000 1.0
C      1  0.4170210000000  0.5316930000000  0.5223070000000 1.0
C      1  0.4806260000000  0.5094230000000  0.3899510000000 1.0
C      1  0.5388100000000  0.5280640000000  0.5398920000000 1.0
C      1  0.5791010000000  0.4308370000000  0.4928770000000 1.0
C      1  0.4200240000000  0.4437430000000  0.4872910000000 1.0
C      1  0.4763280000000  0.5715380000000  0.5692010000000 1.0
C      1  0.5071770000000  0.5525460000000  0.4537600000000 1.0
C      1  0.4852020000000  0.5858890000000  0.5192870000000 1.0
C      1  0.3819120000000  0.4559270000000  0.5396930000000 1.0
C      1  0.5089980000000  0.4789280000000  0.5330710000000 1.0
C      1  0.4801180000000  0.4328230000000  0.5827690000000 1.0
C      1  0.5162710000000  0.4009630000000  0.4888180000000 1.0
C      1  0.5698840000000  0.4611450000000  0.4415510000000 1.0
C      1  0.4518100000000  0.5060220000000  0.4070210000000 1.0
C      1  0.5238860000000  0.4843260000000  0.3939550000000 1.0
C      1  0.4648200000000  0.4485710000000  0.5125080000000 1.0
C      1  0.4960780000000  0.4858210000000  0.3903960000000 1.0
C      1  0.4521750000000  0.5847050000000  0.5182280000000 1.0
C      1  0.5280140000000  0.4322680000000  0.5653490000000 1.0
C      1  0.5402310000000  0.5291960000000  0.4778120000000 1.0
C      1  0.4796420000000  0.4644180000000  0.4022050000000 1.0
C      1  0.5587340000000  0.5741860000000  0.4480510000000 1.0
C      1  0.5858360000000  0.4765500000000  0.4679780000000 1.0
C      1  0.5028640000000  0.4597460000000  0.5094880000000 1.0
C      1  0.5471720000000  0.4482740000000  0.4249550000000 1.0
C      1  0.5550980000000  0.5599140000000  0.4173710000000 1.0
C      1  0.4610150000000  0.5932010000000  0.5500720000000 1.0
C      1  0.3837610000000  0.4631890000000  0.5134350000000 1.0
C      1  0.4902150000000  0.3990380000000  0.4502660000000 1.0
C      1  0.5337480000000  0.6021580000000  0.4991490000000 1.0
C      1  0.5560220000000  0.5837010000000  0.5666780000000 1.0
C      1  0.4658210000000  0.5404280000000  0.5739870000000 1.0
C      1  0.5411640000000  0.4810080000000  0.4610180000000 1.0
C      1  0.4656190000000  0.4732910000000  0.5940410000000 1.0
C      1  0.5426830000000  0.5009660000000  0.5059650000000 1.0
C      1  0.4490770000000  0.5686920000000  0.4599800000000 1.0
C      1  0.4273350000000  0.4455820000000  0.4596620000000 1.0
C      1  0.5170730000000  0.4339490000000  0.4923140000000 1.0
C      1  0.5763760000000  0.5100660000000  0.4485640000000 1.0
C      1  0.5279100000000  0.5704910000000  0.5084350000000 1.0
C      1  0.4694160000000  0.4694130000000  0.4537810000000 1.0
C      1  0.5713350000000  0.5666840000000  0.4761840000000 1.0
C      1  0.5340580000000  0.4846370000000  0.4347090000000 1.0
C      1  0.4995660000000  0.5835610000000  0.4624540000000 1.0
C      1  0.5475420000000  0.5515470000000  0.5266030000000 1.0
C      1  0.4384080000000  0.5224100000000  0.4750760000000 1.0
C      1  0.4393030000000  0.3992620000000  0.5042820000000 1.0
C      1  0.5919130000000  0.5252870000000  0.5520050000000 1.0
C      1  0.5278400000000  0.5705370000000  0.4344320000000 1.0
C      1  0.5788020000000  0.4437250000000  0.4693750000000 1.0
C      1  0.4622520000000  0.5375780000000  0.4114340000000 1.0
C      1  0.4942170000000  0.5087620000000  0.5251970000000 1.0
C      1  0.4137720000000  0.5192370000000  0.4957320000000 1.0
C      1  0.4549840000000  0.3899900000000  0.5254400000000 1.0
C      1  0.5523520000000  0.5824380000000  0.5374460000000 1.0
C      1  0.4694430000000  0.4736000000000  0.5356920000000 1.0
C      1  0.4929160000000  0.4066920000000  0.5086720000000 1.0
C      1  0.4831780000000  0.5327770000000  0.4936600000000 1.0
C      1  0.4721350000000  0.4218870000000  0.4973170000000 1.0
C      1  0.5523550000000  0.5345840000000  0.4047810000000 1.0
C      1  0.5096870000000  0.5339870000000  0.4771340000000 1.0
C      1  0.4781840000000  0.4847800000000  0.5578580000000 1.0
C      1  0.4987770000000  0.5741160000000  0.4204260000000 1.0
C      1  0.4553240000000  0.4980750000000  0.5878680000000 1.0
C      1  0.5235210000000  0.5231660000000  0.6084840000000 1.0
C      1  0.4847410000000  0.5586570000000  0.3995100000000 1.0
C      1  0.5536610000000  0.4371620000000  0.5433230000000 1.0
C      1  0.4475710000000  0.5303770000000  0.5295490000000 1.0
C      1  0.5009410000000  0.5626490000000  0.5391610000000 1.0
C      1  0.5220310000000  0.5281660000000  0.4005660000000 1.0
C      1  0.4407050000000  0.4693730000000  0.4462560000000 1.0
C      1  0.5460170000000  0.5377380000000  0.6120740000000 1.0
C      1  0.5721720000000  0.5180110000000  0.5066790000000 1.0
C      1  0.5221920000000  0.4376630000000  0.4372790000000 1.0
C      1  0.4705880000000  0.5886050000000  0.4787020000000 1.0
C      1  0.4066610000000  0.4670820000000  0.4974300000000 1.0
C      1  0.4343500000000  0.5334300000000  0.5697570000000 1.0
C      1  0.4337250000000  0.5289830000000  0.4248700000000 1.0
C      1  0.4815660000000  0.5466890000000  0.5167230000000 1.0
C      1  0.4347870000000  0.4521960000000  0.5618120000000 1.0
C      1  0.5518280000000  0.5044390000000  0.5691250000000 1.0
C      1  0.5688620000000  0.5405260000000  0.5971990000000 1.0
C      1  0.4316810000000  0.4269140000000  0.5070230000000 1.0
C      1  0.4746420000000  0.5724150000000  0.4427010000000 1.0
C      1  0.4515260000000  0.4858620000000  0.5089520000000 1.0
C      1  0.5029300000000  0.4122700000000  0.4294960000000 1.0
C      1  0.5822520000000  0.4697750000000  0.5012360000000 1.0
C      1  0.4606950000000  0.4100810000000  0.5449870000000 1.0
C      1  0.5691610000000  0.4483510000000  0.5943850000000 1.0
C      1  0.4916220000000  0.4985080000000  0.4749300000000 1.0
C      1  0.5266520000000  0.4634940000000  0.5563760000000 1.0
C      1  0.5068480000000  0.5317940000000  0.5436730000000 1.0
C      1  0.4834100000000  0.5403110000000  0.4349680000000 1.0
C      1  0.4201880000000  0.5512570000000  0.5498320000000 1.0
C      1  0.4314220000000  0.5783880000000  0.5441090000000 1.0
C      1  0.5900040000000  0.4595710000000  0.5808610000000 1.0
C      1  0.4485880000000  0.4302040000000  0.4456730000000 1.0
C      1  0.5732280000000  0.5251590000000  0.5741590000000 1.0
C      1  0.3723900000000  0.5234090000000  0.4263990000000 1.0
C      1  0.4782300000000  0.4737900000000  0.4933890000000 1.0
C      1  0.4031550000000  0.5411930000000  0.4754330000000 1.0
C      1  0.4951220000000  0.4516360000000  0.4282580000000 1.0
C      1  0.5086380000000  0.4446200000000  0.4653190000000 1.0
C      1  0.4632780000000  0.5135820000000  0.4826260000000 1.0
END
