TITL C-2778426-5645-23 0.00111922581768642 125000 -1132.10730206884 0 0 195 (C1) n - 1
REM
REM in /home/nfs/bkarasulu/CARBON/AIRSS/Generating-Clusters/REBO/Only-C1/SD-CG/HFTN-CG
REM
REM
REM
REM
REM
REM ./C.cell (11c1c37f851c82e70ff6c80c92926a4b)
REM
REM compiler GCC version 9.2.1 20190827 (Red Hat 9.2.1-1)
REM options -cpp -mtune=generic -march=x86-64 -g -O0 -fpre-include=/usr/include/finclude/math-vector-fortran.h
REM seed -1593807096 -1942344250 540692192 -48639879 -1272522437 -1808579248 -1700664939 1997322831 -1824195729 698674263 1038490948 1675797301 -1996381761 -581207280 -1873264205 1267712670 -242222160 210442111 985138861 -1006479102 308427532 260255023 -1343914742 1119603559 1817773508 -203893286 68308284 886411559 -360419259 -1408112283 1950966441 -2038181635 -1121199884
REM
CELL 1.54180   50.00000   50.00000   50.00000   90.00000   90.00000   90.00000
LATT -1
SFAC C  
C      1  0.4318860000000  0.5319610000000  0.5989660000000 1.0
C      1  0.4839860000000  0.5176880000000  0.4374350000000 1.0
C      1  0.4060770000000  0.5428730000000  0.5516840000000 1.0
C      1  0.5313240000000  0.5431620000000  0.5803770000000 1.0
C      1  0.5234540000000  0.5550560000000  0.5489830000000 1.0
C      1  0.4043340000000  0.4849070000000  0.4285970000000 1.0
C      1  0.4643750000000  0.5328470000000  0.5645720000000 1.0
C      1  0.5683060000000  0.5561210000000  0.5255480000000 1.0
C      1  0.4913800000000  0.5279020000000  0.5936580000000 1.0
C      1  0.5855610000000  0.5415370000000  0.4367720000000 1.0
C      1  0.4830750000000  0.5107830000000  0.3856390000000 1.0
C      1  0.4543780000000  0.4939950000000  0.4482930000000 1.0
C      1  0.5921180000000  0.5173030000000  0.4523800000000 1.0
C      1  0.5829620000000  0.4789630000000  0.4463400000000 1.0
C      1  0.5067540000000  0.4000830000000  0.5398640000000 1.0
C      1  0.4730620000000  0.4570320000000  0.6035410000000 1.0
C      1  0.4899150000000  0.5602640000000  0.5190400000000 1.0
C      1  0.4917530000000  0.5880670000000  0.5344490000000 1.0
C      1  0.5130910000000  0.4420300000000  0.3903900000000 1.0
C      1  0.5640520000000  0.4845390000000  0.5308250000000 1.0
C      1  0.4815580000000  0.4310720000000  0.5831750000000 1.0
C      1  0.4428130000000  0.4515670000000  0.5925690000000 1.0
C      1  0.5642330000000  0.5320880000000  0.4887730000000 1.0
C      1  0.5529270000000  0.4995810000000  0.5992340000000 1.0
C      1  0.5371110000000  0.4418630000000  0.3951900000000 1.0
C      1  0.4653260000000  0.4209960000000  0.5111990000000 1.0
C      1  0.5049300000000  0.4559800000000  0.5060920000000 1.0
C      1  0.5452860000000  0.5381070000000  0.4063210000000 1.0
C      1  0.4961590000000  0.4896340000000  0.5236130000000 1.0
C      1  0.5298570000000  0.4849430000000  0.5274920000000 1.0
C      1  0.5039400000000  0.4409160000000  0.5594580000000 1.0
C      1  0.4223430000000  0.4542860000000  0.4798490000000 1.0
C      1  0.4374390000000  0.5221490000000  0.4124310000000 1.0
C      1  0.4913590000000  0.4478310000000  0.4406220000000 1.0
C      1  0.5123140000000  0.5259660000000  0.5436350000000 1.0
C      1  0.4813060000000  0.4046020000000  0.5618160000000 1.0
C      1  0.5684790000000  0.4919920000000  0.4272810000000 1.0
C      1  0.5313670000000  0.4045240000000  0.4984390000000 1.0
C      1  0.5719420000000  0.5022840000000  0.5740000000000 1.0
C      1  0.4518940000000  0.4372530000000  0.4083460000000 1.0
C      1  0.4727410000000  0.5662930000000  0.4946720000000 1.0
C      1  0.4968810000000  0.5552330000000  0.5965230000000 1.0
C      1  0.5569470000000  0.4799370000000  0.4817010000000 1.0
C      1  0.4407410000000  0.4233670000000  0.5537160000000 1.0
C      1  0.4396630000000  0.4676160000000  0.5133350000000 1.0
C      1  0.4754380000000  0.5392890000000  0.5353740000000 1.0
C      1  0.5639400000000  0.4230800000000  0.4666000000000 1.0
C      1  0.3999140000000  0.4692790000000  0.5095030000000 1.0
C      1  0.4858120000000  0.4879360000000  0.5816750000000 1.0
C      1  0.5556850000000  0.5786880000000  0.5479680000000 1.0
C      1  0.4961640000000  0.6128640000000  0.4932160000000 1.0
C      1  0.5494330000000  0.5146610000000  0.5093670000000 1.0
C      1  0.5520870000000  0.4754370000000  0.5675650000000 1.0
C      1  0.4526080000000  0.5221880000000  0.4974850000000 1.0
C      1  0.5051120000000  0.4629480000000  0.6135380000000 1.0
C      1  0.5129610000000  0.5516720000000  0.4967190000000 1.0
C      1  0.4023360000000  0.5411300000000  0.5220340000000 1.0
C      1  0.4714640000000  0.4425520000000  0.4642110000000 1.0
C      1  0.5245880000000  0.4788730000000  0.4584600000000 1.0
C      1  0.4701470000000  0.5969410000000  0.4909110000000 1.0
C      1  0.5627570000000  0.5839390000000  0.4776620000000 1.0
C      1  0.5271070000000  0.6163950000000  0.4807020000000 1.0
C      1  0.5531250000000  0.4554890000000  0.5402710000000 1.0
C      1  0.4170990000000  0.5378410000000  0.4352660000000 1.0
C      1  0.4226960000000  0.4021050000000  0.4807620000000 1.0
C      1  0.5374180000000  0.4043460000000  0.5450120000000 1.0
C      1  0.5052750000000  0.4630200000000  0.5807950000000 1.0
C      1  0.4853680000000  0.6030420000000  0.4525350000000 1.0
C      1  0.6127980000000  0.5024680000000  0.4617890000000 1.0
C      1  0.4896720000000  0.5428070000000  0.3952550000000 1.0
C      1  0.5752810000000  0.5312370000000  0.5655970000000 1.0
C      1  0.4483710000000  0.5479140000000  0.4944420000000 1.0
C      1  0.5540060000000  0.6021690000000  0.5230890000000 1.0
C      1  0.4576020000000  0.4875880000000  0.6005910000000 1.0
C      1  0.4220750000000  0.5739930000000  0.5324800000000 1.0
C      1  0.4477310000000  0.3973210000000  0.4710880000000 1.0
C      1  0.3959740000000  0.5158110000000  0.5105750000000 1.0
C      1  0.5634940000000  0.4380480000000  0.5172520000000 1.0
C      1  0.4303590000000  0.4730130000000  0.5740650000000 1.0
C      1  0.5527060000000  0.4755280000000  0.4107540000000 1.0
C      1  0.5770800000000  0.5663000000000  0.4515500000000 1.0
C      1  0.3989910000000  0.4918950000000  0.5260500000000 1.0
C      1  0.4010080000000  0.5266880000000  0.4617840000000 1.0
C      1  0.4201050000000  0.5612140000000  0.5010810000000 1.0
C      1  0.4798730000000  0.3745300000000  0.5236870000000 1.0
C      1  0.4580980000000  0.4694350000000  0.5603260000000 1.0
C      1  0.4335280000000  0.5857370000000  0.4814760000000 1.0
C      1  0.3967120000000  0.5095010000000  0.4824330000000 1.0
C      1  0.4190830000000  0.4270180000000  0.5422180000000 1.0
C      1  0.4701340000000  0.4121520000000  0.4725230000000 1.0
C      1  0.5361290000000  0.5588130000000  0.5195990000000 1.0
C      1  0.5573430000000  0.5526660000000  0.5698160000000 1.0
C      1  0.3990060000000  0.4768490000000  0.4777990000000 1.0
C      1  0.5896680000000  0.5345680000000  0.5393720000000 1.0
C      1  0.5397170000000  0.5060920000000  0.4509340000000 1.0
C      1  0.5172370000000  0.5301670000000  0.4061480000000 1.0
C      1  0.4670040000000  0.3966870000000  0.5350760000000 1.0
C      1  0.4504290000000  0.4840910000000  0.4158440000000 1.0
C      1  0.5071930000000  0.5818950000000  0.4817840000000 1.0
C      1  0.5187210000000  0.5871010000000  0.5135390000000 1.0
C      1  0.4441950000000  0.5479560000000  0.5786220000000 1.0
C      1  0.5428880000000  0.4007510000000  0.4703660000000 1.0
C      1  0.5446470000000  0.5679660000000  0.4458270000000 1.0
C      1  0.4828580000000  0.5020310000000  0.4653240000000 1.0
C      1  0.4966310000000  0.4034550000000  0.4248780000000 1.0
C      1  0.5856670000000  0.4596050000000  0.5822070000000 1.0
C      1  0.4681230000000  0.5019960000000  0.5585470000000 1.0
C      1  0.5584630000000  0.4572880000000  0.5934220000000 1.0
C      1  0.5079070000000  0.6212960000000  0.4561950000000 1.0
C      1  0.4526980000000  0.4434170000000  0.4933160000000 1.0
C      1  0.5255420000000  0.5831150000000  0.5646800000000 1.0
C      1  0.5299910000000  0.4919100000000  0.4957960000000 1.0
C      1  0.5927290000000  0.5691160000000  0.4813370000000 1.0
C      1  0.5239060000000  0.4449580000000  0.4636600000000 1.0
C      1  0.6106860000000  0.5255230000000  0.5145250000000 1.0
C      1  0.6065430000000  0.5052120000000  0.5419480000000 1.0
C      1  0.4312370000000  0.5149420000000  0.5303960000000 1.0
C      1  0.4457650000000  0.5891240000000  0.5133080000000 1.0
C      1  0.4980760000000  0.5782280000000  0.5803490000000 1.0
C      1  0.5477830000000  0.5536240000000  0.4762870000000 1.0
C      1  0.5608890000000  0.5223250000000  0.4279010000000 1.0
C      1  0.4156200000000  0.4436840000000  0.5175340000000 1.0
C      1  0.4805010000000  0.4466030000000  0.3928580000000 1.0
C      1  0.5670750000000  0.5092600000000  0.4670610000000 1.0
C      1  0.4747840000000  0.5137190000000  0.6099920000000 1.0
C      1  0.6034520000000  0.4832270000000  0.4844580000000 1.0
C      1  0.5868740000000  0.4216530000000  0.4893000000000 1.0
C      1  0.4159650000000  0.4934700000000  0.5528380000000 1.0
C      1  0.4301260000000  0.4976700000000  0.5005340000000 1.0
C      1  0.5570110000000  0.4491270000000  0.4860630000000 1.0
C      1  0.4265390000000  0.5058610000000  0.4393260000000 1.0
C      1  0.5267410000000  0.6053710000000  0.5418840000000 1.0
C      1  0.5951320000000  0.4701280000000  0.5270780000000 1.0
C      1  0.4556630000000  0.4930610000000  0.5301960000000 1.0
C      1  0.5235270000000  0.4764800000000  0.4098740000000 1.0
C      1  0.5337990000000  0.5646790000000  0.4172450000000 1.0
C      1  0.4701590000000  0.5663710000000  0.4206560000000 1.0
C      1  0.4732920000000  0.4797230000000  0.3955530000000 1.0
C      1  0.4430790000000  0.5465490000000  0.5339560000000 1.0
C      1  0.4605340000000  0.5758370000000  0.5409240000000 1.0
C      1  0.4504910000000  0.4823230000000  0.4778190000000 1.0
C      1  0.4931780000000  0.6333620000000  0.5160300000000 1.0
C      1  0.4140740000000  0.4248250000000  0.4917300000000 1.0
C      1  0.4243380000000  0.5643770000000  0.5639290000000 1.0
C      1  0.6161560000000  0.4923350000000  0.5124420000000 1.0
C      1  0.5206040000000  0.4541930000000  0.5361700000000 1.0
C      1  0.5924510000000  0.4558040000000  0.4693890000000 1.0
C      1  0.5029580000000  0.4814100000000  0.4834680000000 1.0
C      1  0.5304920000000  0.5217090000000  0.5983070000000 1.0
C      1  0.5101320000000  0.5262880000000  0.4332830000000 1.0
C      1  0.4640200000000  0.4401250000000  0.5579970000000 1.0
C      1  0.4556350000000  0.6013190000000  0.4622940000000 1.0
C      1  0.4835580000000  0.5520910000000  0.4698130000000 1.0
C      1  0.4698170000000  0.4929230000000  0.5015900000000 1.0
C      1  0.4736420000000  0.5852060000000  0.5696660000000 1.0
C      1  0.4979820000000  0.6199710000000  0.5400850000000 1.0
C      1  0.4977210000000  0.5740770000000  0.4497830000000 1.0
C      1  0.3895620000000  0.4733320000000  0.4479260000000 1.0
C      1  0.5026230000000  0.5656780000000  0.4171740000000 1.0
C      1  0.5234710000000  0.4912460000000  0.6107150000000 1.0
C      1  0.5505340000000  0.4110790000000  0.5209240000000 1.0
C      1  0.5925550000000  0.4812980000000  0.5591750000000 1.0
C      1  0.5137490000000  0.4324170000000  0.4897610000000 1.0
C      1  0.4908210000000  0.4282810000000  0.5310790000000 1.0
C      1  0.4921490000000  0.4090720000000  0.4938930000000 1.0
C      1  0.4623450000000  0.5555540000000  0.4488240000000 1.0
C      1  0.5514500000000  0.4256120000000  0.4287620000000 1.0
C      1  0.4665240000000  0.5241710000000  0.4116490000000 1.0
C      1  0.5777160000000  0.4961140000000  0.5028060000000 1.0
C      1  0.5295930000000  0.5382210000000  0.4537760000000 1.0
C      1  0.4088360000000  0.5198080000000  0.5686980000000 1.0
C      1  0.4891220000000  0.4287770000000  0.4194760000000 1.0
C      1  0.4216960000000  0.4937990000000  0.4021260000000 1.0
C      1  0.4427330000000  0.4562180000000  0.4270350000000 1.0
C      1  0.4944230000000  0.5257570000000  0.4846080000000 1.0
C      1  0.5897820000000  0.5458970000000  0.5012410000000 1.0
C      1  0.5054120000000  0.5123010000000  0.5686650000000 1.0
C      1  0.5069370000000  0.3847220000000  0.5094220000000 1.0
C      1  0.5102150000000  0.4676620000000  0.4339770000000 1.0
C      1  0.4940170000000  0.5206350000000  0.5168280000000 1.0
C      1  0.4813880000000  0.4611380000000  0.5334610000000 1.0
C      1  0.5666980000000  0.4475060000000  0.4110030000000 1.0
C      1  0.5413430000000  0.5223550000000  0.5350070000000 1.0
C      1  0.5492350000000  0.6043870000000  0.4938890000000 1.0
C      1  0.5792940000000  0.4398470000000  0.4420090000000 1.0
C      1  0.5377370000000  0.4538810000000  0.6104050000000 1.0
C      1  0.4281190000000  0.5011940000000  0.5901500000000 1.0
C      1  0.5279700000000  0.4255420000000  0.4431120000000 1.0
C      1  0.4392440000000  0.5585620000000  0.4285980000000 1.0
C      1  0.5928010000000  0.4488160000000  0.5030840000000 1.0
C      1  0.5061090000000  0.4876220000000  0.3913510000000 1.0
C      1  0.5046850000000  0.3730710000000  0.4280510000000 1.0
C      1  0.5194470000000  0.3951870000000  0.4491300000000 1.0
C      1  0.4443120000000  0.4563080000000  0.4566310000000 1.0
C      1  0.5239460000000  0.4860800000000  0.5710870000000 1.0
END
