TITL C-2778423-5760-76 -0.00248132624091731 125000 -993.544314232052 0 0 168 (C1) n - 1
REM
REM in /home/nfs/bkarasulu/CARBON/AIRSS/Generating-Clusters/REBO/Only-C1/SD-CG/HFTN-CG
REM
REM
REM
REM
REM
REM ./C.cell (11c1c37f851c82e70ff6c80c92926a4b)
REM
REM compiler GCC version 9.2.1 20190827 (Red Hat 9.2.1-1)
REM options -cpp -mtune=generic -march=x86-64 -g -O0 -fpre-include=/usr/include/finclude/math-vector-fortran.h
REM seed -917278083 429109919 -2005798840 616836879 -1164153518 1638777616 -1256080945 -1228004824 -1618906267 -673264974 913020452 -609549434 2049707312 1004871843 -1381086187 -1590341794 378079816 1669335675 1675484038 1041333745 110410650 -236291216 1765407306 -817713992 -422073410 -224258823 -1281375203 -275916449 -2132975067 1171849144 -207667858 298763285 -633611291
REM
CELL 1.54180   50.00000   50.00000   50.00000   90.00000   90.00000   90.00000
LATT -1
SFAC C  
C      1  0.5954040000000  0.4673080000000  0.5421740000000 1.0
C      1  0.5145420000000  0.5515050000000  0.5507810000000 1.0
C      1  0.5365460000000  0.5445420000000  0.5899760000000 1.0
C      1  0.5356470000000  0.4831860000000  0.5931920000000 1.0
C      1  0.5680500000000  0.5589260000000  0.4844380000000 1.0
C      1  0.4598560000000  0.4814050000000  0.6166720000000 1.0
C      1  0.5190270000000  0.5975930000000  0.4797570000000 1.0
C      1  0.5465070000000  0.4548470000000  0.4887040000000 1.0
C      1  0.5221070000000  0.4102590000000  0.4313110000000 1.0
C      1  0.5720950000000  0.5594410000000  0.4330840000000 1.0
C      1  0.4769760000000  0.5320940000000  0.5657310000000 1.0
C      1  0.5721040000000  0.4891900000000  0.5504950000000 1.0
C      1  0.4209450000000  0.5498340000000  0.4839800000000 1.0
C      1  0.5738670000000  0.5773110000000  0.5286620000000 1.0
C      1  0.4776980000000  0.4101790000000  0.4744860000000 1.0
C      1  0.4615710000000  0.4724740000000  0.4848320000000 1.0
C      1  0.5768950000000  0.4622690000000  0.5691570000000 1.0
C      1  0.4801620000000  0.4359100000000  0.5711500000000 1.0
C      1  0.5539190000000  0.5667550000000  0.4570300000000 1.0
C      1  0.5028310000000  0.4641510000000  0.3869210000000 1.0
C      1  0.4442960000000  0.5357700000000  0.5019690000000 1.0
C      1  0.6014770000000  0.4983110000000  0.4795650000000 1.0
C      1  0.5454780000000  0.5910010000000  0.4788930000000 1.0
C      1  0.4435120000000  0.4870420000000  0.4719580000000 1.0
C      1  0.4107360000000  0.4855330000000  0.5225930000000 1.0
C      1  0.4649490000000  0.5974890000000  0.4799920000000 1.0
C      1  0.5232590000000  0.3937380000000  0.5445900000000 1.0
C      1  0.4721330000000  0.4533730000000  0.4513710000000 1.0
C      1  0.5335920000000  0.4018780000000  0.5234600000000 1.0
C      1  0.5660910000000  0.4510400000000  0.4304570000000 1.0
C      1  0.3956300000000  0.5006010000000  0.5471380000000 1.0
C      1  0.5651830000000  0.5837120000000  0.5026390000000 1.0
C      1  0.5490560000000  0.4147590000000  0.4387640000000 1.0
C      1  0.5640660000000  0.5151160000000  0.4148300000000 1.0
C      1  0.5231260000000  0.4848290000000  0.5288190000000 1.0
C      1  0.4912610000000  0.4657960000000  0.5664630000000 1.0
C      1  0.4244430000000  0.4731120000000  0.4529140000000 1.0
C      1  0.4944580000000  0.5233210000000  0.4391310000000 1.0
C      1  0.5612290000000  0.5072480000000  0.4768690000000 1.0
C      1  0.4698360000000  0.4082730000000  0.5542480000000 1.0
C      1  0.4677510000000  0.4825530000000  0.4238960000000 1.0
C      1  0.4238490000000  0.4358020000000  0.5082100000000 1.0
C      1  0.5342190000000  0.5408950000000  0.4508990000000 1.0
C      1  0.5263460000000  0.4883830000000  0.4194960000000 1.0
C      1  0.5992630000000  0.5344700000000  0.5107830000000 1.0
C      1  0.4388800000000  0.4428700000000  0.5329490000000 1.0
C      1  0.4391350000000  0.4139750000000  0.4939960000000 1.0
C      1  0.4816530000000  0.6095960000000  0.5414540000000 1.0
C      1  0.4653040000000  0.4413610000000  0.4815600000000 1.0
C      1  0.4433160000000  0.5188000000000  0.4726020000000 1.0
C      1  0.5621990000000  0.5367260000000  0.5478090000000 1.0
C      1  0.4808300000000  0.4255280000000  0.4131700000000 1.0
C      1  0.4056720000000  0.5241260000000  0.5317740000000 1.0
C      1  0.4914380000000  0.3957260000000  0.4992990000000 1.0
C      1  0.4482060000000  0.4196690000000  0.4615590000000 1.0
C      1  0.5008160000000  0.6229530000000  0.5218410000000 1.0
C      1  0.4705700000000  0.5988650000000  0.5118640000000 1.0
C      1  0.5001400000000  0.4014210000000  0.5684020000000 1.0
C      1  0.4513550000000  0.5345340000000  0.4201780000000 1.0
C      1  0.4720790000000  0.5114280000000  0.5167240000000 1.0
C      1  0.5885620000000  0.5216650000000  0.4624890000000 1.0
C      1  0.4586970000000  0.5588670000000  0.5901560000000 1.0
C      1  0.4417710000000  0.4644060000000  0.4277900000000 1.0
C      1  0.4939000000000  0.6118620000000  0.4917510000000 1.0
C      1  0.4429020000000  0.4940090000000  0.5181490000000 1.0
C      1  0.5464900000000  0.4925980000000  0.4536090000000 1.0
C      1  0.5429950000000  0.4625400000000  0.5721000000000 1.0
C      1  0.4571390000000  0.5297380000000  0.6025370000000 1.0
C      1  0.4829730000000  0.4621940000000  0.5169520000000 1.0
C      1  0.5066590000000  0.5591530000000  0.5208650000000 1.0
C      1  0.5105280000000  0.5073610000000  0.5066870000000 1.0
C      1  0.6137560000000  0.4871330000000  0.5264820000000 1.0
C      1  0.4834050000000  0.4853560000000  0.4540330000000 1.0
C      1  0.5555030000000  0.5844670000000  0.5496810000000 1.0
C      1  0.4837730000000  0.5093010000000  0.5439000000000 1.0
C      1  0.4826660000000  0.4653640000000  0.6105900000000 1.0
C      1  0.4591190000000  0.5664710000000  0.5567690000000 1.0
C      1  0.5186930000000  0.4649070000000  0.5514560000000 1.0
C      1  0.4188100000000  0.5315200000000  0.4557140000000 1.0
C      1  0.3922970000000  0.5141960000000  0.4587190000000 1.0
C      1  0.5009460000000  0.4413980000000  0.4446220000000 1.0
C      1  0.5097240000000  0.4414490000000  0.4957230000000 1.0
C      1  0.5626970000000  0.4838640000000  0.4981060000000 1.0
C      1  0.5606870000000  0.4345040000000  0.5644720000000 1.0
C      1  0.4983210000000  0.5767150000000  0.4731730000000 1.0
C      1  0.5435430000000  0.5586860000000  0.5617210000000 1.0
C      1  0.4334950000000  0.5684750000000  0.5405510000000 1.0
C      1  0.5431610000000  0.6093840000000  0.5469310000000 1.0
C      1  0.5837880000000  0.4570730000000  0.4966550000000 1.0
C      1  0.5713550000000  0.4021180000000  0.4285930000000 1.0
C      1  0.4482350000000  0.5024690000000  0.6013240000000 1.0
C      1  0.4761610000000  0.5145400000000  0.4647340000000 1.0
C      1  0.5541070000000  0.4933080000000  0.5261690000000 1.0
C      1  0.4294360000000  0.5790290000000  0.5099430000000 1.0
C      1  0.4433930000000  0.5578070000000  0.4314390000000 1.0
C      1  0.5449330000000  0.5366470000000  0.4820380000000 1.0
C      1  0.4259640000000  0.4930030000000  0.4183590000000 1.0
C      1  0.5523250000000  0.4390080000000  0.4591540000000 1.0
C      1  0.5843980000000  0.5494670000000  0.5309150000000 1.0
C      1  0.3923720000000  0.4843940000000  0.4971170000000 1.0
C      1  0.4368710000000  0.5787260000000  0.4796310000000 1.0
C      1  0.4828050000000  0.4071230000000  0.5241750000000 1.0
C      1  0.4915430000000  0.5612370000000  0.5685770000000 1.0
C      1  0.4939730000000  0.5557620000000  0.4917080000000 1.0
C      1  0.5252550000000  0.5351270000000  0.5054840000000 1.0
C      1  0.5805720000000  0.5317080000000  0.4344130000000 1.0
C      1  0.5332170000000  0.4642290000000  0.4522040000000 1.0
C      1  0.5585970000000  0.5661050000000  0.4073410000000 1.0
C      1  0.4172650000000  0.4817750000000  0.5594130000000 1.0
C      1  0.3971900000000  0.4644660000000  0.4698380000000 1.0
C      1  0.5494180000000  0.5141900000000  0.5901380000000 1.0
C      1  0.5116390000000  0.5506700000000  0.6014830000000 1.0
C      1  0.4495300000000  0.5756290000000  0.4505700000000 1.0
C      1  0.5911860000000  0.4730570000000  0.4722810000000 1.0
C      1  0.4840760000000  0.4877310000000  0.4999390000000 1.0
C      1  0.5236700000000  0.5115900000000  0.4407930000000 1.0
C      1  0.4829200000000  0.4376720000000  0.6031880000000 1.0
C      1  0.5084240000000  0.4221940000000  0.4097160000000 1.0
C      1  0.5528270000000  0.4903510000000  0.4066190000000 1.0
C      1  0.3856730000000  0.5126800000000  0.4869210000000 1.0
C      1  0.5101150000000  0.5423240000000  0.4191390000000 1.0
C      1  0.5026460000000  0.4809840000000  0.5929130000000 1.0
C      1  0.5416590000000  0.5387760000000  0.4177030000000 1.0
C      1  0.4498790000000  0.4118690000000  0.5265720000000 1.0
C      1  0.4363910000000  0.5241250000000  0.5295250000000 1.0
C      1  0.4178000000000  0.5143810000000  0.4279400000000 1.0
C      1  0.5775320000000  0.4163570000000  0.5410720000000 1.0
C      1  0.5161010000000  0.4038610000000  0.4829780000000 1.0
C      1  0.5267750000000  0.6254750000000  0.5323810000000 1.0
C      1  0.5380660000000  0.4226540000000  0.4969010000000 1.0
C      1  0.5124630000000  0.5190600000000  0.5528490000000 1.0
C      1  0.5697650000000  0.5142020000000  0.5670680000000 1.0
C      1  0.4811140000000  0.5765260000000  0.5335680000000 1.0
C      1  0.4534630000000  0.4344200000000  0.4313140000000 1.0
C      1  0.4890640000000  0.5977530000000  0.4274840000000 1.0
C      1  0.4881470000000  0.5326260000000  0.5965540000000 1.0
C      1  0.5037190000000  0.4281300000000  0.5483050000000 1.0
C      1  0.5515440000000  0.4365220000000  0.5317000000000 1.0
C      1  0.5178040000000  0.5086910000000  0.5801580000000 1.0
C      1  0.4849190000000  0.5782490000000  0.3895420000000 1.0
C      1  0.4067090000000  0.5616710000000  0.5223070000000 1.0
C      1  0.4781630000000  0.4390020000000  0.5201080000000 1.0
C      1  0.5380750000000  0.5216640000000  0.5319060000000 1.0
C      1  0.4486850000000  0.5227590000000  0.5571840000000 1.0
C      1  0.5837980000000  0.4450360000000  0.5237330000000 1.0
C      1  0.6078820000000  0.5066410000000  0.5068130000000 1.0
C      1  0.4843460000000  0.4738580000000  0.3997570000000 1.0
C      1  0.4967820000000  0.4117680000000  0.5982990000000 1.0
C      1  0.5048870000000  0.4647470000000  0.4711490000000 1.0
C      1  0.4426670000000  0.4706740000000  0.5414110000000 1.0
C      1  0.5218880000000  0.4422940000000  0.5275310000000 1.0
C      1  0.5035540000000  0.4119820000000  0.4552710000000 1.0
C      1  0.4053070000000  0.4528900000000  0.4986200000000 1.0
C      1  0.3963110000000  0.5363540000000  0.5033610000000 1.0
C      1  0.5179200000000  0.4584950000000  0.4235180000000 1.0
C      1  0.5269030000000  0.4443800000000  0.3951520000000 1.0
C      1  0.4757250000000  0.5320550000000  0.4915030000000 1.0
C      1  0.4701340000000  0.4841010000000  0.5558210000000 1.0
C      1  0.3947770000000  0.4879910000000  0.4471350000000 1.0
C      1  0.4785960000000  0.5875220000000  0.4506870000000 1.0
C      1  0.5540860000000  0.4599940000000  0.4065290000000 1.0
C      1  0.4677990000000  0.5140010000000  0.4257190000000 1.0
C      1  0.5233140000000  0.4788650000000  0.4954910000000 1.0
C      1  0.5933170000000  0.5441590000000  0.4843100000000 1.0
C      1  0.4426230000000  0.4955790000000  0.5724630000000 1.0
C      1  0.5723170000000  0.4724860000000  0.4505110000000 1.0
C      1  0.4973940000000  0.5604610000000  0.4041960000000 1.0
C      1  0.4871670000000  0.5723150000000  0.5995880000000 1.0
END
