TITL C-2778436-5916-1174 -0.000701700164458467 125000 -1116.06627169287 0 0 190 (C1) n - 1
REM
REM in /home/nfs/bkarasulu/CARBON/AIRSS/Generating-Clusters/REBO/Only-C1/SD-CG/HFTN-CG
REM
REM
REM
REM
REM
REM ./C.cell (11c1c37f851c82e70ff6c80c92926a4b)
REM
REM compiler GCC version 9.2.1 20190827 (Red Hat 9.2.1-1)
REM options -cpp -mtune=generic -march=x86-64 -g -O0 -fpre-include=/usr/include/finclude/math-vector-fortran.h
REM seed -1206000657 -398986095 -1180019419 1902638055 -1727299297 778908921 1227229203 -631127238 934485451 -1612442888 1041693717 -313122136 562639432 -1358090380 1177990749 -1075067605 -1144976160 -1398891221 -95562356 2052082394 198639746 -1214402380 1085871705 -1728386190 -1027746786 1181350780 313183541 -609033512 -588497493 1180996223 712169588 1039982135 1908286698
REM
CELL 1.54180   50.00000   50.00000   50.00000   90.00000   90.00000   90.00000
LATT -1
SFAC C  
C      1  0.5713660000000  0.5318700000000  0.5754450000000 1.0
C      1  0.4403280000000  0.4456010000000  0.4378660000000 1.0
C      1  0.4777670000000  0.5477050000000  0.5854500000000 1.0
C      1  0.5102200000000  0.4016870000000  0.4608380000000 1.0
C      1  0.4528650000000  0.5123820000000  0.4559000000000 1.0
C      1  0.5237480000000  0.6166930000000  0.5142330000000 1.0
C      1  0.5089670000000  0.5560780000000  0.4019680000000 1.0
C      1  0.5546220000000  0.4644260000000  0.5152060000000 1.0
C      1  0.5176550000000  0.4833200000000  0.5504740000000 1.0
C      1  0.5764970000000  0.5436680000000  0.5279900000000 1.0
C      1  0.5425600000000  0.5138750000000  0.4155720000000 1.0
C      1  0.4956820000000  0.4521140000000  0.6106640000000 1.0
C      1  0.4184760000000  0.5027440000000  0.5385760000000 1.0
C      1  0.4208590000000  0.4445050000000  0.4659290000000 1.0
C      1  0.5176200000000  0.5020860000000  0.5258620000000 1.0
C      1  0.4466150000000  0.4547900000000  0.4076470000000 1.0
C      1  0.5810090000000  0.5157690000000  0.4860640000000 1.0
C      1  0.4183780000000  0.5148390000000  0.5684420000000 1.0
C      1  0.4826910000000  0.4096920000000  0.4418700000000 1.0
C      1  0.5290190000000  0.5261890000000  0.5556720000000 1.0
C      1  0.4685270000000  0.4645340000000  0.6012070000000 1.0
C      1  0.5367560000000  0.4319710000000  0.4118810000000 1.0
C      1  0.4040580000000  0.5299350000000  0.4565820000000 1.0
C      1  0.4666950000000  0.5766130000000  0.4118860000000 1.0
C      1  0.5230070000000  0.5522800000000  0.5130090000000 1.0
C      1  0.5228900000000  0.3960080000000  0.5268580000000 1.0
C      1  0.4459620000000  0.4731260000000  0.4545170000000 1.0
C      1  0.4264830000000  0.5802720000000  0.4834340000000 1.0
C      1  0.4908370000000  0.5104270000000  0.4194650000000 1.0
C      1  0.4898860000000  0.4868600000000  0.5905320000000 1.0
C      1  0.4529530000000  0.5068540000000  0.4969970000000 1.0
C      1  0.5564640000000  0.5790500000000  0.5106530000000 1.0
C      1  0.5136730000000  0.4719400000000  0.6189500000000 1.0
C      1  0.5359560000000  0.4858950000000  0.4820170000000 1.0
C      1  0.5784720000000  0.4519260000000  0.5673660000000 1.0
C      1  0.4482100000000  0.3996560000000  0.5016370000000 1.0
C      1  0.3973210000000  0.5302890000000  0.5238880000000 1.0
C      1  0.5255200000000  0.4739150000000  0.3888290000000 1.0
C      1  0.5324270000000  0.4569070000000  0.5656160000000 1.0
C      1  0.5615600000000  0.5671840000000  0.4781730000000 1.0
C      1  0.5629150000000  0.4255530000000  0.5254840000000 1.0
C      1  0.5308220000000  0.6043810000000  0.4936840000000 1.0
C      1  0.5192600000000  0.5266860000000  0.5851070000000 1.0
C      1  0.5224150000000  0.4953480000000  0.5979900000000 1.0
C      1  0.4971090000000  0.5712810000000  0.5916380000000 1.0
C      1  0.4719090000000  0.4323790000000  0.4638020000000 1.0
C      1  0.5915600000000  0.4710460000000  0.5283590000000 1.0
C      1  0.4635740000000  0.3860460000000  0.4577250000000 1.0
C      1  0.4953150000000  0.4486480000000  0.4160180000000 1.0
C      1  0.5256860000000  0.5622530000000  0.4491520000000 1.0
C      1  0.5852580000000  0.5078530000000  0.5623530000000 1.0
C      1  0.4026610000000  0.4923330000000  0.4935020000000 1.0
C      1  0.5246810000000  0.5721030000000  0.4874350000000 1.0
C      1  0.4392250000000  0.5090360000000  0.5860260000000 1.0
C      1  0.5291420000000  0.5414160000000  0.4749000000000 1.0
C      1  0.5660610000000  0.4900700000000  0.5301510000000 1.0
C      1  0.5944270000000  0.5175180000000  0.5332040000000 1.0
C      1  0.5823770000000  0.4360660000000  0.4568870000000 1.0
C      1  0.5534990000000  0.5702570000000  0.4393150000000 1.0
C      1  0.4114350000000  0.5567680000000  0.5005160000000 1.0
C      1  0.5060810000000  0.4206950000000  0.5108930000000 1.0
C      1  0.4240520000000  0.4569790000000  0.5415370000000 1.0
C      1  0.5365250000000  0.4037130000000  0.4756610000000 1.0
C      1  0.6042700000000  0.4732450000000  0.5021030000000 1.0
C      1  0.5987710000000  0.5041660000000  0.5076590000000 1.0
C      1  0.5701160000000  0.4025500000000  0.5060400000000 1.0
C      1  0.4175080000000  0.5108470000000  0.4316200000000 1.0
C      1  0.5052900000000  0.5317570000000  0.5326310000000 1.0
C      1  0.5846650000000  0.4139090000000  0.4821620000000 1.0
C      1  0.5670690000000  0.4614820000000  0.4871610000000 1.0
C      1  0.5046140000000  0.4275830000000  0.5954160000000 1.0
C      1  0.4908110000000  0.5037610000000  0.5083770000000 1.0
C      1  0.4551040000000  0.5537800000000  0.5141910000000 1.0
C      1  0.5934320000000  0.5292300000000  0.4507300000000 1.0
C      1  0.4985870000000  0.4277050000000  0.5622490000000 1.0
C      1  0.4576230000000  0.5258130000000  0.5996410000000 1.0
C      1  0.4242330000000  0.5070780000000  0.4717220000000 1.0
C      1  0.5265060000000  0.5549230000000  0.5981970000000 1.0
C      1  0.5884230000000  0.5674820000000  0.5068450000000 1.0
C      1  0.5552310000000  0.5366420000000  0.5989910000000 1.0
C      1  0.5893880000000  0.5476440000000  0.4791790000000 1.0
C      1  0.4795170000000  0.4863000000000  0.3885710000000 1.0
C      1  0.5768840000000  0.5948550000000  0.4881790000000 1.0
C      1  0.4768730000000  0.5690160000000  0.5371980000000 1.0
C      1  0.5342190000000  0.5796400000000  0.5802190000000 1.0
C      1  0.5100250000000  0.5965910000000  0.5726840000000 1.0
C      1  0.4863530000000  0.3923970000000  0.4772800000000 1.0
C      1  0.4894470000000  0.4822300000000  0.5615100000000 1.0
C      1  0.5627730000000  0.4576030000000  0.4466530000000 1.0
C      1  0.5287770000000  0.6011970000000  0.4422870000000 1.0
C      1  0.4451750000000  0.5573540000000  0.4309430000000 1.0
C      1  0.4024660000000  0.4676860000000  0.5172570000000 1.0
C      1  0.5384540000000  0.4264760000000  0.5015100000000 1.0
C      1  0.5442000000000  0.4831310000000  0.5802930000000 1.0
C      1  0.5446140000000  0.5319940000000  0.5255860000000 1.0
C      1  0.4808470000000  0.5993970000000  0.5455710000000 1.0
C      1  0.4375950000000  0.5419490000000  0.4859770000000 1.0
C      1  0.4937160000000  0.5631200000000  0.5108620000000 1.0
C      1  0.4774000000000  0.4797070000000  0.4558320000000 1.0
C      1  0.4724390000000  0.5263470000000  0.5256760000000 1.0
C      1  0.4989390000000  0.5359210000000  0.4370800000000 1.0
C      1  0.5854260000000  0.4459000000000  0.5389980000000 1.0
C      1  0.4821050000000  0.5940380000000  0.5061450000000 1.0
C      1  0.5700260000000  0.5482250000000  0.4440820000000 1.0
C      1  0.4169040000000  0.4837650000000  0.4407860000000 1.0
C      1  0.4777830000000  0.4024110000000  0.5514740000000 1.0
C      1  0.5115410000000  0.5212580000000  0.4877560000000 1.0
C      1  0.4546670000000  0.5991030000000  0.5234130000000 1.0
C      1  0.5182930000000  0.5768790000000  0.4213540000000 1.0
C      1  0.5268840000000  0.5046680000000  0.3869440000000 1.0
C      1  0.5506680000000  0.5745810000000  0.5581570000000 1.0
C      1  0.5571340000000  0.4266820000000  0.5590010000000 1.0
C      1  0.5409610000000  0.5867800000000  0.5343780000000 1.0
C      1  0.5364010000000  0.4278560000000  0.4438540000000 1.0
C      1  0.5612890000000  0.4704680000000  0.4219180000000 1.0
C      1  0.4423610000000  0.4870500000000  0.5229360000000 1.0
C      1  0.4687620000000  0.4339570000000  0.4233780000000 1.0
C      1  0.5339700000000  0.4520360000000  0.5319400000000 1.0
C      1  0.5444110000000  0.4580370000000  0.4027620000000 1.0
C      1  0.4782710000000  0.4130410000000  0.5001650000000 1.0
C      1  0.4631370000000  0.5809960000000  0.4456070000000 1.0
C      1  0.4755980000000  0.5543120000000  0.4856130000000 1.0
C      1  0.5189410000000  0.4829720000000  0.4536110000000 1.0
C      1  0.4780950000000  0.6127320000000  0.4775530000000 1.0
C      1  0.4526560000000  0.4846070000000  0.4043090000000 1.0
C      1  0.5107110000000  0.4660280000000  0.4888400000000 1.0
C      1  0.4730290000000  0.5243820000000  0.4787320000000 1.0
C      1  0.5674920000000  0.4898540000000  0.4727880000000 1.0
C      1  0.4464760000000  0.5318860000000  0.5463780000000 1.0
C      1  0.4475240000000  0.6054970000000  0.4907960000000 1.0
C      1  0.5620340000000  0.4094040000000  0.4569720000000 1.0
C      1  0.4137570000000  0.5407170000000  0.5494310000000 1.0
C      1  0.4543700000000  0.5381200000000  0.4079560000000 1.0
C      1  0.4671430000000  0.4970110000000  0.4306320000000 1.0
C      1  0.4986070000000  0.4656840000000  0.3936880000000 1.0
C      1  0.4506520000000  0.4765380000000  0.4852700000000 1.0
C      1  0.5436280000000  0.5023450000000  0.5088200000000 1.0
C      1  0.4374540000000  0.5142480000000  0.4104810000000 1.0
C      1  0.4849740000000  0.5586670000000  0.4337790000000 1.0
C      1  0.4865620000000  0.4612960000000  0.5352840000000 1.0
C      1  0.4279440000000  0.4600080000000  0.5697660000000 1.0
C      1  0.4507140000000  0.4425450000000  0.5312420000000 1.0
C      1  0.4355070000000  0.5405960000000  0.4535390000000 1.0
C      1  0.5129470000000  0.6048560000000  0.5416450000000 1.0
C      1  0.4811020000000  0.5422320000000  0.3975480000000 1.0
C      1  0.4924940000000  0.4551210000000  0.4644990000000 1.0
C      1  0.4988360000000  0.5860860000000  0.4786860000000 1.0
C      1  0.5183480000000  0.3991870000000  0.5814180000000 1.0
C      1  0.5680300000000  0.5528890000000  0.5562830000000 1.0
C      1  0.5578690000000  0.5959440000000  0.4595080000000 1.0
C      1  0.4293180000000  0.5233700000000  0.5133650000000 1.0
C      1  0.4430530000000  0.5772640000000  0.5716380000000 1.0
C      1  0.4401280000000  0.3957940000000  0.4724920000000 1.0
C      1  0.5138720000000  0.4518930000000  0.4407110000000 1.0
C      1  0.5299480000000  0.5375680000000  0.3951650000000 1.0
C      1  0.4301780000000  0.5753550000000  0.5228290000000 1.0
C      1  0.4210820000000  0.5711810000000  0.5523000000000 1.0
C      1  0.4083450000000  0.4707640000000  0.4677010000000 1.0
C      1  0.4950130000000  0.5032870000000  0.4668720000000 1.0
C      1  0.5065570000000  0.3894260000000  0.5555080000000 1.0
C      1  0.5474200000000  0.5000790000000  0.5522620000000 1.0
C      1  0.4311960000000  0.4620750000000  0.5025570000000 1.0
C      1  0.4586990000000  0.5780580000000  0.4738900000000 1.0
C      1  0.4446230000000  0.4265590000000  0.4724820000000 1.0
C      1  0.4726220000000  0.5894590000000  0.5756790000000 1.0
C      1  0.5061060000000  0.6102430000000  0.4582020000000 1.0
C      1  0.5757160000000  0.4809000000000  0.5728160000000 1.0
C      1  0.5568010000000  0.5295490000000  0.4663730000000 1.0
C      1  0.4894910000000  0.5177180000000  0.5951410000000 1.0
C      1  0.5664160000000  0.4979380000000  0.4237900000000 1.0
C      1  0.4706000000000  0.4412820000000  0.5570840000000 1.0
C      1  0.4947360000000  0.5139960000000  0.3872580000000 1.0
C      1  0.5461910000000  0.4423930000000  0.4726990000000 1.0
C      1  0.5189600000000  0.5086790000000  0.4352930000000 1.0
C      1  0.4603690000000  0.4796380000000  0.5456650000000 1.0
C      1  0.5429270000000  0.3871240000000  0.5046600000000 1.0
C      1  0.5072160000000  0.4516440000000  0.5170690000000 1.0
C      1  0.5256610000000  0.4230880000000  0.5455160000000 1.0
C      1  0.4629020000000  0.5540400000000  0.5601570000000 1.0
C      1  0.5964790000000  0.4460060000000  0.4856820000000 1.0
C      1  0.4535920000000  0.4096760000000  0.5398480000000 1.0
C      1  0.4528450000000  0.4441740000000  0.5816950000000 1.0
C      1  0.4276230000000  0.4121670000000  0.5196810000000 1.0
C      1  0.4132880000000  0.4353220000000  0.5108970000000 1.0
C      1  0.4805440000000  0.4752700000000  0.4981490000000 1.0
C      1  0.4669990000000  0.4447800000000  0.5048320000000 1.0
C      1  0.5354020000000  0.4286680000000  0.5835090000000 1.0
C      1  0.4512240000000  0.4832560000000  0.5783670000000 1.0
C      1  0.3973330000000  0.5266610000000  0.4899860000000 1.0
C      1  0.5810950000000  0.5035480000000  0.4474760000000 1.0
END
