TITL C-2778429-3646-1291 -0.00499571729245887 125000 -803.442184354236 0 0 138 (C1) n - 1
REM
REM in /home/nfs/bkarasulu/CARBON/AIRSS/Generating-Clusters/REBO/Only-C1/SD-CG/HFTN-CG
REM
REM
REM
REM
REM
REM ./C.cell (11c1c37f851c82e70ff6c80c92926a4b)
REM
REM compiler GCC version 9.2.1 20190827 (Red Hat 9.2.1-1)
REM options -cpp -mtune=generic -march=x86-64 -g -O0 -fpre-include=/usr/include/finclude/math-vector-fortran.h
REM seed -2107830241 -2128146681 1167904912 -792348419 1470530658 747367567 -563761372 1437336728 962577476 1799147579 753632162 -1137422589 -1952642256 767227239 -1986454913 2072294448 -265485599 106232856 628764700 1563837837 879498065 185307789 209156720 -1280659989 -444972500 -1422990452 -1656363629 -1095220190 1161268310 1217592492 158861228 -1068966694 -1755722422
REM
CELL 1.54180   50.00000   50.00000   50.00000   90.00000   90.00000   90.00000
LATT -1
SFAC C  
C      1  0.4166190000000  0.5100470000000  0.5412530000000 1.0
C      1  0.4677320000000  0.4621630000000  0.5056690000000 1.0
C      1  0.4551330000000  0.4234370000000  0.5634280000000 1.0
C      1  0.5446730000000  0.4956300000000  0.4153060000000 1.0
C      1  0.4339220000000  0.4362750000000  0.5493240000000 1.0
C      1  0.4574740000000  0.5417070000000  0.5600920000000 1.0
C      1  0.4988100000000  0.5997540000000  0.5201800000000 1.0
C      1  0.4839540000000  0.4417630000000  0.4754020000000 1.0
C      1  0.4948410000000  0.5013790000000  0.5294890000000 1.0
C      1  0.5868700000000  0.4623090000000  0.4787670000000 1.0
C      1  0.5005780000000  0.4384110000000  0.5866180000000 1.0
C      1  0.5218600000000  0.4670250000000  0.5309130000000 1.0
C      1  0.4801500000000  0.4211550000000  0.5753430000000 1.0
C      1  0.4974500000000  0.4602540000000  0.5081620000000 1.0
C      1  0.6118790000000  0.5188740000000  0.4898050000000 1.0
C      1  0.5619230000000  0.4667600000000  0.5362060000000 1.0
C      1  0.5130620000000  0.4198400000000  0.4383310000000 1.0
C      1  0.5518910000000  0.5633380000000  0.5111030000000 1.0
C      1  0.4357770000000  0.4663510000000  0.4372150000000 1.0
C      1  0.5075450000000  0.4862670000000  0.5768220000000 1.0
C      1  0.4984400000000  0.4466920000000  0.5455100000000 1.0
C      1  0.5644770000000  0.5183210000000  0.5779240000000 1.0
C      1  0.5863320000000  0.5309470000000  0.4911460000000 1.0
C      1  0.5323730000000  0.4920380000000  0.4442490000000 1.0
C      1  0.5008410000000  0.4626800000000  0.4135910000000 1.0
C      1  0.5055530000000  0.5261140000000  0.4296400000000 1.0
C      1  0.5764800000000  0.5203400000000  0.5464510000000 1.0
C      1  0.5444510000000  0.5879670000000  0.4573810000000 1.0
C      1  0.5046380000000  0.4972560000000  0.4625220000000 1.0
C      1  0.5068930000000  0.5102990000000  0.4082420000000 1.0
C      1  0.5072480000000  0.5945020000000  0.4876350000000 1.0
C      1  0.5602710000000  0.4382920000000  0.5405130000000 1.0
C      1  0.4737370000000  0.4287090000000  0.5039190000000 1.0
C      1  0.5387550000000  0.4702240000000  0.5956010000000 1.0
C      1  0.4585500000000  0.4443830000000  0.4379460000000 1.0
C      1  0.5437020000000  0.4632080000000  0.4523220000000 1.0
C      1  0.4914540000000  0.4863080000000  0.4022850000000 1.0
C      1  0.4714240000000  0.5276940000000  0.5080430000000 1.0
C      1  0.5092600000000  0.4513530000000  0.4364700000000 1.0
C      1  0.5398080000000  0.4301710000000  0.5596320000000 1.0
C      1  0.4600690000000  0.5183680000000  0.5372920000000 1.0
C      1  0.4229710000000  0.5470490000000  0.4635510000000 1.0
C      1  0.5613700000000  0.4223990000000  0.5163600000000 1.0
C      1  0.5164850000000  0.5936470000000  0.4575760000000 1.0
C      1  0.5660020000000  0.4575800000000  0.4340590000000 1.0
C      1  0.5046060000000  0.4637550000000  0.4654710000000 1.0
C      1  0.4176720000000  0.4669070000000  0.4660690000000 1.0
C      1  0.5209190000000  0.5545510000000  0.4274750000000 1.0
C      1  0.5164340000000  0.4360450000000  0.4979160000000 1.0
C      1  0.4617220000000  0.5346310000000  0.4781200000000 1.0
C      1  0.5161310000000  0.5651470000000  0.5287520000000 1.0
C      1  0.5260170000000  0.5412820000000  0.5063130000000 1.0
C      1  0.4638970000000  0.5175990000000  0.5888740000000 1.0
C      1  0.5202040000000  0.4145600000000  0.5161670000000 1.0
C      1  0.5575660000000  0.4878300000000  0.5822990000000 1.0
C      1  0.4304690000000  0.5183020000000  0.4375490000000 1.0
C      1  0.4266150000000  0.5384080000000  0.5451550000000 1.0
C      1  0.5084160000000  0.5311990000000  0.5843230000000 1.0
C      1  0.4458220000000  0.5094230000000  0.4666860000000 1.0
C      1  0.5158920000000  0.4227240000000  0.5437310000000 1.0
C      1  0.4794430000000  0.5663340000000  0.5643780000000 1.0
C      1  0.5303480000000  0.5897870000000  0.5113280000000 1.0
C      1  0.5779400000000  0.5416730000000  0.4669010000000 1.0
C      1  0.4661000000000  0.5736870000000  0.4644600000000 1.0
C      1  0.6157860000000  0.5029820000000  0.4675820000000 1.0
C      1  0.5721900000000  0.5532870000000  0.5366030000000 1.0
C      1  0.5300930000000  0.4432200000000  0.5840850000000 1.0
C      1  0.4538180000000  0.4103960000000  0.5057690000000 1.0
C      1  0.4053800000000  0.4920620000000  0.4863070000000 1.0
C      1  0.4281480000000  0.4907190000000  0.5583950000000 1.0
C      1  0.5919320000000  0.4937770000000  0.4546800000000 1.0
C      1  0.5683380000000  0.4879760000000  0.5531200000000 1.0
C      1  0.5382540000000  0.4438010000000  0.4733940000000 1.0
C      1  0.5347010000000  0.5412420000000  0.5396160000000 1.0
C      1  0.4537570000000  0.4821810000000  0.4813120000000 1.0
C      1  0.5074630000000  0.5192810000000  0.5550590000000 1.0
C      1  0.4740270000000  0.4572540000000  0.5535990000000 1.0
C      1  0.5150420000000  0.5191450000000  0.4864010000000 1.0
C      1  0.4819410000000  0.5034270000000  0.5670760000000 1.0
C      1  0.5271440000000  0.4912090000000  0.5503930000000 1.0
C      1  0.4414560000000  0.5331770000000  0.4183720000000 1.0
C      1  0.4327520000000  0.4661700000000  0.5451050000000 1.0
C      1  0.4389930000000  0.4712000000000  0.5167730000000 1.0
C      1  0.4908280000000  0.5791740000000  0.5422970000000 1.0
C      1  0.5905950000000  0.4633480000000  0.4483990000000 1.0
C      1  0.4467010000000  0.5584740000000  0.4497380000000 1.0
C      1  0.4894020000000  0.4641740000000  0.5898400000000 1.0
C      1  0.4623940000000  0.5767900000000  0.5148960000000 1.0
C      1  0.5298180000000  0.3900380000000  0.5096080000000 1.0
C      1  0.4950510000000  0.5664250000000  0.4773340000000 1.0
C      1  0.4684760000000  0.4861310000000  0.5441780000000 1.0
C      1  0.5536920000000  0.5473330000000  0.5648740000000 1.0
C      1  0.5680440000000  0.4820490000000  0.4879740000000 1.0
C      1  0.5369640000000  0.5205880000000  0.4622320000000 1.0
C      1  0.3988600000000  0.5365070000000  0.5095850000000 1.0
C      1  0.5694350000000  0.5275820000000  0.5147990000000 1.0
C      1  0.4867830000000  0.5327970000000  0.4576690000000 1.0
C      1  0.4777110000000  0.5035860000000  0.4465180000000 1.0
C      1  0.4142800000000  0.4637380000000  0.5000370000000 1.0
C      1  0.5479180000000  0.4743600000000  0.5091290000000 1.0
C      1  0.5145550000000  0.4877970000000  0.6094290000000 1.0
C      1  0.4942870000000  0.4125880000000  0.4652910000000 1.0
C      1  0.5494530000000  0.5481320000000  0.4168970000000 1.0
C      1  0.5487150000000  0.5202500000000  0.4048110000000 1.0
C      1  0.5183860000000  0.5012800000000  0.5108060000000 1.0
C      1  0.4611180000000  0.4676880000000  0.5818930000000 1.0
C      1  0.4816800000000  0.5567630000000  0.5047940000000 1.0
C      1  0.5561380000000  0.5806880000000  0.4826950000000 1.0
C      1  0.4178600000000  0.4376040000000  0.5216860000000 1.0
C      1  0.4791600000000  0.4250880000000  0.4372470000000 1.0
C      1  0.4033090000000  0.5091240000000  0.5148380000000 1.0
C      1  0.5207190000000  0.4752940000000  0.4918250000000 1.0
C      1  0.4548370000000  0.4527470000000  0.4691940000000 1.0
C      1  0.4683980000000  0.5037600000000  0.4168180000000 1.0
C      1  0.5516090000000  0.4183910000000  0.4917040000000 1.0
C      1  0.5279340000000  0.4119920000000  0.4679850000000 1.0
C      1  0.4245260000000  0.5545780000000  0.5150560000000 1.0
C      1  0.4537890000000  0.4993910000000  0.5097580000000 1.0
C      1  0.5170590000000  0.5484290000000  0.4599860000000 1.0
C      1  0.4522410000000  0.5881310000000  0.4882230000000 1.0
C      1  0.4707450000000  0.5381190000000  0.4141690000000 1.0
C      1  0.4973140000000  0.5848930000000  0.4378020000000 1.0
C      1  0.5307850000000  0.5560390000000  0.5841020000000 1.0
C      1  0.4452350000000  0.5664340000000  0.5392770000000 1.0
C      1  0.5648230000000  0.5038960000000  0.4675820000000 1.0
C      1  0.4389740000000  0.5576300000000  0.4889520000000 1.0
C      1  0.5609670000000  0.4725400000000  0.4098350000000 1.0
C      1  0.5559780000000  0.5758780000000  0.4349410000000 1.0
C      1  0.4281120000000  0.4209900000000  0.4995750000000 1.0
C      1  0.4417980000000  0.4855460000000  0.4181870000000 1.0
C      1  0.4279760000000  0.4357270000000  0.4753550000000 1.0
C      1  0.4460400000000  0.4926830000000  0.5808990000000 1.0
C      1  0.4125850000000  0.5151820000000  0.4661510000000 1.0
C      1  0.4983660000000  0.5616980000000  0.5845460000000 1.0
C      1  0.5422640000000  0.5117440000000  0.5278220000000 1.0
C      1  0.4939850000000  0.5121470000000  0.6040060000000 1.0
C      1  0.4878790000000  0.5604000000000  0.4203750000000 1.0
C      1  0.5723000000000  0.5500270000000  0.4414900000000 1.0
END
