TITL C-2778422-5617-1325 -0.000229719409480262 125000 -201.792906141442 0 0 36 (C1) n - 1
REM
REM in /home/nfs/bkarasulu/CARBON/AIRSS/Generating-Clusters/REBO/Only-C1/SD-CG/HFTN-CG
REM
REM
REM
REM
REM
REM ./C.cell (11c1c37f851c82e70ff6c80c92926a4b)
REM
REM compiler GCC version 9.2.1 20190827 (Red Hat 9.2.1-1)
REM options -cpp -mtune=generic -march=x86-64 -g -O0 -fpre-include=/usr/include/finclude/math-vector-fortran.h
REM seed -702181890 -375935042 -357984873 2045898976 391641861 1937283819 -1725255708 -1112631819 -886819475 674307859 -1220062807 -1725346669 634527649 -1724233978 391131879 -1991391950 2131003233 876944333 -827982864 988531906 1872008648 304222745 -181323585 185348290 -1666935614 -232805998 722077669 946450733 2146066269 -166596333 1547892261 1487561807 -258449612
REM
CELL 1.54180   50.00000   50.00000   50.00000   90.00000   90.00000   90.00000
LATT -1
SFAC C  
C      1  0.5028450000000  0.5733990000000  0.4937380000000 1.0
C      1  0.5484780000000  0.5007930000000  0.5088060000000 1.0
C      1  0.4939830000000  0.4424210000000  0.4930440000000 1.0
C      1  0.4952460000000  0.4553500000000  0.4664560000000 1.0
C      1  0.5144980000000  0.4998190000000  0.4674230000000 1.0
C      1  0.4530060000000  0.4580440000000  0.5073230000000 1.0
C      1  0.4431250000000  0.4986420000000  0.5341050000000 1.0
C      1  0.5237550000000  0.4496560000000  0.4548480000000 1.0
C      1  0.5028870000000  0.5465350000000  0.4513390000000 1.0
C      1  0.5075150000000  0.4890240000000  0.5419450000000 1.0
C      1  0.5353260000000  0.4594390000000  0.4822530000000 1.0
C      1  0.5349970000000  0.4884080000000  0.4838740000000 1.0
C      1  0.4638080000000  0.5456020000000  0.4856110000000 1.0
C      1  0.5047650000000  0.5326850000000  0.5203040000000 1.0
C      1  0.4634960000000  0.5104370000000  0.5205590000000 1.0
C      1  0.5204580000000  0.4452300000000  0.5034910000000 1.0
C      1  0.4572970000000  0.5665610000000  0.5054860000000 1.0
C      1  0.5338170000000  0.4422540000000  0.4312230000000 1.0
C      1  0.4240450000000  0.4647630000000  0.4684680000000 1.0
C      1  0.4688370000000  0.4556650000000  0.5290330000000 1.0
C      1  0.5207080000000  0.5563990000000  0.5082390000000 1.0
C      1  0.4897390000000  0.4841920000000  0.4664400000000 1.0
C      1  0.4900240000000  0.5126110000000  0.5301690000000 1.0
C      1  0.5374020000000  0.5285120000000  0.5188420000000 1.0
C      1  0.4796400000000  0.5836400000000  0.5093240000000 1.0
C      1  0.4892130000000  0.4646800000000  0.5441740000000 1.0
C      1  0.5161480000000  0.5229840000000  0.4519770000000 1.0
C      1  0.4458180000000  0.4712110000000  0.4833880000000 1.0
C      1  0.5340300000000  0.5248110000000  0.5720490000000 1.0
C      1  0.4611590000000  0.5173160000000  0.4918590000000 1.0
C      1  0.5504780000000  0.4604830000000  0.5400270000000 1.0
C      1  0.4638910000000  0.4930240000000  0.4756290000000 1.0
C      1  0.5275460000000  0.5157390000000  0.5482720000000 1.0
C      1  0.4881890000000  0.5574380000000  0.4724520000000 1.0
C      1  0.5371460000000  0.4813980000000  0.5309990000000 1.0
C      1  0.5766850000000  0.5008350000000  0.5068310000000 1.0
END
