TITL C-2778424-3986-173 0.00254286374637334 125000 -603.019670527588 0 0 103 (C1) n - 1
REM
REM in /home/nfs/bkarasulu/CARBON/AIRSS/Generating-Clusters/REBO/Only-C1/SD-CG/HFTN-CG
REM
REM
REM
REM
REM
REM ./C.cell (11c1c37f851c82e70ff6c80c92926a4b)
REM
REM compiler GCC version 9.2.1 20190827 (Red Hat 9.2.1-1)
REM options -cpp -mtune=generic -march=x86-64 -g -O0 -fpre-include=/usr/include/finclude/math-vector-fortran.h
REM seed -980970938 -86484538 -1485932187 1472036511 1322495223 204048185 -249310881 300593465 -292996415 -1661470826 184342925 -1276404 1097359243 74485160 -1287140611 472754960 719570986 -2139952069 1815394464 -523748975 298625132 1444739488 -963148871 515336403 -1935222186 498513796 -63873500 -467817364 1078594469 -2129323281 1036065818 -423176057 -297189220
REM
CELL 1.54180   50.00000   50.00000   50.00000   90.00000   90.00000   90.00000
LATT -1
SFAC C  
C      1  0.4919780000000  0.5630900000000  0.4587340000000 1.0
C      1  0.5769830000000  0.4216040000000  0.5097440000000 1.0
C      1  0.5010350000000  0.5573220000000  0.4292710000000 1.0
C      1  0.4359970000000  0.4727390000000  0.4700740000000 1.0
C      1  0.5755620000000  0.4604940000000  0.5474240000000 1.0
C      1  0.5417540000000  0.5724470000000  0.4850250000000 1.0
C      1  0.5792340000000  0.5318680000000  0.5686910000000 1.0
C      1  0.4739770000000  0.5632060000000  0.5525300000000 1.0
C      1  0.4867390000000  0.4656700000000  0.4283350000000 1.0
C      1  0.5395350000000  0.5504410000000  0.4621380000000 1.0
C      1  0.5303430000000  0.5503030000000  0.4316150000000 1.0
C      1  0.5587420000000  0.4652690000000  0.4013250000000 1.0
C      1  0.4645760000000  0.4922720000000  0.4680710000000 1.0
C      1  0.4799210000000  0.4689990000000  0.5322680000000 1.0
C      1  0.4414220000000  0.5791660000000  0.4766380000000 1.0
C      1  0.4838510000000  0.5241460000000  0.5213740000000 1.0
C      1  0.5308350000000  0.4369970000000  0.5661070000000 1.0
C      1  0.4865320000000  0.4153520000000  0.4433910000000 1.0
C      1  0.5003660000000  0.4087590000000  0.4720250000000 1.0
C      1  0.5124490000000  0.3677030000000  0.4873320000000 1.0
C      1  0.4472080000000  0.5547880000000  0.5503670000000 1.0
C      1  0.5438490000000  0.5183330000000  0.4512580000000 1.0
C      1  0.4997280000000  0.4750120000000  0.5051480000000 1.0
C      1  0.4512960000000  0.4713620000000  0.5505270000000 1.0
C      1  0.5664970000000  0.5087640000000  0.4949140000000 1.0
C      1  0.4419560000000  0.5284410000000  0.5597350000000 1.0
C      1  0.5358680000000  0.4572520000000  0.5028510000000 1.0
C      1  0.5111210000000  0.5241110000000  0.5261190000000 1.0
C      1  0.5244210000000  0.4835430000000  0.4847480000000 1.0
C      1  0.5855150000000  0.4520610000000  0.5007360000000 1.0
C      1  0.5875640000000  0.4116830000000  0.4810150000000 1.0
C      1  0.5138890000000  0.4280380000000  0.4867660000000 1.0
C      1  0.4716730000000  0.4993170000000  0.5192170000000 1.0
C      1  0.5364100000000  0.5113340000000  0.4980310000000 1.0
C      1  0.5511880000000  0.5617310000000  0.5089590000000 1.0
C      1  0.4531600000000  0.4959240000000  0.4977380000000 1.0
C      1  0.4900670000000  0.5040510000000  0.4217050000000 1.0
C      1  0.5799960000000  0.4996880000000  0.5185530000000 1.0
C      1  0.5277030000000  0.4089360000000  0.5237130000000 1.0
C      1  0.4629670000000  0.5153030000000  0.5737390000000 1.0
C      1  0.5267370000000  0.4849660000000  0.5518000000000 1.0
C      1  0.5231380000000  0.5817510000000  0.5292620000000 1.0
C      1  0.4292310000000  0.4876660000000  0.5362000000000 1.0
C      1  0.5207130000000  0.4951950000000  0.5225430000000 1.0
C      1  0.5702450000000  0.4381260000000  0.4743340000000 1.0
C      1  0.5190140000000  0.4983890000000  0.4571490000000 1.0
C      1  0.4739710000000  0.4272030000000  0.5189880000000 1.0
C      1  0.5236660000000  0.5368920000000  0.4875010000000 1.0
C      1  0.4913720000000  0.5548820000000  0.5731060000000 1.0
C      1  0.4850910000000  0.5808570000000  0.4160200000000 1.0
C      1  0.4519940000000  0.5383130000000  0.4386570000000 1.0
C      1  0.4691030000000  0.5927940000000  0.4918970000000 1.0
C      1  0.4639730000000  0.4847310000000  0.5752890000000 1.0
C      1  0.5424210000000  0.4339320000000  0.4807690000000 1.0
C      1  0.5383300000000  0.4733390000000  0.4143440000000 1.0
C      1  0.4180530000000  0.5573270000000  0.4891750000000 1.0
C      1  0.5501120000000  0.5298420000000  0.5516540000000 1.0
C      1  0.5143970000000  0.4828010000000  0.4296070000000 1.0
C      1  0.4258550000000  0.5004510000000  0.4630910000000 1.0
C      1  0.4941360000000  0.5878460000000  0.4722760000000 1.0
C      1  0.4974850000000  0.5957500000000  0.5110380000000 1.0
C      1  0.5701910000000  0.5100020000000  0.4673480000000 1.0
C      1  0.4411380000000  0.5088070000000  0.4402770000000 1.0
C      1  0.4847410000000  0.3854870000000  0.4553790000000 1.0
C      1  0.5116150000000  0.3862210000000  0.5049920000000 1.0
C      1  0.5791120000000  0.5150210000000  0.5419270000000 1.0
C      1  0.4821900000000  0.5325550000000  0.4349310000000 1.0
C      1  0.5207300000000  0.5916170000000  0.4863500000000 1.0
C      1  0.5369050000000  0.5414080000000  0.5275000000000 1.0
C      1  0.5840640000000  0.4714820000000  0.5219290000000 1.0
C      1  0.5542680000000  0.4416680000000  0.5492230000000 1.0
C      1  0.5114750000000  0.5589550000000  0.5072190000000 1.0
C      1  0.4644340000000  0.4881110000000  0.4342960000000 1.0
C      1  0.5187660000000  0.5490940000000  0.5673240000000 1.0
C      1  0.4265620000000  0.5468970000000  0.4586650000000 1.0
C      1  0.4301730000000  0.4820780000000  0.5082680000000 1.0
C      1  0.4625780000000  0.5874870000000  0.4254490000000 1.0
C      1  0.4299460000000  0.4551810000000  0.4941490000000 1.0
C      1  0.4946780000000  0.5096140000000  0.5797930000000 1.0
C      1  0.5248060000000  0.5156260000000  0.5664390000000 1.0
C      1  0.5310050000000  0.5711880000000  0.5534200000000 1.0
C      1  0.5113170000000  0.4145510000000  0.5527210000000 1.0
C      1  0.4430980000000  0.4352910000000  0.5088780000000 1.0
C      1  0.4929080000000  0.5393220000000  0.4771240000000 1.0
C      1  0.4862150000000  0.5676810000000  0.5266950000000 1.0
C      1  0.4176490000000  0.5237210000000  0.4819410000000 1.0
C      1  0.4170670000000  0.5339800000000  0.5144920000000 1.0
C      1  0.4845670000000  0.4393070000000  0.4305710000000 1.0
C      1  0.4541840000000  0.5659240000000  0.5033900000000 1.0
C      1  0.4920440000000  0.4791250000000  0.5862020000000 1.0
C      1  0.4996180000000  0.4424290000000  0.5098090000000 1.0
C      1  0.4901460000000  0.5121640000000  0.4607560000000 1.0
C      1  0.5213160000000  0.4568850000000  0.5328880000000 1.0
C      1  0.4753090000000  0.5439770000000  0.5010440000000 1.0
C      1  0.4936430000000  0.4052010000000  0.5260330000000 1.0
C      1  0.4352540000000  0.5587950000000  0.5249250000000 1.0
C      1  0.4459890000000  0.5710770000000  0.4451180000000 1.0
C      1  0.5484190000000  0.4303560000000  0.5203960000000 1.0
C      1  0.4248420000000  0.5150120000000  0.5408190000000 1.0
C      1  0.4953280000000  0.4442060000000  0.5495180000000 1.0
C      1  0.5443210000000  0.5271850000000  0.4183710000000 1.0
C      1  0.5124740000000  0.4631500000000  0.5712690000000 1.0
C      1  0.4519720000000  0.4415880000000  0.5395130000000 1.0
END
