TITL C-2778434-4341-261 -0.0051295459493669 125000 -574.088944036004 0 0 100 (C1) n - 1
REM
REM in /home/nfs/bkarasulu/CARBON/AIRSS/Generating-Clusters/REBO/Only-C1/SD-CG/HFTN-CG
REM
REM
REM
REM
REM
REM ./C.cell (11c1c37f851c82e70ff6c80c92926a4b)
REM
REM compiler GCC version 9.2.1 20190827 (Red Hat 9.2.1-1)
REM options -cpp -mtune=generic -march=x86-64 -g -O0 -fpre-include=/usr/include/finclude/math-vector-fortran.h
REM seed 1612027224 -1732144761 1236713549 1375645419 -1202990103 -371113358 -512734196 -230101835 521819273 6677961 -2039087477 1313131184 -334662292 -228983109 1937203315 1111737567 1504973291 1007895099 -813961527 -1131374625 -1376546296 -966016305 177621027 -1337854943 695868563 1635520031 1496267940 -1811598299 -524830871 -1526602214 898492411 973182683 -883543915
REM
CELL 1.54180   50.00000   50.00000   50.00000   90.00000   90.00000   90.00000
LATT -1
SFAC C  
C      1  0.5273990000000  0.5087670000000  0.5156780000000 1.0
C      1  0.5001860000000  0.5443840000000  0.4338870000000 1.0
C      1  0.5203090000000  0.4764270000000  0.5817040000000 1.0
C      1  0.4943090000000  0.5038250000000  0.4031580000000 1.0
C      1  0.5361190000000  0.4833510000000  0.5573860000000 1.0
C      1  0.5807940000000  0.5215360000000  0.4999210000000 1.0
C      1  0.4277120000000  0.4638490000000  0.4582970000000 1.0
C      1  0.4822840000000  0.5226850000000  0.4833030000000 1.0
C      1  0.4826350000000  0.4668000000000  0.5706380000000 1.0
C      1  0.4761370000000  0.5638460000000  0.4426800000000 1.0
C      1  0.5093620000000  0.5305540000000  0.5815710000000 1.0
C      1  0.4997660000000  0.5802570000000  0.5454230000000 1.0
C      1  0.4181090000000  0.4927020000000  0.5166390000000 1.0
C      1  0.5125130000000  0.4209970000000  0.4587950000000 1.0
C      1  0.4936100000000  0.5155840000000  0.4337470000000 1.0
C      1  0.5717980000000  0.5301310000000  0.4729380000000 1.0
C      1  0.5566180000000  0.5200170000000  0.5535330000000 1.0
C      1  0.4861660000000  0.4856300000000  0.5003350000000 1.0
C      1  0.4852950000000  0.5636820000000  0.5196260000000 1.0
C      1  0.5407640000000  0.5801270000000  0.4427310000000 1.0
C      1  0.4819800000000  0.4140230000000  0.5029490000000 1.0
C      1  0.5251610000000  0.5594300000000  0.5393190000000 1.0
C      1  0.5292450000000  0.5486480000000  0.4412020000000 1.0
C      1  0.5593220000000  0.5335480000000  0.4356290000000 1.0
C      1  0.4345650000000  0.4391320000000  0.5032240000000 1.0
C      1  0.4470430000000  0.5313880000000  0.5625940000000 1.0
C      1  0.5380830000000  0.5315650000000  0.4692970000000 1.0
C      1  0.5256300000000  0.5068760000000  0.4835690000000 1.0
C      1  0.4778490000000  0.5413410000000  0.5744420000000 1.0
C      1  0.4495630000000  0.5477530000000  0.5327200000000 1.0
C      1  0.5640160000000  0.4809340000000  0.5576550000000 1.0
C      1  0.4686950000000  0.4677390000000  0.4321600000000 1.0
C      1  0.4314550000000  0.5565900000000  0.5054730000000 1.0
C      1  0.4351880000000  0.4760340000000  0.5518410000000 1.0
C      1  0.4679300000000  0.4893240000000  0.5869600000000 1.0
C      1  0.5111670000000  0.4636850000000  0.5083170000000 1.0
C      1  0.4667470000000  0.4663810000000  0.4661380000000 1.0
C      1  0.5842870000000  0.4957190000000  0.5133060000000 1.0
C      1  0.5634060000000  0.5596950000000  0.4581990000000 1.0
C      1  0.5089170000000  0.5425400000000  0.4771360000000 1.0
C      1  0.4989850000000  0.5049520000000  0.4623160000000 1.0
C      1  0.5296190000000  0.5639170000000  0.5054770000000 1.0
C      1  0.5378510000000  0.5742700000000  0.4760650000000 1.0
C      1  0.5778430000000  0.5083860000000  0.4497060000000 1.0
C      1  0.5319750000000  0.5385620000000  0.5654100000000 1.0
C      1  0.5798700000000  0.4664220000000  0.5059390000000 1.0
C      1  0.4766260000000  0.4433300000000  0.5467750000000 1.0
C      1  0.4730680000000  0.4626600000000  0.5194650000000 1.0
C      1  0.5065900000000  0.4431070000000  0.5312360000000 1.0
C      1  0.4837710000000  0.4227010000000  0.4497910000000 1.0
C      1  0.4543300000000  0.4862350000000  0.4877050000000 1.0
C      1  0.4560870000000  0.5337100000000  0.5020860000000 1.0
C      1  0.4307000000000  0.4924150000000  0.4561730000000 1.0
C      1  0.4315040000000  0.4718010000000  0.5026590000000 1.0
C      1  0.5079390000000  0.5896990000000  0.4843660000000 1.0
C      1  0.4518680000000  0.5686960000000  0.4831900000000 1.0
C      1  0.4435310000000  0.5139190000000  0.4800560000000 1.0
C      1  0.5706220000000  0.4827110000000  0.4588690000000 1.0
C      1  0.5416300000000  0.5331670000000  0.5275230000000 1.0
C      1  0.4524480000000  0.5571140000000  0.4566660000000 1.0
C      1  0.4687220000000  0.5106640000000  0.5365060000000 1.0
C      1  0.5119290000000  0.4519890000000  0.5623350000000 1.0
C      1  0.5009350000000  0.4982380000000  0.5882290000000 1.0
C      1  0.4191970000000  0.5263950000000  0.5151920000000 1.0
C      1  0.5301350000000  0.4435810000000  0.4471370000000 1.0
C      1  0.4417230000000  0.5088830000000  0.5300460000000 1.0
C      1  0.5140820000000  0.5912540000000  0.5178530000000 1.0
C      1  0.5204110000000  0.4680110000000  0.4769130000000 1.0
C      1  0.5178020000000  0.4912470000000  0.5364300000000 1.0
C      1  0.5791490000000  0.5012000000000  0.5425620000000 1.0
C      1  0.4675860000000  0.4966750000000  0.4223220000000 1.0
C      1  0.5420390000000  0.4270540000000  0.4989280000000 1.0
C      1  0.5113080000000  0.4141390000000  0.5206920000000 1.0
C      1  0.4426380000000  0.4998410000000  0.5687830000000 1.0
C      1  0.5318830000000  0.4859080000000  0.4501300000000 1.0
C      1  0.5045590000000  0.5411240000000  0.5104250000000 1.0
C      1  0.4806680000000  0.5104240000000  0.5636750000000 1.0
C      1  0.5010900000000  0.5680260000000  0.4619550000000 1.0
C      1  0.4729740000000  0.5612690000000  0.5511330000000 1.0
C      1  0.4425180000000  0.5304730000000  0.4530620000000 1.0
C      1  0.4662100000000  0.4488190000000  0.4928490000000 1.0
C      1  0.4579880000000  0.4260570000000  0.5242730000000 1.0
C      1  0.5604880000000  0.4456650000000  0.4871240000000 1.0
C      1  0.5546520000000  0.4545670000000  0.4595500000000 1.0
C      1  0.4771540000000  0.5784620000000  0.4940000000000 1.0
C      1  0.5707630000000  0.5398800000000  0.5179660000000 1.0
C      1  0.4648850000000  0.4218340000000  0.4740610000000 1.0
C      1  0.4418190000000  0.5086760000000  0.4320790000000 1.0
C      1  0.4402240000000  0.4519710000000  0.5386240000000 1.0
C      1  0.4954460000000  0.4746470000000  0.4602650000000 1.0
C      1  0.5423070000000  0.4251980000000  0.5299300000000 1.0
C      1  0.5398060000000  0.5058090000000  0.4381260000000 1.0
C      1  0.4358570000000  0.4396460000000  0.4692420000000 1.0
C      1  0.5133430000000  0.4152060000000  0.4877620000000 1.0
C      1  0.5409570000000  0.4714910000000  0.5105860000000 1.0
C      1  0.5517090000000  0.4853750000000  0.4848030000000 1.0
C      1  0.4979640000000  0.4510170000000  0.4372880000000 1.0
C      1  0.5575470000000  0.4514750000000  0.5264890000000 1.0
C      1  0.4925090000000  0.4792210000000  0.5404750000000 1.0
C      1  0.4880380000000  0.5133210000000  0.5146050000000 1.0
END
