TITL C-2778431-5191-1184 0.00248477996190448 125000 -380.555293180083 0 0 68 (C1) n - 1
REM
REM in /home/nfs/bkarasulu/CARBON/AIRSS/Generating-Clusters/REBO/Only-C1/SD-CG/HFTN-CG
REM
REM
REM
REM
REM
REM ./C.cell (11c1c37f851c82e70ff6c80c92926a4b)
REM
REM compiler GCC version 9.2.1 20190827 (Red Hat 9.2.1-1)
REM options -cpp -mtune=generic -march=x86-64 -g -O0 -fpre-include=/usr/include/finclude/math-vector-fortran.h
REM seed 128121359 968182271 -758017889 1449709302 -314321438 1017007763 -966064123 -469846419 239213285 92258463 815289785 1291453707 1530043685 -1516687167 -318299863 -960365974 -124545800 1800378599 1872674576 1876909524 -463708178 401904934 -1962911287 1497737954 1824250005 -1293788928 874985055 255581915 -1281639421 1047074488 2012666982 -839567059 -476974422
REM
CELL 1.54180   50.00000   50.00000   50.00000   90.00000   90.00000   90.00000
LATT -1
SFAC C  
C      1  0.5403870000000  0.5694640000000  0.4935480000000 1.0
C      1  0.5124660000000  0.4577450000000  0.4586050000000 1.0
C      1  0.4900580000000  0.4350810000000  0.4635410000000 1.0
C      1  0.5516470000000  0.4815790000000  0.4896500000000 1.0
C      1  0.4309920000000  0.4605490000000  0.5028600000000 1.0
C      1  0.4642490000000  0.4965340000000  0.5054640000000 1.0
C      1  0.4672140000000  0.5334390000000  0.4678170000000 1.0
C      1  0.4406650000000  0.4803640000000  0.4773730000000 1.0
C      1  0.4431470000000  0.5225220000000  0.5028070000000 1.0
C      1  0.5627930000000  0.5289950000000  0.4702620000000 1.0
C      1  0.4966790000000  0.4573360000000  0.5713720000000 1.0
C      1  0.5176020000000  0.4600400000000  0.4276020000000 1.0
C      1  0.4586020000000  0.5194850000000  0.5403950000000 1.0
C      1  0.4907350000000  0.5440900000000  0.4507380000000 1.0
C      1  0.5586180000000  0.5575370000000  0.4710550000000 1.0
C      1  0.5100880000000  0.5928340000000  0.5247660000000 1.0
C      1  0.4959560000000  0.4843940000000  0.4626290000000 1.0
C      1  0.4545560000000  0.4380590000000  0.5028130000000 1.0
C      1  0.4615720000000  0.5123540000000  0.4443340000000 1.0
C      1  0.4476860000000  0.5465370000000  0.5130380000000 1.0
C      1  0.4857110000000  0.4497710000000  0.5004510000000 1.0
C      1  0.4832160000000  0.4444810000000  0.5483220000000 1.0
C      1  0.5047980000000  0.4933760000000  0.5123890000000 1.0
C      1  0.5226830000000  0.4466850000000  0.5678390000000 1.0
C      1  0.5011820000000  0.4780890000000  0.4146060000000 1.0
C      1  0.5310510000000  0.5335380000000  0.5347290000000 1.0
C      1  0.5517000000000  0.4903480000000  0.5608430000000 1.0
C      1  0.4738670000000  0.4749350000000  0.4830390000000 1.0
C      1  0.5295610000000  0.4275220000000  0.4926440000000 1.0
C      1  0.5150420000000  0.4631560000000  0.5107460000000 1.0
C      1  0.4287080000000  0.5039620000000  0.5348670000000 1.0
C      1  0.5328050000000  0.4577060000000  0.4820530000000 1.0
C      1  0.4983560000000  0.4869760000000  0.5767220000000 1.0
C      1  0.5057420000000  0.4245650000000  0.5062780000000 1.0
C      1  0.5310730000000  0.4964090000000  0.5780980000000 1.0
C      1  0.5354410000000  0.5666000000000  0.4540070000000 1.0
C      1  0.4934230000000  0.5683140000000  0.5342530000000 1.0
C      1  0.4806390000000  0.5028210000000  0.5605400000000 1.0
C      1  0.5168400000000  0.5466860000000  0.4946900000000 1.0
C      1  0.4462740000000  0.5510720000000  0.4733410000000 1.0
C      1  0.5452830000000  0.5318960000000  0.5060760000000 1.0
C      1  0.4955530000000  0.5273990000000  0.4296600000000 1.0
C      1  0.5060750000000  0.4323770000000  0.5344420000000 1.0
C      1  0.4475740000000  0.4948920000000  0.5618650000000 1.0
C      1  0.4546160000000  0.4808000000000  0.5314490000000 1.0
C      1  0.4882760000000  0.4964230000000  0.4348900000000 1.0
C      1  0.4815800000000  0.5209080000000  0.4918900000000 1.0
C      1  0.5853100000000  0.5173510000000  0.4589670000000 1.0
C      1  0.4377970000000  0.5082790000000  0.4337190000000 1.0
C      1  0.5113170000000  0.5560360000000  0.4646750000000 1.0
C      1  0.5091120000000  0.5050120000000  0.4823190000000 1.0
C      1  0.5136490000000  0.5003220000000  0.6040700000000 1.0
C      1  0.4931890000000  0.5423510000000  0.5137430000000 1.0
C      1  0.5730810000000  0.5438760000000  0.5059070000000 1.0
C      1  0.4245450000000  0.4939510000000  0.5038830000000 1.0
C      1  0.5141180000000  0.5466970000000  0.5474410000000 1.0
C      1  0.4483540000000  0.4561950000000  0.4572730000000 1.0
C      1  0.5326090000000  0.5918120000000  0.5089540000000 1.0
C      1  0.6065740000000  0.5063550000000  0.4483010000000 1.0
C      1  0.4963210000000  0.4802840000000  0.3876180000000 1.0
C      1  0.5400170000000  0.5092390000000  0.4831050000000 1.0
C      1  0.4905120000000  0.5139140000000  0.5301020000000 1.0
C      1  0.5654040000000  0.4792890000000  0.5132410000000 1.0
C      1  0.4615230000000  0.4520360000000  0.5320420000000 1.0
C      1  0.4624570000000  0.5643370000000  0.5267130000000 1.0
C      1  0.5329760000000  0.4523700000000  0.5375550000000 1.0
C      1  0.4633670000000  0.4365490000000  0.4702630000000 1.0
C      1  0.5549860000000  0.4730990000000  0.5387120000000 1.0
END
