TITL C-2778436-5916-642 -0.00518676462584561 125000 -318.752088511327 0 0 56 (C1) n - 1
REM
REM in /home/nfs/bkarasulu/CARBON/AIRSS/Generating-Clusters/REBO/Only-C1/SD-CG/HFTN-CG
REM
REM
REM
REM
REM
REM ./C.cell (11c1c37f851c82e70ff6c80c92926a4b)
REM
REM compiler GCC version 9.2.1 20190827 (Red Hat 9.2.1-1)
REM options -cpp -mtune=generic -march=x86-64 -g -O0 -fpre-include=/usr/include/finclude/math-vector-fortran.h
REM seed 2028531391 544174549 1409468685 129344886 -139495569 -2114434790 -1652984826 -1348192094 463949491 -805942098 775870965 1478096302 1354158487 2079701675 1967961465 868164307 -2028708757 -2070583572 178869434 -108608338 928034523 -717593415 1718631105 1799455868 -711473477 -1563699266 1404451810 1445351833 2013398096 1422348400 322684001 1291159322 508115836
REM
CELL 1.54180   50.00000   50.00000   50.00000   90.00000   90.00000   90.00000
LATT -1
SFAC C  
C      1  0.4972020000000  0.4991970000000  0.5210920000000 1.0
C      1  0.5411420000000  0.4560850000000  0.4720060000000 1.0
C      1  0.4353820000000  0.5139940000000  0.5076920000000 1.0
C      1  0.4894800000000  0.5172810000000  0.4868280000000 1.0
C      1  0.4755810000000  0.4573420000000  0.5458660000000 1.0
C      1  0.5477530000000  0.5020180000000  0.4974920000000 1.0
C      1  0.5618990000000  0.4753070000000  0.4909080000000 1.0
C      1  0.4704220000000  0.4896420000000  0.5491410000000 1.0
C      1  0.5164230000000  0.4362870000000  0.4833010000000 1.0
C      1  0.4439000000000  0.5060410000000  0.5351680000000 1.0
C      1  0.4303820000000  0.5063640000000  0.4781530000000 1.0
C      1  0.5553110000000  0.5226730000000  0.5221350000000 1.0
C      1  0.5222030000000  0.4904010000000  0.5665200000000 1.0
C      1  0.5197160000000  0.5012300000000  0.4873980000000 1.0
C      1  0.5156220000000  0.4780470000000  0.5197260000000 1.0
C      1  0.5573980000000  0.4906040000000  0.4605850000000 1.0
C      1  0.4715510000000  0.4501670000000  0.5159480000000 1.0
C      1  0.4534010000000  0.5252800000000  0.4615870000000 1.0
C      1  0.5232320000000  0.5557200000000  0.5047500000000 1.0
C      1  0.4858950000000  0.4350380000000  0.4982470000000 1.0
C      1  0.5264160000000  0.4613980000000  0.5024450000000 1.0
C      1  0.5490270000000  0.5165970000000  0.4573210000000 1.0
C      1  0.4963350000000  0.5694610000000  0.5415280000000 1.0
C      1  0.5076450000000  0.5293840000000  0.5130170000000 1.0
C      1  0.4558290000000  0.4723490000000  0.5052720000000 1.0
C      1  0.4901190000000  0.4734470000000  0.4390390000000 1.0
C      1  0.5494420000000  0.4593700000000  0.5408770000000 1.0
C      1  0.5403430000000  0.5496840000000  0.4823400000000 1.0
C      1  0.5649040000000  0.4616760000000  0.5187450000000 1.0
C      1  0.5087340000000  0.5160410000000  0.4368090000000 1.0
C      1  0.5032400000000  0.4485160000000  0.5562460000000 1.0
C      1  0.4710150000000  0.4961440000000  0.5049170000000 1.0
C      1  0.5205720000000  0.4848620000000  0.4283790000000 1.0
C      1  0.4810870000000  0.5094020000000  0.4554590000000 1.0
C      1  0.4803190000000  0.4456970000000  0.4450410000000 1.0
C      1  0.5059040000000  0.4882790000000  0.4652630000000 1.0
C      1  0.5241270000000  0.5211260000000  0.5598400000000 1.0
C      1  0.4293160000000  0.4740390000000  0.5162560000000 1.0
C      1  0.5607350000000  0.5320700000000  0.4920880000000 1.0
C      1  0.5420800000000  0.4714090000000  0.4432420000000 1.0
C      1  0.4459280000000  0.4601400000000  0.5600210000000 1.0
C      1  0.4294580000000  0.4778220000000  0.5463640000000 1.0
C      1  0.5176850000000  0.5753770000000  0.5245040000000 1.0
C      1  0.4954160000000  0.5547500000000  0.4594160000000 1.0
C      1  0.4722440000000  0.5513740000000  0.5047630000000 1.0
C      1  0.4774800000000  0.5499470000000  0.5327240000000 1.0
C      1  0.4529650000000  0.5346620000000  0.4939350000000 1.0
C      1  0.5314450000000  0.5305930000000  0.5347870000000 1.0
C      1  0.5237040000000  0.5392340000000  0.4554650000000 1.0
C      1  0.4916820000000  0.4967710000000  0.4142490000000 1.0
C      1  0.4881160000000  0.4319830000000  0.4666730000000 1.0
C      1  0.4892570000000  0.5641690000000  0.4856670000000 1.0
C      1  0.4726150000000  0.5470180000000  0.4455930000000 1.0
C      1  0.4938400000000  0.5079150000000  0.5633940000000 1.0
C      1  0.4701910000000  0.5241910000000  0.5463960000000 1.0
C      1  0.5268890000000  0.4643860000000  0.5573840000000 1.0
END
