TITL C-2778427-5640-1097 -0.000748768143596072 125000 -423.222230426879 0 0 74 (C1) n - 1
REM
REM in /home/nfs/bkarasulu/CARBON/AIRSS/Generating-Clusters/REBO/Only-C1/SD-CG/HFTN-CG
REM
REM
REM
REM
REM
REM ./C.cell (11c1c37f851c82e70ff6c80c92926a4b)
REM
REM compiler GCC version 9.2.1 20190827 (Red Hat 9.2.1-1)
REM options -cpp -mtune=generic -march=x86-64 -g -O0 -fpre-include=/usr/include/finclude/math-vector-fortran.h
REM seed 698633079 -2074747618 1151331011 769759962 -1742605463 -1170033733 1982601483 1842584409 -1694042841 364333445 -366250609 202347494 47138201 -547659664 1957674230 1843482251 164337862 -2061210663 2055959354 -758613796 -21857291 1689672742 -476192033 -83132656 1525626352 -770620690 -944133812 321603365 -2129071900 674727803 1354654927 1790747000 -1865693467
REM
CELL 1.54180   50.00000   50.00000   50.00000   90.00000   90.00000   90.00000
LATT -1
SFAC C  
C      1  0.4677150000000  0.4918390000000  0.4974730000000 1.0
C      1  0.5390880000000  0.5472100000000  0.5538730000000 1.0
C      1  0.5318250000000  0.4294260000000  0.4577710000000 1.0
C      1  0.5085250000000  0.4981750000000  0.5540260000000 1.0
C      1  0.4404540000000  0.5080950000000  0.4438560000000 1.0
C      1  0.5723410000000  0.5011260000000  0.4483600000000 1.0
C      1  0.4499980000000  0.5145490000000  0.5072950000000 1.0
C      1  0.5090190000000  0.4266940000000  0.4801550000000 1.0
C      1  0.4848870000000  0.5492640000000  0.4923940000000 1.0
C      1  0.5346160000000  0.5441930000000  0.4935420000000 1.0
C      1  0.5074310000000  0.4951820000000  0.4964490000000 1.0
C      1  0.5096550000000  0.5708330000000  0.5267190000000 1.0
C      1  0.5227200000000  0.5106530000000  0.4475830000000 1.0
C      1  0.4751850000000  0.4287740000000  0.4786700000000 1.0
C      1  0.5489180000000  0.4509540000000  0.5419420000000 1.0
C      1  0.5793400000000  0.5042940000000  0.4967570000000 1.0
C      1  0.5332700000000  0.4323030000000  0.5015390000000 1.0
C      1  0.4706560000000  0.5362550000000  0.5156350000000 1.0
C      1  0.3468860000000  0.5887430000000  0.5175390000000 1.0
C      1  0.4398530000000  0.5290340000000  0.5527360000000 1.0
C      1  0.4462710000000  0.4769890000000  0.5277880000000 1.0
C      1  0.5394640000000  0.4946380000000  0.4942190000000 1.0
C      1  0.5413910000000  0.5263010000000  0.5306730000000 1.0
C      1  0.5271310000000  0.4423210000000  0.5266020000000 1.0
C      1  0.4777310000000  0.4683030000000  0.4831280000000 1.0
C      1  0.5534100000000  0.5247990000000  0.4514630000000 1.0
C      1  0.3893300000000  0.5632760000000  0.4990510000000 1.0
C      1  0.5293770000000  0.4721930000000  0.4561880000000 1.0
C      1  0.5589590000000  0.4358650000000  0.4930470000000 1.0
C      1  0.4866580000000  0.5482830000000  0.5638460000000 1.0
C      1  0.5838720000000  0.4885310000000  0.4711860000000 1.0
C      1  0.4661230000000  0.4498830000000  0.4573040000000 1.0
C      1  0.5379180000000  0.5208960000000  0.4122200000000 1.0
C      1  0.5757670000000  0.4574940000000  0.4733340000000 1.0
C      1  0.5721540000000  0.5191110000000  0.5267070000000 1.0
C      1  0.5890140000000  0.5413070000000  0.5742030000000 1.0
C      1  0.4705820000000  0.5496250000000  0.4686390000000 1.0
C      1  0.4883240000000  0.4814220000000  0.5210540000000 1.0
C      1  0.4373260000000  0.5065260000000  0.5352300000000 1.0
C      1  0.4448000000000  0.4599020000000  0.5042160000000 1.0
C      1  0.4896770000000  0.5203990000000  0.5355690000000 1.0
C      1  0.4616820000000  0.5471510000000  0.5451550000000 1.0
C      1  0.5015690000000  0.4665790000000  0.4198600000000 1.0
C      1  0.4753120000000  0.5164190000000  0.5661550000000 1.0
C      1  0.5107950000000  0.5583260000000  0.5008680000000 1.0
C      1  0.5301820000000  0.5413240000000  0.4338840000000 1.0
C      1  0.4256470000000  0.4998040000000  0.4696780000000 1.0
C      1  0.4840410000000  0.4754520000000  0.4442950000000 1.0
C      1  0.4372030000000  0.4726140000000  0.4794930000000 1.0
C      1  0.5119910000000  0.5579840000000  0.5525420000000 1.0
C      1  0.5006510000000  0.4560440000000  0.4927810000000 1.0
C      1  0.5536960000000  0.4405280000000  0.4537760000000 1.0
C      1  0.5039820000000  0.4913890000000  0.4639160000000 1.0
C      1  0.4773200000000  0.4307230000000  0.5268630000000 1.0
C      1  0.4956740000000  0.4693570000000  0.5577920000000 1.0
C      1  0.5176940000000  0.5095290000000  0.5242870000000 1.0
C      1  0.5515410000000  0.5219810000000  0.4924700000000 1.0
C      1  0.5473630000000  0.4736890000000  0.4770250000000 1.0
C      1  0.5371970000000  0.5170580000000  0.5979660000000 1.0
C      1  0.4286480000000  0.5230740000000  0.4884820000000 1.0
C      1  0.5707180000000  0.4666290000000  0.5387420000000 1.0
C      1  0.3679380000000  0.5761120000000  0.5083690000000 1.0
C      1  0.5285350000000  0.4672060000000  0.4267840000000 1.0
C      1  0.4514770000000  0.5338100000000  0.4466490000000 1.0
C      1  0.5466560000000  0.4938220000000  0.4274050000000 1.0
C      1  0.4514770000000  0.4784150000000  0.4487160000000 1.0
C      1  0.5697080000000  0.5367180000000  0.5553200000000 1.0
C      1  0.4700830000000  0.4885110000000  0.5493120000000 1.0
C      1  0.4994840000000  0.4512160000000  0.5324470000000 1.0
C      1  0.4374910000000  0.5506470000000  0.4716500000000 1.0
C      1  0.4101270000000  0.5507980000000  0.4899920000000 1.0
C      1  0.4618390000000  0.4355700000000  0.5035510000000 1.0
C      1  0.5805450000000  0.4874440000000  0.5259360000000 1.0
C      1  0.5240750000000  0.5084160000000  0.5778570000000 1.0
END
