TITL C-2778424-3986-935 -0.0013982158886269 125000 -519.021586088549 0 0 89 (C1) n - 1
REM
REM in /home/nfs/bkarasulu/CARBON/AIRSS/Generating-Clusters/REBO/Only-C1/SD-CG/HFTN-CG
REM
REM
REM
REM
REM
REM ./C.cell (11c1c37f851c82e70ff6c80c92926a4b)
REM
REM compiler GCC version 9.2.1 20190827 (Red Hat 9.2.1-1)
REM options -cpp -mtune=generic -march=x86-64 -g -O0 -fpre-include=/usr/include/finclude/math-vector-fortran.h
REM seed 1895607181 1697829240 -1794072703 1212342643 478483713 -631006329 1027240182 1185199188 49065170 -1894098506 397731145 1991429696 -1411879718 887732635 816740073 -616283818 -668916521 -955178169 1163719592 1909414207 1584683097 -1734718033 -1510823405 -1912517150 1421568203 -2015487055 -65081417 1907992814 60364935 -957614896 1056324341 695217848 1750016655
REM
CELL 1.54180   50.00000   50.00000   50.00000   90.00000   90.00000   90.00000
LATT -1
SFAC C  
C      1  0.4922250000000  0.5023660000000  0.4975480000000 1.0
C      1  0.4693490000000  0.4245750000000  0.4702800000000 1.0
C      1  0.4714200000000  0.5245800000000  0.4873260000000 1.0
C      1  0.4953180000000  0.4834640000000  0.5862180000000 1.0
C      1  0.5758180000000  0.4544320000000  0.4950220000000 1.0
C      1  0.4823980000000  0.4816980000000  0.4531950000000 1.0
C      1  0.5720350000000  0.4532150000000  0.5247740000000 1.0
C      1  0.4561360000000  0.5671820000000  0.4726940000000 1.0
C      1  0.4663360000000  0.5420080000000  0.5135440000000 1.0
C      1  0.5466090000000  0.5676000000000  0.5606070000000 1.0
C      1  0.5526530000000  0.5627910000000  0.5099070000000 1.0
C      1  0.5570070000000  0.5943600000000  0.5004220000000 1.0
C      1  0.5593200000000  0.4873840000000  0.5569050000000 1.0
C      1  0.5136860000000  0.5424170000000  0.5285870000000 1.0
C      1  0.5510420000000  0.5110930000000  0.5687850000000 1.0
C      1  0.4360700000000  0.4804800000000  0.5496150000000 1.0
C      1  0.4483760000000  0.4363000000000  0.5240770000000 1.0
C      1  0.5464580000000  0.4425850000000  0.5351290000000 1.0
C      1  0.4442650000000  0.5147750000000  0.4769260000000 1.0
C      1  0.4440260000000  0.5562580000000  0.4961900000000 1.0
C      1  0.5356870000000  0.4678860000000  0.5518260000000 1.0
C      1  0.5650900000000  0.5365780000000  0.5021630000000 1.0
C      1  0.4555690000000  0.4772320000000  0.4692540000000 1.0
C      1  0.5394770000000  0.5593310000000  0.5368710000000 1.0
C      1  0.4196080000000  0.5489370000000  0.5068490000000 1.0
C      1  0.5688950000000  0.4719750000000  0.4672190000000 1.0
C      1  0.4681070000000  0.5220250000000  0.4239780000000 1.0
C      1  0.5066270000000  0.5051580000000  0.5992210000000 1.0
C      1  0.4569570000000  0.5480900000000  0.5547520000000 1.0
C      1  0.5073560000000  0.4849270000000  0.4748700000000 1.0
C      1  0.4561120000000  0.4587370000000  0.4338590000000 1.0
C      1  0.5266410000000  0.5208610000000  0.5876110000000 1.0
C      1  0.4149830000000  0.4967720000000  0.5439590000000 1.0
C      1  0.4797910000000  0.5823280000000  0.4794910000000 1.0
C      1  0.5025310000000  0.4459650000000  0.4400710000000 1.0
C      1  0.5295640000000  0.5682920000000  0.4623960000000 1.0
C      1  0.4726550000000  0.5663260000000  0.5470700000000 1.0
C      1  0.5274790000000  0.5070100000000  0.4586200000000 1.0
C      1  0.5223630000000  0.4615040000000  0.4893250000000 1.0
C      1  0.5294550000000  0.5036640000000  0.5359880000000 1.0
C      1  0.5305180000000  0.4750900000000  0.5186010000000 1.0
C      1  0.3735830000000  0.4920230000000  0.4748500000000 1.0
C      1  0.5165740000000  0.5236080000000  0.5042400000000 1.0
C      1  0.4959530000000  0.5170070000000  0.4183040000000 1.0
C      1  0.4828830000000  0.4516400000000  0.5111400000000 1.0
C      1  0.4924060000000  0.4457730000000  0.5568730000000 1.0
C      1  0.5239840000000  0.5277450000000  0.5556580000000 1.0
C      1  0.4493240000000  0.4528310000000  0.5468630000000 1.0
C      1  0.5712910000000  0.6156070000000  0.5005700000000 1.0
C      1  0.5486700000000  0.4665690000000  0.4438160000000 1.0
C      1  0.5103920000000  0.4018810000000  0.4819090000000 1.0
C      1  0.4213850000000  0.5206800000000  0.5243300000000 1.0
C      1  0.5246770000000  0.4258140000000  0.4929680000000 1.0
C      1  0.5556950000000  0.4819330000000  0.4969530000000 1.0
C      1  0.5642530000000  0.4331080000000  0.4591320000000 1.0
C      1  0.5442490000000  0.5430620000000  0.4594050000000 1.0
C      1  0.5110430000000  0.4650340000000  0.5688120000000 1.0
C      1  0.4749540000000  0.4417850000000  0.4471460000000 1.0
C      1  0.5910860000000  0.4977530000000  0.5187200000000 1.0
C      1  0.5294380000000  0.5784990000000  0.4905870000000 1.0
C      1  0.4571250000000  0.4910420000000  0.4319810000000 1.0
C      1  0.4852960000000  0.4009500000000  0.4714680000000 1.0
C      1  0.4761760000000  0.4831020000000  0.5151680000000 1.0
C      1  0.4415290000000  0.5173580000000  0.4450770000000 1.0
C      1  0.4717920000000  0.4714120000000  0.5649580000000 1.0
C      1  0.5790510000000  0.4793440000000  0.5370060000000 1.0
C      1  0.4617980000000  0.4347870000000  0.4963800000000 1.0
C      1  0.4220570000000  0.4716910000000  0.4899820000000 1.0
C      1  0.4259880000000  0.4868960000000  0.4621090000000 1.0
C      1  0.5769420000000  0.5022810000000  0.4698960000000 1.0
C      1  0.5583770000000  0.5173890000000  0.4555810000000 1.0
C      1  0.4983910000000  0.4380330000000  0.5309070000000 1.0
C      1  0.5086380000000  0.4947310000000  0.4362390000000 1.0
C      1  0.4993430000000  0.5789860000000  0.4989050000000 1.0
C      1  0.5222060000000  0.4662150000000  0.4368440000000 1.0
C      1  0.5837080000000  0.5131070000000  0.4957430000000 1.0
C      1  0.4910130000000  0.5605110000000  0.5218830000000 1.0
C      1  0.4190640000000  0.5113300000000  0.4938520000000 1.0
C      1  0.4591750000000  0.5459410000000  0.4467250000000 1.0
C      1  0.4647870000000  0.4943410000000  0.5411760000000 1.0
C      1  0.5455690000000  0.5102340000000  0.5072130000000 1.0
C      1  0.4518040000000  0.4732150000000  0.4988230000000 1.0
C      1  0.4519960000000  0.5229020000000  0.5358800000000 1.0
C      1  0.5148620000000  0.5330500000000  0.4740820000000 1.0
C      1  0.4860800000000  0.5421510000000  0.4647220000000 1.0
C      1  0.3960990000000  0.5015810000000  0.4842570000000 1.0
C      1  0.5447170000000  0.4408720000000  0.4740870000000 1.0
C      1  0.5041290000000  0.5660100000000  0.4523120000000 1.0
C      1  0.5244380000000  0.4299320000000  0.5227220000000 1.0
END
