TITL C-2778437-8639-405 0.00019247650777108 125000 -200.114977172692 0 0 36 (C1) n - 1
REM
REM in /home/nfs/bkarasulu/CARBON/AIRSS/Generating-Clusters/REBO/Only-C1/SD-CG/HFTN-CG
REM
REM
REM
REM
REM
REM ./C.cell (11c1c37f851c82e70ff6c80c92926a4b)
REM
REM compiler GCC version 9.2.1 20190827 (Red Hat 9.2.1-1)
REM options -cpp -mtune=generic -march=x86-64 -g -O0 -fpre-include=/usr/include/finclude/math-vector-fortran.h
REM seed 1368435439 344674210 539192762 -2078957579 954375293 1533156676 951349591 -1777917875 -791842183 -1206603037 1765764656 68055382 -1192913021 196165714 1690750207 -118829284 233794481 -1131597898 -521179937 1183131135 929218094 -1195220267 1614309990 1221981303 -112593375 -2028562818 -2024686115 -1994317353 741577689 -916913130 899743573 -1606802935 -1028136118
REM
CELL 1.54180   50.00000   50.00000   50.00000   90.00000   90.00000   90.00000
LATT -1
SFAC C  
C      1  0.4764350000000  0.5017620000000  0.5257420000000 1.0
C      1  0.5471340000000  0.4919520000000  0.4543630000000 1.0
C      1  0.4949990000000  0.4593200000000  0.5609780000000 1.0
C      1  0.4430030000000  0.4787550000000  0.5316640000000 1.0
C      1  0.5095600000000  0.4473130000000  0.5152830000000 1.0
C      1  0.5098720000000  0.4708030000000  0.4927930000000 1.0
C      1  0.5320540000000  0.4463920000000  0.4928110000000 1.0
C      1  0.5576710000000  0.4677120000000  0.4569820000000 1.0
C      1  0.5098850000000  0.4896870000000  0.5652740000000 1.0
C      1  0.4880340000000  0.4493960000000  0.5329400000000 1.0
C      1  0.4892250000000  0.5307540000000  0.4631000000000 1.0
C      1  0.4373090000000  0.5010060000000  0.5171440000000 1.0
C      1  0.5177420000000  0.5003690000000  0.4672910000000 1.0
C      1  0.4622680000000  0.5136210000000  0.4642960000000 1.0
C      1  0.5399890000000  0.5243610000000  0.4581220000000 1.0
C      1  0.4890310000000  0.5263400000000  0.5339720000000 1.0
C      1  0.4803000000000  0.4856090000000  0.5489800000000 1.0
C      1  0.5318710000000  0.5111780000000  0.5193130000000 1.0
C      1  0.4648400000000  0.4612840000000  0.5214210000000 1.0
C      1  0.5137000000000  0.5447640000000  0.4612870000000 1.0
C      1  0.5518160000000  0.4465440000000  0.4734270000000 1.0
C      1  0.5189480000000  0.5597100000000  0.4877940000000 1.0
C      1  0.5024860000000  0.5220660000000  0.5579410000000 1.0
C      1  0.5463290000000  0.5430320000000  0.4838220000000 1.0
C      1  0.5286730000000  0.5587610000000  0.5264570000000 1.0
C      1  0.4882420000000  0.4843310000000  0.4720630000000 1.0
C      1  0.4858760000000  0.5251940000000  0.4943700000000 1.0
C      1  0.4699000000000  0.4876330000000  0.4462230000000 1.0
C      1  0.5100550000000  0.5030680000000  0.4997340000000 1.0
C      1  0.4992030000000  0.5495280000000  0.5135390000000 1.0
C      1  0.5321390000000  0.4993300000000  0.5437550000000 1.0
C      1  0.5436030000000  0.5367360000000  0.5130900000000 1.0
C      1  0.4396090000000  0.4972270000000  0.4836500000000 1.0
C      1  0.4555170000000  0.5228810000000  0.4990220000000 1.0
C      1  0.4684510000000  0.4852410000000  0.4976440000000 1.0
C      1  0.4642320000000  0.4763420000000  0.4237130000000 1.0
END
