TITL C-2778422-5617-177 0.00215366668847338 125000 -796.747757317996 0 0 136 (C1) n - 1
REM
REM in /home/nfs/bkarasulu/CARBON/AIRSS/Generating-Clusters/REBO/Only-C1/SD-CG/HFTN-CG
REM
REM
REM
REM
REM
REM ./C.cell (11c1c37f851c82e70ff6c80c92926a4b)
REM
REM compiler GCC version 9.2.1 20190827 (Red Hat 9.2.1-1)
REM options -cpp -mtune=generic -march=x86-64 -g -O0 -fpre-include=/usr/include/finclude/math-vector-fortran.h
REM seed 1601488661 1768577446 929061997 1511616235 -27381702 -641807608 -406056188 149202558 -2124635102 -1323401790 232898098 -1442729920 -1979148448 129294352 -1571683559 967795639 1263476821 1066543987 1191053069 -1450255329 -747340766 1415881079 1222939463 1879495171 -407038255 -2134840599 -1437959816 1147288487 997273540 415073970 -233308427 -575122225 -1045742692
REM
CELL 1.54180   50.00000   50.00000   50.00000   90.00000   90.00000   90.00000
LATT -1
SFAC C  
C      1  0.5548790000000  0.5354230000000  0.4888320000000 1.0
C      1  0.5469120000000  0.4113150000000  0.5178040000000 1.0
C      1  0.5431290000000  0.5136820000000  0.4724590000000 1.0
C      1  0.4290980000000  0.5261340000000  0.4515100000000 1.0
C      1  0.5334930000000  0.4738930000000  0.4878150000000 1.0
C      1  0.5223420000000  0.4395500000000  0.4251430000000 1.0
C      1  0.4964800000000  0.5904460000000  0.4654880000000 1.0
C      1  0.5146910000000  0.4938020000000  0.4411100000000 1.0
C      1  0.4634860000000  0.5255470000000  0.4874970000000 1.0
C      1  0.4888970000000  0.4942210000000  0.5935660000000 1.0
C      1  0.4173500000000  0.5462960000000  0.4951120000000 1.0
C      1  0.5125260000000  0.5170130000000  0.5097030000000 1.0
C      1  0.5152320000000  0.5103730000000  0.5624900000000 1.0
C      1  0.4813300000000  0.4676100000000  0.6012930000000 1.0
C      1  0.4717660000000  0.4100110000000  0.5167660000000 1.0
C      1  0.5356940000000  0.4712640000000  0.4480200000000 1.0
C      1  0.4481610000000  0.4847880000000  0.5336580000000 1.0
C      1  0.4773580000000  0.4438220000000  0.4427100000000 1.0
C      1  0.5601090000000  0.4860320000000  0.4760440000000 1.0
C      1  0.5742710000000  0.5005980000000  0.5489030000000 1.0
C      1  0.4480530000000  0.4887770000000  0.5013960000000 1.0
C      1  0.5432760000000  0.5117190000000  0.5430900000000 1.0
C      1  0.5271340000000  0.5430280000000  0.5009420000000 1.0
C      1  0.6029610000000  0.5073380000000  0.4714020000000 1.0
C      1  0.5182190000000  0.4516430000000  0.4699830000000 1.0
C      1  0.4925210000000  0.4097250000000  0.5439490000000 1.0
C      1  0.5681890000000  0.4615770000000  0.5064490000000 1.0
C      1  0.5935910000000  0.5225920000000  0.5217460000000 1.0
C      1  0.5906970000000  0.5348780000000  0.4665100000000 1.0
C      1  0.4310570000000  0.4863790000000  0.4496190000000 1.0
C      1  0.5080490000000  0.5294030000000  0.5369030000000 1.0
C      1  0.4581510000000  0.5225230000000  0.4394970000000 1.0
C      1  0.4693750000000  0.5442650000000  0.5677310000000 1.0
C      1  0.4157380000000  0.5206690000000  0.4771560000000 1.0
C      1  0.5991150000000  0.4571350000000  0.4688050000000 1.0
C      1  0.5208080000000  0.4026990000000  0.5295070000000 1.0
C      1  0.4117510000000  0.4592410000000  0.4957730000000 1.0
C      1  0.4608720000000  0.5205720000000  0.5212120000000 1.0
C      1  0.5220430000000  0.5261120000000  0.4354710000000 1.0
C      1  0.4769950000000  0.4763310000000  0.4918410000000 1.0
C      1  0.4910980000000  0.5999580000000  0.5163950000000 1.0
C      1  0.4465810000000  0.4316630000000  0.4457790000000 1.0
C      1  0.4229880000000  0.5158820000000  0.5603240000000 1.0
C      1  0.4989890000000  0.4071920000000  0.4679480000000 1.0
C      1  0.5186660000000  0.4867620000000  0.5132180000000 1.0
C      1  0.5269850000000  0.5587310000000  0.5749900000000 1.0
C      1  0.5326140000000  0.4486270000000  0.5187100000000 1.0
C      1  0.4285730000000  0.4294610000000  0.4950160000000 1.0
C      1  0.4518480000000  0.5735940000000  0.5255610000000 1.0
C      1  0.4939280000000  0.5664680000000  0.5750590000000 1.0
C      1  0.5763940000000  0.4495830000000  0.4817440000000 1.0
C      1  0.5792400000000  0.4631870000000  0.5382890000000 1.0
C      1  0.5221030000000  0.4779680000000  0.5615630000000 1.0
C      1  0.5034960000000  0.4316750000000  0.4506370000000 1.0
C      1  0.4660150000000  0.5895960000000  0.5062430000000 1.0
C      1  0.5776390000000  0.5218700000000  0.4072860000000 1.0
C      1  0.4430110000000  0.4195940000000  0.4712510000000 1.0
C      1  0.4685760000000  0.4432510000000  0.4908080000000 1.0
C      1  0.5216780000000  0.5825890000000  0.5512720000000 1.0
C      1  0.5632230000000  0.5580770000000  0.5357930000000 1.0
C      1  0.4885760000000  0.5052560000000  0.4914350000000 1.0
C      1  0.4708730000000  0.5047960000000  0.5738310000000 1.0
C      1  0.4029710000000  0.5087780000000  0.5129830000000 1.0
C      1  0.4506580000000  0.4988100000000  0.4707160000000 1.0
C      1  0.4655700000000  0.5494080000000  0.4681120000000 1.0
C      1  0.5029830000000  0.4163530000000  0.5074030000000 1.0
C      1  0.5581120000000  0.4305910000000  0.4700550000000 1.0
C      1  0.4995520000000  0.4794750000000  0.5373040000000 1.0
C      1  0.4961240000000  0.5914080000000  0.5434790000000 1.0
C      1  0.5416900000000  0.5553650000000  0.4112370000000 1.0
C      1  0.4973300000000  0.4863410000000  0.4149370000000 1.0
C      1  0.5424310000000  0.5897550000000  0.4986290000000 1.0
C      1  0.4928160000000  0.5198930000000  0.4203560000000 1.0
C      1  0.4303470000000  0.4788390000000  0.5734280000000 1.0
C      1  0.5154240000000  0.4402250000000  0.4994660000000 1.0
C      1  0.4703360000000  0.4493600000000  0.5826010000000 1.0
C      1  0.4226600000000  0.5394850000000  0.5454010000000 1.0
C      1  0.5550260000000  0.4992030000000  0.4449260000000 1.0
C      1  0.5870480000000  0.5334050000000  0.4970530000000 1.0
C      1  0.5214740000000  0.4723480000000  0.6011320000000 1.0
C      1  0.4690360000000  0.5819760000000  0.4771710000000 1.0
C      1  0.4723510000000  0.4107110000000  0.4828340000000 1.0
C      1  0.5694850000000  0.5487120000000  0.4534620000000 1.0
C      1  0.4226920000000  0.4638740000000  0.5243330000000 1.0
C      1  0.5064550000000  0.4550690000000  0.4062520000000 1.0
C      1  0.5019910000000  0.5701120000000  0.4387590000000 1.0
C      1  0.4304420000000  0.5537670000000  0.5219010000000 1.0
C      1  0.5160710000000  0.5414420000000  0.4626280000000 1.0
C      1  0.5427530000000  0.5835920000000  0.5321090000000 1.0
C      1  0.5110140000000  0.5103690000000  0.4703580000000 1.0
C      1  0.5524150000000  0.4751320000000  0.5557430000000 1.0
C      1  0.4410990000000  0.5723930000000  0.4636660000000 1.0
C      1  0.5952770000000  0.5156010000000  0.3899410000000 1.0
C      1  0.5279570000000  0.5306710000000  0.5944800000000 1.0
C      1  0.4450170000000  0.4456300000000  0.5394470000000 1.0
C      1  0.5881270000000  0.4905090000000  0.4879080000000 1.0
C      1  0.4422080000000  0.4801860000000  0.4242510000000 1.0
C      1  0.5127480000000  0.5967560000000  0.4930690000000 1.0
C      1  0.4788740000000  0.4990950000000  0.4531490000000 1.0
C      1  0.4782390000000  0.5381680000000  0.5380730000000 1.0
C      1  0.5544870000000  0.5714060000000  0.4718210000000 1.0
C      1  0.4828590000000  0.5459060000000  0.4400740000000 1.0
C      1  0.4464970000000  0.4511670000000  0.4188370000000 1.0
C      1  0.5241640000000  0.5708870000000  0.4648620000000 1.0
C      1  0.5552830000000  0.5298170000000  0.4292720000000 1.0
C      1  0.4695620000000  0.5744810000000  0.5522990000000 1.0
C      1  0.5456110000000  0.4111940000000  0.4883050000000 1.0
C      1  0.4432810000000  0.5054830000000  0.5811560000000 1.0
C      1  0.5594370000000  0.4364230000000  0.5318680000000 1.0
C      1  0.4767600000000  0.4560450000000  0.5437600000000 1.0
C      1  0.5123040000000  0.4539750000000  0.5800110000000 1.0
C      1  0.4918070000000  0.4340700000000  0.5632330000000 1.0
C      1  0.4741030000000  0.4983590000000  0.5439200000000 1.0
C      1  0.4772360000000  0.4522490000000  0.4120490000000 1.0
C      1  0.4440910000000  0.4233940000000  0.5193090000000 1.0
C      1  0.4157380000000  0.4877470000000  0.5455570000000 1.0
C      1  0.5469680000000  0.4399700000000  0.4450480000000 1.0
C      1  0.5914760000000  0.4902890000000  0.5214060000000 1.0
C      1  0.4021670000000  0.4911750000000  0.4880040000000 1.0
C      1  0.4976590000000  0.5328240000000  0.5810610000000 1.0
C      1  0.5492980000000  0.4844910000000  0.5228630000000 1.0
C      1  0.4296700000000  0.5141810000000  0.5153350000000 1.0
C      1  0.5366870000000  0.5443100000000  0.5475770000000 1.0
C      1  0.4734940000000  0.4679470000000  0.4599120000000 1.0
C      1  0.4455900000000  0.4591840000000  0.4747710000000 1.0
C      1  0.4173950000000  0.4642290000000  0.4636660000000 1.0
C      1  0.5869780000000  0.5395280000000  0.5422250000000 1.0
C      1  0.5173480000000  0.5028630000000  0.6015970000000 1.0
C      1  0.4657930000000  0.4991970000000  0.4158110000000 1.0
C      1  0.4177960000000  0.5685910000000  0.4767270000000 1.0
C      1  0.5112410000000  0.5656290000000  0.5048770000000 1.0
C      1  0.5622620000000  0.5636580000000  0.5042080000000 1.0
C      1  0.4463350000000  0.4556110000000  0.5696860000000 1.0
C      1  0.5210960000000  0.5690640000000  0.4144850000000 1.0
C      1  0.5224340000000  0.3974590000000  0.4780070000000 1.0
C      1  0.4893970000000  0.5601920000000  0.5195890000000 1.0
END
