TITL C-2778436-5916-75 -8.4295237324872e-05 125000 -361.73899543519 0 0 62 (C1) n - 1
REM
REM in /home/nfs/bkarasulu/CARBON/AIRSS/Generating-Clusters/REBO/Only-C1/SD-CG/HFTN-CG
REM
REM
REM
REM
REM
REM ./C.cell (11c1c37f851c82e70ff6c80c92926a4b)
REM
REM compiler GCC version 9.2.1 20190827 (Red Hat 9.2.1-1)
REM options -cpp -mtune=generic -march=x86-64 -g -O0 -fpre-include=/usr/include/finclude/math-vector-fortran.h
REM seed -1857560276 26890386 678307776 -1984725643 -1703211930 2131619562 1471075078 1346397872 -190854538 1600512654 1564321699 -1044439794 116659007 790483659 -180785018 -1263958609 -1558787776 -458138797 -203252457 -1109690933 -1485840481 -1989560534 -337448319 130708493 -973223398 410827166 1817087411 1188604156 1482817085 -597172132 147671070 -858230454 -619941535
REM
CELL 1.54180   50.00000   50.00000   50.00000   90.00000   90.00000   90.00000
LATT -1
SFAC C  
C      1  0.5246810000000  0.5058960000000  0.5183710000000 1.0
C      1  0.5128940000000  0.4541170000000  0.5670770000000 1.0
C      1  0.4882050000000  0.5784010000000  0.4705190000000 1.0
C      1  0.4357600000000  0.4802600000000  0.4864400000000 1.0
C      1  0.5162600000000  0.4934390000000  0.5735440000000 1.0
C      1  0.4914040000000  0.4923530000000  0.5562300000000 1.0
C      1  0.5332840000000  0.5286840000000  0.5424310000000 1.0
C      1  0.5418960000000  0.4353060000000  0.4867530000000 1.0
C      1  0.5836490000000  0.4993780000000  0.5106470000000 1.0
C      1  0.5157870000000  0.4901430000000  0.4223200000000 1.0
C      1  0.4896680000000  0.4848160000000  0.4330990000000 1.0
C      1  0.4272950000000  0.5250310000000  0.4684900000000 1.0
C      1  0.5119970000000  0.5331410000000  0.4679600000000 1.0
C      1  0.4978780000000  0.4374520000000  0.4572300000000 1.0
C      1  0.4720730000000  0.5801620000000  0.5179880000000 1.0
C      1  0.4621710000000  0.4587040000000  0.5274920000000 1.0
C      1  0.5337640000000  0.4820820000000  0.5079270000000 1.0
C      1  0.5165060000000  0.4701290000000  0.5926090000000 1.0
C      1  0.4858540000000  0.4589500000000  0.4446720000000 1.0
C      1  0.4878640000000  0.4621060000000  0.5492260000000 1.0
C      1  0.4289360000000  0.5345710000000  0.4996990000000 1.0
C      1  0.4272770000000  0.5218530000000  0.5233210000000 1.0
C      1  0.5592320000000  0.4718940000000  0.4622480000000 1.0
C      1  0.5014230000000  0.4710500000000  0.4814400000000 1.0
C      1  0.5755530000000  0.5231640000000  0.5087660000000 1.0
C      1  0.5371180000000  0.4511660000000  0.5516710000000 1.0
C      1  0.4247500000000  0.4946090000000  0.4691110000000 1.0
C      1  0.5232400000000  0.5381140000000  0.4949200000000 1.0
C      1  0.4432070000000  0.5474070000000  0.4506920000000 1.0
C      1  0.5383300000000  0.4994140000000  0.5559640000000 1.0
C      1  0.5014390000000  0.5394740000000  0.5132480000000 1.0
C      1  0.4970340000000  0.5142370000000  0.5312200000000 1.0
C      1  0.4382260000000  0.4423280000000  0.5355610000000 1.0
C      1  0.4905740000000  0.4444210000000  0.5208500000000 1.0
C      1  0.5326530000000  0.5262350000000  0.4474350000000 1.0
C      1  0.5481760000000  0.5334850000000  0.5123160000000 1.0
C      1  0.4789520000000  0.5443670000000  0.5535250000000 1.0
C      1  0.4830630000000  0.4907510000000  0.4900010000000 1.0
C      1  0.4982080000000  0.5663850000000  0.5263360000000 1.0
C      1  0.5406890000000  0.4546620000000  0.4424300000000 1.0
C      1  0.4699430000000  0.5391770000000  0.4425690000000 1.0
C      1  0.5261890000000  0.4344740000000  0.4616770000000 1.0
C      1  0.5020430000000  0.4473610000000  0.4969440000000 1.0
C      1  0.5590120000000  0.4588000000000  0.4875480000000 1.0
C      1  0.5498040000000  0.4758650000000  0.5439440000000 1.0
C      1  0.5409730000000  0.4943840000000  0.4457530000000 1.0
C      1  0.4909400000000  0.5534730000000  0.4565400000000 1.0
C      1  0.4691390000000  0.5147030000000  0.5483040000000 1.0
C      1  0.4456130000000  0.5634800000000  0.4791410000000 1.0
C      1  0.5100240000000  0.5479850000000  0.5511190000000 1.0
C      1  0.4663150000000  0.5813270000000  0.4894500000000 1.0
C      1  0.5395350000000  0.4206180000000  0.5104310000000 1.0
C      1  0.4590650000000  0.5326030000000  0.4839050000000 1.0
C      1  0.4761280000000  0.5084220000000  0.4418310000000 1.0
C      1  0.5652760000000  0.4748280000000  0.5145680000000 1.0
C      1  0.5193510000000  0.4737960000000  0.4607240000000 1.0
C      1  0.4822330000000  0.5169180000000  0.4733650000000 1.0
C      1  0.4474770000000  0.5051870000000  0.5304140000000 1.0
C      1  0.5240180000000  0.5194210000000  0.4198870000000 1.0
C      1  0.5405940000000  0.4278010000000  0.5365040000000 1.0
C      1  0.4622670000000  0.5659040000000  0.5435550000000 1.0
C      1  0.4570890000000  0.4833370000000  0.5100500000000 1.0
END
