TITL C-2778431-5191-1123 0.00380441334253909 125000 -1161.07482379352 0 0 199 (C1) n - 1
REM
REM in /home/nfs/bkarasulu/CARBON/AIRSS/Generating-Clusters/REBO/Only-C1/SD-CG/HFTN-CG
REM
REM
REM
REM
REM
REM ./C.cell (11c1c37f851c82e70ff6c80c92926a4b)
REM
REM compiler GCC version 9.2.1 20190827 (Red Hat 9.2.1-1)
REM options -cpp -mtune=generic -march=x86-64 -g -O0 -fpre-include=/usr/include/finclude/math-vector-fortran.h
REM seed 79599722 -538074006 1396535531 1806278374 1518482272 1083960076 756412506 -341959442 -2026647141 1902136825 1503519362 -1163804313 885417988 -1777709284 269635418 -738938205 -1759791323 -2107917332 -1197257509 -165445045 -1544886231 62457032 -637271180 2017249927 -901758245 -1389180812 866854294 -192018363 -1472201876 -1192955976 -1630705168 -863385846 -2024494544
REM
CELL 1.54180   50.00000   50.00000   50.00000   90.00000   90.00000   90.00000
LATT -1
SFAC C  
C      1  0.4814990000000  0.6028330000000  0.4733890000000 1.0
C      1  0.5879780000000  0.4559870000000  0.4572220000000 1.0
C      1  0.5047160000000  0.5227310000000  0.4712380000000 1.0
C      1  0.6021350000000  0.4661190000000  0.5068770000000 1.0
C      1  0.5179340000000  0.5056410000000  0.3783610000000 1.0
C      1  0.4769720000000  0.5906910000000  0.5570730000000 1.0
C      1  0.5211920000000  0.6033780000000  0.4714750000000 1.0
C      1  0.4339800000000  0.5232590000000  0.5438920000000 1.0
C      1  0.5867870000000  0.4736860000000  0.5429510000000 1.0
C      1  0.4472860000000  0.4594800000000  0.5554570000000 1.0
C      1  0.5053640000000  0.5556300000000  0.4487740000000 1.0
C      1  0.4818310000000  0.6020240000000  0.5272490000000 1.0
C      1  0.4140590000000  0.5024840000000  0.5715890000000 1.0
C      1  0.4586810000000  0.4666240000000  0.5030400000000 1.0
C      1  0.5650020000000  0.4795450000000  0.4611300000000 1.0
C      1  0.5460800000000  0.4986690000000  0.4790360000000 1.0
C      1  0.4631540000000  0.5628170000000  0.5523780000000 1.0
C      1  0.5509740000000  0.4794720000000  0.3908560000000 1.0
C      1  0.5155790000000  0.6074680000000  0.5263190000000 1.0
C      1  0.4733760000000  0.4849360000000  0.3849890000000 1.0
C      1  0.6053350000000  0.5178470000000  0.5460330000000 1.0
C      1  0.5635570000000  0.5446610000000  0.5714690000000 1.0
C      1  0.5663990000000  0.4320430000000  0.5399040000000 1.0
C      1  0.3983800000000  0.4537350000000  0.4739130000000 1.0
C      1  0.4487970000000  0.5954960000000  0.5218260000000 1.0
C      1  0.4135600000000  0.4298320000000  0.4767920000000 1.0
C      1  0.5350570000000  0.4009900000000  0.5643690000000 1.0
C      1  0.4820950000000  0.4933910000000  0.5890470000000 1.0
C      1  0.5165430000000  0.5757990000000  0.4710420000000 1.0
C      1  0.5014930000000  0.4828110000000  0.3807080000000 1.0
C      1  0.4675420000000  0.5108670000000  0.4332880000000 1.0
C      1  0.4387110000000  0.5974340000000  0.4933480000000 1.0
C      1  0.4469300000000  0.4196470000000  0.5290470000000 1.0
C      1  0.4217850000000  0.4974940000000  0.4842270000000 1.0
C      1  0.5906280000000  0.4947770000000  0.4467440000000 1.0
C      1  0.5431760000000  0.4599670000000  0.4958010000000 1.0
C      1  0.4562600000000  0.5171850000000  0.4819660000000 1.0
C      1  0.5546520000000  0.5044510000000  0.4078430000000 1.0
C      1  0.5268700000000  0.6012620000000  0.5579130000000 1.0
C      1  0.5381390000000  0.5101950000000  0.5677930000000 1.0
C      1  0.5292270000000  0.3986040000000  0.4526930000000 1.0
C      1  0.4072850000000  0.4740140000000  0.4535340000000 1.0
C      1  0.4570220000000  0.4595190000000  0.4716360000000 1.0
C      1  0.5522040000000  0.5502800000000  0.4367400000000 1.0
C      1  0.5332390000000  0.5091230000000  0.4271630000000 1.0
C      1  0.5855850000000  0.5063050000000  0.4209640000000 1.0
C      1  0.6183050000000  0.5283390000000  0.5162630000000 1.0
C      1  0.4608770000000  0.3954330000000  0.4812310000000 1.0
C      1  0.5778220000000  0.4945530000000  0.5199590000000 1.0
C      1  0.4352690000000  0.5732290000000  0.5440910000000 1.0
C      1  0.4316490000000  0.5556690000000  0.4621190000000 1.0
C      1  0.5610800000000  0.5595710000000  0.4837870000000 1.0
C      1  0.6016720000000  0.4810160000000  0.4762520000000 1.0
C      1  0.4532380000000  0.4727150000000  0.4004340000000 1.0
C      1  0.5454690000000  0.5608280000000  0.5109800000000 1.0
C      1  0.4230870000000  0.4994870000000  0.5332680000000 1.0
C      1  0.4089060000000  0.4496860000000  0.5513400000000 1.0
C      1  0.5047650000000  0.5884580000000  0.5738410000000 1.0
C      1  0.4625340000000  0.4449530000000  0.4134790000000 1.0
C      1  0.5255190000000  0.5272680000000  0.5342560000000 1.0
C      1  0.5082990000000  0.5338170000000  0.5980010000000 1.0
C      1  0.4921800000000  0.4322950000000  0.5080890000000 1.0
C      1  0.5309920000000  0.5280290000000  0.3858700000000 1.0
C      1  0.4908400000000  0.5938460000000  0.4463810000000 1.0
C      1  0.5113280000000  0.5047500000000  0.6014150000000 1.0
C      1  0.6051960000000  0.5564120000000  0.5068170000000 1.0
C      1  0.4290330000000  0.4836400000000  0.4148580000000 1.0
C      1  0.4153670000000  0.5457510000000  0.5479360000000 1.0
C      1  0.5877050000000  0.5206570000000  0.5039120000000 1.0
C      1  0.4479100000000  0.4261690000000  0.4391310000000 1.0
C      1  0.5510510000000  0.4555410000000  0.3972060000000 1.0
C      1  0.4708730000000  0.4314120000000  0.4623860000000 1.0
C      1  0.4905670000000  0.4369210000000  0.5381120000000 1.0
C      1  0.5891280000000  0.4466970000000  0.5319380000000 1.0
C      1  0.4845890000000  0.4716600000000  0.4553280000000 1.0
C      1  0.5221680000000  0.4375220000000  0.5901520000000 1.0
C      1  0.4971620000000  0.5016040000000  0.4451680000000 1.0
C      1  0.5771220000000  0.4801290000000  0.5709240000000 1.0
C      1  0.5174950000000  0.4273120000000  0.5518480000000 1.0
C      1  0.5761390000000  0.4532030000000  0.4890930000000 1.0
C      1  0.4715480000000  0.5735090000000  0.4373910000000 1.0
C      1  0.4436980000000  0.4893310000000  0.5659060000000 1.0
C      1  0.5143540000000  0.4350460000000  0.4004550000000 1.0
C      1  0.5148420000000  0.5668930000000  0.5007310000000 1.0
C      1  0.5427610000000  0.5308710000000  0.4847900000000 1.0
C      1  0.4121640000000  0.5321340000000  0.5011640000000 1.0
C      1  0.4531460000000  0.5571860000000  0.5122240000000 1.0
C      1  0.5278840000000  0.4887170000000  0.4518470000000 1.0
C      1  0.4810880000000  0.4164490000000  0.5639620000000 1.0
C      1  0.4749640000000  0.4660560000000  0.5746900000000 1.0
C      1  0.5307030000000  0.5457920000000  0.4116130000000 1.0
C      1  0.5454110000000  0.5808660000000  0.4439610000000 1.0
C      1  0.4848270000000  0.5093080000000  0.4919430000000 1.0
C      1  0.4209980000000  0.5681260000000  0.5159080000000 1.0
C      1  0.4776340000000  0.3830500000000  0.4569610000000 1.0
C      1  0.4283680000000  0.5314300000000  0.4178440000000 1.0
C      1  0.4772610000000  0.5747650000000  0.5876890000000 1.0
C      1  0.5107550000000  0.4660240000000  0.5920210000000 1.0
C      1  0.6125580000000  0.4950410000000  0.5215230000000 1.0
C      1  0.3844940000000  0.5150130000000  0.5056020000000 1.0
C      1  0.5748810000000  0.5832490000000  0.5505430000000 1.0
C      1  0.5515130000000  0.4414730000000  0.4241890000000 1.0
C      1  0.4889150000000  0.4502780000000  0.4322590000000 1.0
C      1  0.4881840000000  0.5174960000000  0.5226670000000 1.0
C      1  0.5512600000000  0.5823520000000  0.5688850000000 1.0
C      1  0.5558620000000  0.5175150000000  0.5434840000000 1.0
C      1  0.5018840000000  0.4277430000000  0.4535350000000 1.0
C      1  0.4452350000000  0.4802510000000  0.5973120000000 1.0
C      1  0.6026150000000  0.4104950000000  0.4738230000000 1.0
C      1  0.5388920000000  0.5528590000000  0.5492790000000 1.0
C      1  0.4112200000000  0.4369530000000  0.5271800000000 1.0
C      1  0.4602240000000  0.5158050000000  0.6023050000000 1.0
C      1  0.5322510000000  0.4729050000000  0.5319020000000 1.0
C      1  0.4499130000000  0.4563350000000  0.6042230000000 1.0
C      1  0.5057990000000  0.5292070000000  0.4271780000000 1.0
C      1  0.4578570000000  0.5311310000000  0.4157390000000 1.0
C      1  0.5793240000000  0.5077760000000  0.5620540000000 1.0
C      1  0.5570380000000  0.5859470000000  0.4694260000000 1.0
C      1  0.5410100000000  0.4927320000000  0.6031870000000 1.0
C      1  0.5585240000000  0.4230700000000  0.5659020000000 1.0
C      1  0.4554520000000  0.6129140000000  0.4764240000000 1.0
C      1  0.5195710000000  0.5899400000000  0.4339550000000 1.0
C      1  0.5505690000000  0.4891160000000  0.5100470000000 1.0
C      1  0.4339230000000  0.5233660000000  0.5838840000000 1.0
C      1  0.5413550000000  0.4591970000000  0.4484450000000 1.0
C      1  0.4735400000000  0.5553090000000  0.4133510000000 1.0
C      1  0.5471640000000  0.5253520000000  0.5944580000000 1.0
C      1  0.5067230000000  0.5109950000000  0.5571270000000 1.0
C      1  0.5261850000000  0.4222510000000  0.4295420000000 1.0
C      1  0.4021510000000  0.4800180000000  0.5488020000000 1.0
C      1  0.5529580000000  0.4421440000000  0.5879840000000 1.0
C      1  0.5515850000000  0.4125580000000  0.4736130000000 1.0
C      1  0.5221590000000  0.3864340000000  0.4801190000000 1.0
C      1  0.4924650000000  0.5925070000000  0.4978170000000 1.0
C      1  0.4856370000000  0.5554420000000  0.5108080000000 1.0
C      1  0.5668580000000  0.5387200000000  0.5207330000000 1.0
C      1  0.4869890000000  0.4788390000000  0.4885320000000 1.0
C      1  0.5229970000000  0.5282150000000  0.5063190000000 1.0
C      1  0.4845530000000  0.4666920000000  0.5433760000000 1.0
C      1  0.3757340000000  0.5107960000000  0.4749150000000 1.0
C      1  0.5901480000000  0.5134180000000  0.4747750000000 1.0
C      1  0.4615450000000  0.5371480000000  0.5692680000000 1.0
C      1  0.5340340000000  0.5803780000000  0.5330710000000 1.0
C      1  0.5411690000000  0.3748080000000  0.5592680000000 1.0
C      1  0.4872530000000  0.5495180000000  0.4776230000000 1.0
C      1  0.4296780000000  0.4389390000000  0.5732460000000 1.0
C      1  0.5335690000000  0.4401260000000  0.4708980000000 1.0
C      1  0.4686880000000  0.4036620000000  0.5351480000000 1.0
C      1  0.3954550000000  0.5395230000000  0.5269600000000 1.0
C      1  0.4184480000000  0.5530940000000  0.4331230000000 1.0
C      1  0.5021450000000  0.4864210000000  0.5246870000000 1.0
C      1  0.4764890000000  0.5111600000000  0.5602920000000 1.0
C      1  0.4779200000000  0.5445840000000  0.5974300000000 1.0
C      1  0.5917520000000  0.5687860000000  0.5294050000000 1.0
C      1  0.4911930000000  0.5453090000000  0.5429260000000 1.0
C      1  0.5785870000000  0.5386110000000  0.4548650000000 1.0
C      1  0.4225890000000  0.5228680000000  0.4611480000000 1.0
C      1  0.3992930000000  0.5705910000000  0.4973410000000 1.0
C      1  0.5784240000000  0.5266100000000  0.3975560000000 1.0
C      1  0.5340900000000  0.5280980000000  0.4548550000000 1.0
C      1  0.4203430000000  0.5793590000000  0.4778910000000 1.0
C      1  0.5845800000000  0.5445980000000  0.5494640000000 1.0
C      1  0.4326520000000  0.4542540000000  0.4292100000000 1.0
C      1  0.5047250000000  0.5670920000000  0.4160530000000 1.0
C      1  0.3881210000000  0.4864200000000  0.5198780000000 1.0
C      1  0.4578760000000  0.5302990000000  0.5300930000000 1.0
C      1  0.4904060000000  0.4196770000000  0.4166980000000 1.0
C      1  0.4415170000000  0.4919230000000  0.5092010000000 1.0
C      1  0.5295160000000  0.4547330000000  0.5588470000000 1.0
C      1  0.5329340000000  0.4216530000000  0.4998630000000 1.0
C      1  0.5425480000000  0.4408350000000  0.5239650000000 1.0
C      1  0.5570790000000  0.6084720000000  0.4876710000000 1.0
C      1  0.4360090000000  0.4125460000000  0.4655110000000 1.0
C      1  0.4385090000000  0.4752760000000  0.4533880000000 1.0
C      1  0.5798190000000  0.4227490000000  0.4779150000000 1.0
C      1  0.3966870000000  0.5042280000000  0.4518720000000 1.0
C      1  0.4520760000000  0.4494240000000  0.5280250000000 1.0
C      1  0.5372120000000  0.5575870000000  0.5882100000000 1.0
C      1  0.4161660000000  0.5061320000000  0.4239500000000 1.0
C      1  0.5198770000000  0.4834620000000  0.5689430000000 1.0
C      1  0.4639900000000  0.4271210000000  0.4938270000000 1.0
C      1  0.5291410000000  0.6160650000000  0.4988500000000 1.0
C      1  0.4476770000000  0.5035130000000  0.4543970000000 1.0
C      1  0.5585440000000  0.4709330000000  0.5907230000000 1.0
C      1  0.5809050000000  0.4382290000000  0.4364460000000 1.0
C      1  0.4308110000000  0.4281100000000  0.5019700000000 1.0
C      1  0.5076630000000  0.5547220000000  0.5711800000000 1.0
C      1  0.5081240000000  0.4032360000000  0.5032780000000 1.0
C      1  0.5091050000000  0.4612840000000  0.5019070000000 1.0
C      1  0.4386230000000  0.5348240000000  0.4955350000000 1.0
C      1  0.4791070000000  0.3939350000000  0.5099900000000 1.0
C      1  0.4973460000000  0.3969830000000  0.4408300000000 1.0
C      1  0.5127130000000  0.4572950000000  0.3859530000000 1.0
C      1  0.3992060000000  0.4790720000000  0.4922510000000 1.0
C      1  0.4618170000000  0.4914080000000  0.5369720000000 1.0
C      1  0.4625760000000  0.4346530000000  0.5821970000000 1.0
C      1  0.5915350000000  0.5539650000000  0.4822990000000 1.0
C      1  0.4619420000000  0.5587500000000  0.4605390000000 1.0
C      1  0.5072410000000  0.4097710000000  0.5818160000000 1.0
END
