TITL C-2778437-8639-722 -0.00366115359044445 125000 -1169.11036774417 0 0 200 (C1) n - 1
REM
REM in /home/nfs/bkarasulu/CARBON/AIRSS/Generating-Clusters/REBO/Only-C1/SD-CG/HFTN-CG
REM
REM
REM
REM
REM
REM ./C.cell (11c1c37f851c82e70ff6c80c92926a4b)
REM
REM compiler GCC version 9.2.1 20190827 (Red Hat 9.2.1-1)
REM options -cpp -mtune=generic -march=x86-64 -g -O0 -fpre-include=/usr/include/finclude/math-vector-fortran.h
REM seed 1611846700 -849559195 1694867386 1537327221 2112505226 498122126 531231578 487148601 421043783 221856759 -1924632654 -1726432101 -1499160961 479214025 507098316 -994341234 -1058746646 -1486698029 -899947927 1055124589 -1107308395 -1663820957 981607288 2031445788 -432576632 -1617184231 1492206270 1767893234 -692079334 -783318798 697315830 609315630 68473844
REM
CELL 1.54180   50.00000   50.00000   50.00000   90.00000   90.00000   90.00000
LATT -1
SFAC C  
C      1  0.6175190000000  0.4803780000000  0.4877050000000 1.0
C      1  0.5412490000000  0.5103090000000  0.3920010000000 1.0
C      1  0.4640260000000  0.5033680000000  0.4903130000000 1.0
C      1  0.4304120000000  0.5642040000000  0.4221450000000 1.0
C      1  0.4217950000000  0.4790560000000  0.4180070000000 1.0
C      1  0.4877690000000  0.4549910000000  0.4854360000000 1.0
C      1  0.4853650000000  0.3893370000000  0.4405340000000 1.0
C      1  0.4023580000000  0.4413370000000  0.5479230000000 1.0
C      1  0.4789210000000  0.5201770000000  0.5399260000000 1.0
C      1  0.4943020000000  0.5470100000000  0.4440460000000 1.0
C      1  0.4256700000000  0.5452350000000  0.4694920000000 1.0
C      1  0.5715270000000  0.5025800000000  0.4197920000000 1.0
C      1  0.4392120000000  0.5803230000000  0.5801770000000 1.0
C      1  0.4578570000000  0.3835610000000  0.5000030000000 1.0
C      1  0.4730000000000  0.5441210000000  0.5952650000000 1.0
C      1  0.5521840000000  0.4429720000000  0.4316250000000 1.0
C      1  0.5271820000000  0.4463000000000  0.5134430000000 1.0
C      1  0.5088610000000  0.3842450000000  0.5412200000000 1.0
C      1  0.3989190000000  0.5044170000000  0.4673130000000 1.0
C      1  0.4688340000000  0.5657140000000  0.5346330000000 1.0
C      1  0.4934610000000  0.4827930000000  0.4400750000000 1.0
C      1  0.4329780000000  0.5644260000000  0.4508910000000 1.0
C      1  0.5023030000000  0.4485680000000  0.5862240000000 1.0
C      1  0.5302470000000  0.5999790000000  0.5626910000000 1.0
C      1  0.5163610000000  0.5201050000000  0.6212080000000 1.0
C      1  0.4730280000000  0.6004430000000  0.5546320000000 1.0
C      1  0.4910590000000  0.4917580000000  0.5650830000000 1.0
C      1  0.5777050000000  0.4576600000000  0.5035050000000 1.0
C      1  0.5257420000000  0.5125800000000  0.5349200000000 1.0
C      1  0.5233980000000  0.6073840000000  0.5354120000000 1.0
C      1  0.4992460000000  0.6115390000000  0.4407130000000 1.0
C      1  0.4676900000000  0.5511010000000  0.4654760000000 1.0
C      1  0.4347320000000  0.4053600000000  0.4890670000000 1.0
C      1  0.5438550000000  0.4264400000000  0.4717840000000 1.0
C      1  0.4373560000000  0.5286190000000  0.3861700000000 1.0
C      1  0.4855660000000  0.3850730000000  0.5169990000000 1.0
C      1  0.4320010000000  0.5238880000000  0.5137850000000 1.0
C      1  0.5655950000000  0.5335850000000  0.4175360000000 1.0
C      1  0.5020810000000  0.5172400000000  0.5840950000000 1.0
C      1  0.4628570000000  0.4969470000000  0.5493710000000 1.0
C      1  0.5559740000000  0.4297850000000  0.5619030000000 1.0
C      1  0.5717020000000  0.4178380000000  0.5043750000000 1.0
C      1  0.4177430000000  0.4844590000000  0.4843040000000 1.0
C      1  0.5310350000000  0.5774430000000  0.4142560000000 1.0
C      1  0.4964540000000  0.5079770000000  0.4951810000000 1.0
C      1  0.4436960000000  0.5922610000000  0.5508460000000 1.0
C      1  0.5050170000000  0.4005530000000  0.5644410000000 1.0
C      1  0.4636710000000  0.4764350000000  0.4429980000000 1.0
C      1  0.5373900000000  0.5498120000000  0.4076190000000 1.0
C      1  0.5488560000000  0.4487440000000  0.4935630000000 1.0
C      1  0.5079680000000  0.5674060000000  0.4640120000000 1.0
C      1  0.4653890000000  0.5222960000000  0.4222760000000 1.0
C      1  0.5030290000000  0.4919710000000  0.6150390000000 1.0
C      1  0.4579010000000  0.5825370000000  0.4594180000000 1.0
C      1  0.5077510000000  0.5363790000000  0.4183380000000 1.0
C      1  0.5658160000000  0.4841230000000  0.5883840000000 1.0
C      1  0.4441780000000  0.5267120000000  0.5893370000000 1.0
C      1  0.4343810000000  0.4492670000000  0.4443020000000 1.0
C      1  0.4434790000000  0.4497090000000  0.5654330000000 1.0
C      1  0.4730850000000  0.5409870000000  0.3992070000000 1.0
C      1  0.4932310000000  0.4762690000000  0.3932540000000 1.0
C      1  0.5772110000000  0.4301040000000  0.4730520000000 1.0
C      1  0.4770680000000  0.5114210000000  0.6067650000000 1.0
C      1  0.5201730000000  0.5304010000000  0.4723960000000 1.0
C      1  0.4839600000000  0.4245560000000  0.4602370000000 1.0
C      1  0.5476200000000  0.4883720000000  0.5352740000000 1.0
C      1  0.3907660000000  0.4614850000000  0.5028590000000 1.0
C      1  0.6080300000000  0.5566300000000  0.5485680000000 1.0
C      1  0.5860760000000  0.4532580000000  0.4494830000000 1.0
C      1  0.4803210000000  0.5400870000000  0.5624500000000 1.0
C      1  0.4539440000000  0.5070000000000  0.3810570000000 1.0
C      1  0.4648670000000  0.4835270000000  0.3939150000000 1.0
C      1  0.5575890000000  0.4955860000000  0.6116450000000 1.0
C      1  0.4842550000000  0.4751150000000  0.5920520000000 1.0
C      1  0.3988560000000  0.4955480000000  0.4372890000000 1.0
C      1  0.6067620000000  0.5044220000000  0.4973450000000 1.0
C      1  0.5091060000000  0.5038720000000  0.3896770000000 1.0
C      1  0.5479260000000  0.5693060000000  0.5387270000000 1.0
C      1  0.4758910000000  0.4410460000000  0.5729850000000 1.0
C      1  0.5906150000000  0.5283480000000  0.5470840000000 1.0
C      1  0.5948230000000  0.4767190000000  0.5489290000000 1.0
C      1  0.5019560000000  0.4335330000000  0.5008470000000 1.0
C      1  0.5191900000000  0.6175250000000  0.4680460000000 1.0
C      1  0.5300740000000  0.4235460000000  0.4344560000000 1.0
C      1  0.5888690000000  0.5175960000000  0.4741670000000 1.0
C      1  0.5635350000000  0.4950240000000  0.4496400000000 1.0
C      1  0.5500340000000  0.5171350000000  0.4655480000000 1.0
C      1  0.4605090000000  0.4300710000000  0.4357580000000 1.0
C      1  0.5449300000000  0.4700050000000  0.4495600000000 1.0
C      1  0.4205770000000  0.4919540000000  0.5163650000000 1.0
C      1  0.4516580000000  0.4520250000000  0.5273040000000 1.0
C      1  0.4023910000000  0.4561910000000  0.4730710000000 1.0
C      1  0.5576430000000  0.5823740000000  0.4643930000000 1.0
C      1  0.5778800000000  0.5282120000000  0.5772550000000 1.0
C      1  0.4896430000000  0.5767180000000  0.4869270000000 1.0
C      1  0.4089760000000  0.5039710000000  0.5654450000000 1.0
C      1  0.5524490000000  0.5409500000000  0.5953410000000 1.0
C      1  0.5828270000000  0.5298300000000  0.4467100000000 1.0
C      1  0.4495580000000  0.4760090000000  0.4166010000000 1.0
C      1  0.4591150000000  0.4551020000000  0.4669220000000 1.0
C      1  0.4714570000000  0.5947200000000  0.4337920000000 1.0
C      1  0.5507810000000  0.5627250000000  0.4996150000000 1.0
C      1  0.4983950000000  0.5628440000000  0.5518690000000 1.0
C      1  0.4061750000000  0.4638350000000  0.4430830000000 1.0
C      1  0.4456340000000  0.5119310000000  0.4393260000000 1.0
C      1  0.4235440000000  0.5346360000000  0.5632050000000 1.0
C      1  0.5010280000000  0.5868510000000  0.4165820000000 1.0
C      1  0.4502690000000  0.5820550000000  0.4113690000000 1.0
C      1  0.5453570000000  0.4761240000000  0.4796750000000 1.0
C      1  0.5472510000000  0.4069170000000  0.5184690000000 1.0
C      1  0.5582480000000  0.5381790000000  0.5443490000000 1.0
C      1  0.5938450000000  0.4854500000000  0.4509350000000 1.0
C      1  0.4760570000000  0.5692700000000  0.4035680000000 1.0
C      1  0.5364460000000  0.4287040000000  0.5374540000000 1.0
C      1  0.4767590000000  0.4527400000000  0.5423590000000 1.0
C      1  0.4507110000000  0.4186580000000  0.5525700000000 1.0
C      1  0.4328740000000  0.4163010000000  0.4506930000000 1.0
C      1  0.4051740000000  0.4457460000000  0.5210750000000 1.0
C      1  0.4738950000000  0.4770560000000  0.5060840000000 1.0
C      1  0.5225560000000  0.5444010000000  0.5818350000000 1.0
C      1  0.6014960000000  0.5705260000000  0.5729690000000 1.0
C      1  0.5209700000000  0.5531610000000  0.4927550000000 1.0
C      1  0.5982690000000  0.5567450000000  0.5200550000000 1.0
C      1  0.4846780000000  0.5892690000000  0.5784520000000 1.0
C      1  0.5431880000000  0.6002130000000  0.4825240000000 1.0
C      1  0.5324970000000  0.3997480000000  0.4562370000000 1.0
C      1  0.5401960000000  0.4441220000000  0.5884970000000 1.0
C      1  0.4489700000000  0.4980130000000  0.6071950000000 1.0
C      1  0.5097430000000  0.4551040000000  0.4028660000000 1.0
C      1  0.5189100000000  0.4636690000000  0.5605070000000 1.0
C      1  0.4932680000000  0.5550400000000  0.5130190000000 1.0
C      1  0.5046950000000  0.4009140000000  0.4943130000000 1.0
C      1  0.4671120000000  0.5851390000000  0.5109400000000 1.0
C      1  0.4118340000000  0.4255210000000  0.4737490000000 1.0
C      1  0.5316050000000  0.5130790000000  0.4214290000000 1.0
C      1  0.5060150000000  0.4357970000000  0.5455520000000 1.0
C      1  0.5079830000000  0.4679130000000  0.4641060000000 1.0
C      1  0.5168390000000  0.4862070000000  0.4902900000000 1.0
C      1  0.5542330000000  0.5511760000000  0.4696280000000 1.0
C      1  0.4863920000000  0.4180670000000  0.5252770000000 1.0
C      1  0.5722960000000  0.5484870000000  0.5162580000000 1.0
C      1  0.4307170000000  0.4696680000000  0.5404120000000 1.0
C      1  0.6165630000000  0.4981020000000  0.4518630000000 1.0
C      1  0.5984160000000  0.5046460000000  0.5303600000000 1.0
C      1  0.4490550000000  0.5323980000000  0.4870850000000 1.0
C      1  0.4894630000000  0.6114250000000  0.5311390000000 1.0
C      1  0.5124910000000  0.4352100000000  0.4609930000000 1.0
C      1  0.5693950000000  0.4938330000000  0.4887360000000 1.0
C      1  0.4655220000000  0.6190890000000  0.5091380000000 1.0
C      1  0.5458440000000  0.5931610000000  0.5139910000000 1.0
C      1  0.4906630000000  0.5283510000000  0.3804140000000 1.0
C      1  0.5304250000000  0.4904280000000  0.5709960000000 1.0
C      1  0.5215710000000  0.4754160000000  0.5209460000000 1.0
C      1  0.5986000000000  0.4591350000000  0.4806430000000 1.0
C      1  0.5066460000000  0.3887460000000  0.4662220000000 1.0
C      1  0.4255550000000  0.5450190000000  0.5324080000000 1.0
C      1  0.5059760000000  0.4288110000000  0.4148710000000 1.0
C      1  0.4457660000000  0.4927960000000  0.4668740000000 1.0
C      1  0.4938110000000  0.4790690000000  0.5335880000000 1.0
C      1  0.5367860000000  0.5371030000000  0.4447160000000 1.0
C      1  0.4200660000000  0.5175070000000  0.4288680000000 1.0
C      1  0.5729690000000  0.4684230000000  0.4214340000000 1.0
C      1  0.5814010000000  0.5577450000000  0.5888940000000 1.0
C      1  0.5251440000000  0.3895510000000  0.5157780000000 1.0
C      1  0.4892350000000  0.5248480000000  0.4683360000000 1.0
C      1  0.5007750000000  0.5423790000000  0.6152980000000 1.0
C      1  0.4215260000000  0.4854210000000  0.5912050000000 1.0
C      1  0.4497980000000  0.4541870000000  0.4968230000000 1.0
C      1  0.5439760000000  0.5200530000000  0.6158530000000 1.0
C      1  0.5189350000000  0.5681770000000  0.5295950000000 1.0
C      1  0.5209700000000  0.5897090000000  0.4509660000000 1.0
C      1  0.3987950000000  0.4935430000000  0.5408830000000 1.0
C      1  0.4541110000000  0.4078800000000  0.5238650000000 1.0
C      1  0.5731960000000  0.4882680000000  0.5177220000000 1.0
C      1  0.5404300000000  0.4652450000000  0.4102640000000 1.0
C      1  0.5139260000000  0.5763830000000  0.5763510000000 1.0
C      1  0.5264670000000  0.4167230000000  0.5741390000000 1.0
C      1  0.4299540000000  0.5740670000000  0.5317520000000 1.0
C      1  0.4508110000000  0.5546050000000  0.5615540000000 1.0
C      1  0.4833130000000  0.4126590000000  0.4223590000000 1.0
C      1  0.5381350000000  0.5219170000000  0.5632360000000 1.0
C      1  0.4656010000000  0.5746840000000  0.5936260000000 1.0
C      1  0.4514700000000  0.4684910000000  0.5908570000000 1.0
C      1  0.4233170000000  0.5386610000000  0.4094410000000 1.0
C      1  0.5927860000000  0.4537450000000  0.5327990000000 1.0
C      1  0.4592880000000  0.4048620000000  0.4665130000000 1.0
C      1  0.5242500000000  0.4858500000000  0.4309910000000 1.0
C      1  0.5235540000000  0.4720480000000  0.5988340000000 1.0
C      1  0.5009950000000  0.5171890000000  0.5231580000000 1.0
C      1  0.5682470000000  0.4827140000000  0.5606290000000 1.0
C      1  0.4262420000000  0.4338290000000  0.5026280000000 1.0
C      1  0.5063430000000  0.5924240000000  0.5099820000000 1.0
C      1  0.5761380000000  0.4294950000000  0.5343680000000 1.0
C      1  0.4748200000000  0.3772270000000  0.4709630000000 1.0
C      1  0.4778430000000  0.4097500000000  0.5682640000000 1.0
C      1  0.5493940000000  0.5881710000000  0.4354850000000 1.0
C      1  0.4015650000000  0.5310960000000  0.4715310000000 1.0
C      1  0.4923020000000  0.5065440000000  0.4192250000000 1.0
C      1  0.4418650000000  0.4998990000000  0.5680850000000 1.0
C      1  0.4594930000000  0.6019130000000  0.4822640000000 1.0
END
