TITL C-2778430-5657-476 0.000702572467431798 125000 -820.880492990754 0 0 140 (C1) n - 1
REM
REM in /home/nfs/bkarasulu/CARBON/AIRSS/Generating-Clusters/REBO/Only-C1/SD-CG/HFTN-CG
REM
REM
REM
REM
REM
REM ./C.cell (11c1c37f851c82e70ff6c80c92926a4b)
REM
REM compiler GCC version 9.2.1 20190827 (Red Hat 9.2.1-1)
REM options -cpp -mtune=generic -march=x86-64 -g -O0 -fpre-include=/usr/include/finclude/math-vector-fortran.h
REM seed -963383713 -417513279 -1773967323 -2052516910 1613084447 -2033039988 -126850235 585430506 1575549412 -2000761452 837337269 -1032777480 889697880 -1548902132 -1108583085 -1406389215 1348005098 1363694839 -939044424 -899888325 -1172939772 604329659 -1516690401 -1997911901 -173038944 2073015077 1775265958 671501128 -1298461811 -764012203 717104139 1401383295 -709205387
REM
CELL 1.54180   50.00000   50.00000   50.00000   90.00000   90.00000   90.00000
LATT -1
SFAC C  
C      1  0.4896630000000  0.4935990000000  0.4089590000000 1.0
C      1  0.4082920000000  0.5027900000000  0.4764260000000 1.0
C      1  0.4384100000000  0.5020430000000  0.4605980000000 1.0
C      1  0.4765360000000  0.5178240000000  0.5586990000000 1.0
C      1  0.5514390000000  0.4983920000000  0.4682620000000 1.0
C      1  0.3997420000000  0.5043310000000  0.5263820000000 1.0
C      1  0.4850060000000  0.5776120000000  0.4619470000000 1.0
C      1  0.5805800000000  0.5324460000000  0.5150390000000 1.0
C      1  0.4391160000000  0.5688570000000  0.5125480000000 1.0
C      1  0.4651750000000  0.5046460000000  0.4788740000000 1.0
C      1  0.5383980000000  0.4467780000000  0.5768520000000 1.0
C      1  0.5106140000000  0.4097820000000  0.5384090000000 1.0
C      1  0.4678580000000  0.5606610000000  0.5752010000000 1.0
C      1  0.5759350000000  0.5374210000000  0.4385160000000 1.0
C      1  0.4289860000000  0.5503410000000  0.4680820000000 1.0
C      1  0.4392050000000  0.5024250000000  0.5233480000000 1.0
C      1  0.4512580000000  0.5372980000000  0.5827200000000 1.0
C      1  0.5528480000000  0.4460960000000  0.4739020000000 1.0
C      1  0.5239390000000  0.5691440000000  0.4624900000000 1.0
C      1  0.4208930000000  0.5083620000000  0.5514170000000 1.0
C      1  0.4934110000000  0.5476490000000  0.5056980000000 1.0
C      1  0.5668050000000  0.4808770000000  0.5900040000000 1.0
C      1  0.4566870000000  0.5708390000000  0.5475560000000 1.0
C      1  0.4196690000000  0.5307570000000  0.5185210000000 1.0
C      1  0.4308660000000  0.4206710000000  0.4638650000000 1.0
C      1  0.4653500000000  0.5376420000000  0.4171810000000 1.0
C      1  0.4721020000000  0.5327200000000  0.4777660000000 1.0
C      1  0.5118380000000  0.5133690000000  0.4931100000000 1.0
C      1  0.5519930000000  0.5301230000000  0.5284750000000 1.0
C      1  0.4867870000000  0.4820610000000  0.4541310000000 1.0
C      1  0.5007190000000  0.4482070000000  0.6087280000000 1.0
C      1  0.4152350000000  0.5044100000000  0.4242520000000 1.0
C      1  0.5653290000000  0.5704500000000  0.5219070000000 1.0
C      1  0.5614820000000  0.5860680000000  0.4857510000000 1.0
C      1  0.5220610000000  0.4359770000000  0.5968310000000 1.0
C      1  0.4805460000000  0.4334440000000  0.5131650000000 1.0
C      1  0.5299370000000  0.4743920000000  0.4258130000000 1.0
C      1  0.5092430000000  0.5639150000000  0.4167150000000 1.0
C      1  0.5636860000000  0.5183400000000  0.5769680000000 1.0
C      1  0.5133330000000  0.4819030000000  0.4846300000000 1.0
C      1  0.4542900000000  0.4570080000000  0.4267520000000 1.0
C      1  0.5471370000000  0.5637280000000  0.5648570000000 1.0
C      1  0.5209570000000  0.4471920000000  0.4121980000000 1.0
C      1  0.5303800000000  0.5613780000000  0.4356530000000 1.0
C      1  0.4453880000000  0.5789610000000  0.4653290000000 1.0
C      1  0.5465060000000  0.5383100000000  0.4361620000000 1.0
C      1  0.5806600000000  0.5590140000000  0.4938850000000 1.0
C      1  0.4971310000000  0.5402110000000  0.4048390000000 1.0
C      1  0.5912690000000  0.5068720000000  0.4983310000000 1.0
C      1  0.4973560000000  0.5583720000000  0.5750420000000 1.0
C      1  0.4872000000000  0.4257600000000  0.5404510000000 1.0
C      1  0.4823530000000  0.5713240000000  0.4303810000000 1.0
C      1  0.5273520000000  0.4758530000000  0.5663200000000 1.0
C      1  0.5332380000000  0.5122670000000  0.4501450000000 1.0
C      1  0.4509110000000  0.4616390000000  0.3975750000000 1.0
C      1  0.4870190000000  0.4993520000000  0.6000800000000 1.0
C      1  0.5761600000000  0.5318550000000  0.5983100000000 1.0
C      1  0.5290140000000  0.4747810000000  0.5332370000000 1.0
C      1  0.5621830000000  0.4734660000000  0.5411120000000 1.0
C      1  0.5668080000000  0.4878870000000  0.4940860000000 1.0
C      1  0.4278840000000  0.5542750000000  0.5399820000000 1.0
C      1  0.4591300000000  0.5256230000000  0.5147440000000 1.0
C      1  0.5236520000000  0.4501540000000  0.4825200000000 1.0
C      1  0.5019210000000  0.5923040000000  0.4862720000000 1.0
C      1  0.5151010000000  0.5142840000000  0.5946230000000 1.0
C      1  0.5489720000000  0.4398580000000  0.4224900000000 1.0
C      1  0.5680030000000  0.4603730000000  0.4962990000000 1.0
C      1  0.3948750000000  0.4905270000000  0.5027300000000 1.0
C      1  0.5505720000000  0.5361230000000  0.5567200000000 1.0
C      1  0.4714300000000  0.4569120000000  0.4697230000000 1.0
C      1  0.5528600000000  0.4242780000000  0.5211570000000 1.0
C      1  0.5835060000000  0.5092550000000  0.4650790000000 1.0
C      1  0.5649160000000  0.4495780000000  0.5212020000000 1.0
C      1  0.5834960000000  0.5018470000000  0.5594720000000 1.0
C      1  0.4678480000000  0.4868580000000  0.5472980000000 1.0
C      1  0.4824260000000  0.4869000000000  0.4933600000000 1.0
C      1  0.4702810000000  0.4600600000000  0.5022180000000 1.0
C      1  0.4969170000000  0.4815820000000  0.5734070000000 1.0
C      1  0.5352990000000  0.5910300000000  0.4793580000000 1.0
C      1  0.5995710000000  0.4329090000000  0.4609890000000 1.0
C      1  0.5230540000000  0.4554600000000  0.5127470000000 1.0
C      1  0.4806850000000  0.4684240000000  0.3991060000000 1.0
C      1  0.4473510000000  0.5090330000000  0.4223640000000 1.0
C      1  0.4862770000000  0.4121940000000  0.4886990000000 1.0
C      1  0.4365240000000  0.5318090000000  0.4440800000000 1.0
C      1  0.4643170000000  0.5380330000000  0.5425710000000 1.0
C      1  0.5376610000000  0.5655120000000  0.5171430000000 1.0
C      1  0.5315070000000  0.5365470000000  0.5037850000000 1.0
C      1  0.5179870000000  0.4753510000000  0.4524900000000 1.0
C      1  0.5162470000000  0.4096730000000  0.4882120000000 1.0
C      1  0.4585860000000  0.4837450000000  0.4407420000000 1.0
C      1  0.4492020000000  0.5480790000000  0.4933370000000 1.0
C      1  0.5113240000000  0.5149340000000  0.4043640000000 1.0
C      1  0.4518530000000  0.4645870000000  0.5973610000000 1.0
C      1  0.5622850000000  0.4711630000000  0.4273020000000 1.0
C      1  0.5989270000000  0.4608310000000  0.4614470000000 1.0
C      1  0.5699640000000  0.5040780000000  0.4335110000000 1.0
C      1  0.5191390000000  0.5717990000000  0.5608020000000 1.0
C      1  0.5690630000000  0.4714220000000  0.4579070000000 1.0
C      1  0.5643370000000  0.4614680000000  0.5699980000000 1.0
C      1  0.4829610000000  0.5448730000000  0.4523600000000 1.0
C      1  0.4548600000000  0.4238690000000  0.4950030000000 1.0
C      1  0.5396860000000  0.4997590000000  0.5863130000000 1.0
C      1  0.5392230000000  0.5040770000000  0.4176530000000 1.0
C      1  0.5283000000000  0.4111800000000  0.5151730000000 1.0
C      1  0.4595480000000  0.5137070000000  0.5968600000000 1.0
C      1  0.4363010000000  0.4438040000000  0.5153910000000 1.0
C      1  0.4129430000000  0.5323810000000  0.4882410000000 1.0
C      1  0.4993060000000  0.4388510000000  0.4620520000000 1.0
C      1  0.4975510000000  0.5285360000000  0.5749540000000 1.0
C      1  0.4016520000000  0.5011220000000  0.4449310000000 1.0
C      1  0.5012460000000  0.4923670000000  0.5409630000000 1.0
C      1  0.5676650000000  0.5779890000000  0.5493760000000 1.0
C      1  0.5487380000000  0.4202230000000  0.4439460000000 1.0
C      1  0.4294100000000  0.5329550000000  0.5635990000000 1.0
C      1  0.4403130000000  0.4936060000000  0.5999120000000 1.0
C      1  0.4355330000000  0.4434950000000  0.6048550000000 1.0
C      1  0.4916610000000  0.5162570000000  0.5187390000000 1.0
C      1  0.4423950000000  0.4511630000000  0.4633370000000 1.0
C      1  0.4502920000000  0.4739580000000  0.5226910000000 1.0
C      1  0.5118200000000  0.5502530000000  0.4794560000000 1.0
C      1  0.4661590000000  0.4357030000000  0.5569520000000 1.0
C      1  0.4671840000000  0.5913180000000  0.4868820000000 1.0
C      1  0.4697220000000  0.4625630000000  0.5705890000000 1.0
C      1  0.5792130000000  0.5008460000000  0.5297970000000 1.0
C      1  0.4824930000000  0.4678560000000  0.6080210000000 1.0
C      1  0.5731990000000  0.4220210000000  0.4615040000000 1.0
C      1  0.5254260000000  0.4170720000000  0.4602790000000 1.0
C      1  0.4934970000000  0.4452270000000  0.4109330000000 1.0
C      1  0.4847100000000  0.5162170000000  0.4340020000000 1.0
C      1  0.5163650000000  0.5764680000000  0.5327200000000 1.0
C      1  0.4648420000000  0.4180970000000  0.4627520000000 1.0
C      1  0.4927650000000  0.5783320000000  0.5144370000000 1.0
C      1  0.4212980000000  0.4430220000000  0.4865850000000 1.0
C      1  0.4636020000000  0.5884060000000  0.5206880000000 1.0
C      1  0.4766300000000  0.4345410000000  0.4370830000000 1.0
C      1  0.4505710000000  0.5616690000000  0.4364450000000 1.0
C      1  0.5870990000000  0.5430820000000  0.4672030000000 1.0
C      1  0.4409780000000  0.4328660000000  0.5451890000000 1.0
C      1  0.5036080000000  0.5115030000000  0.4600340000000 1.0
END
