TITL C-2778424-3986-688 0.000767786482151623 125000 -144.135574391027 0 0 26 (C1) n - 1
REM
REM in /home/nfs/bkarasulu/CARBON/AIRSS/Generating-Clusters/REBO/Only-C1/SD-CG/HFTN-CG
REM
REM
REM
REM
REM
REM ./C.cell (11c1c37f851c82e70ff6c80c92926a4b)
REM
REM compiler GCC version 9.2.1 20190827 (Red Hat 9.2.1-1)
REM options -cpp -mtune=generic -march=x86-64 -g -O0 -fpre-include=/usr/include/finclude/math-vector-fortran.h
REM seed 1823182499 1147717898 -1817662135 623636834 -1083688664 1928394661 -1632812722 170545300 108258882 -1024534083 1560436282 -2008599337 -2010836374 151757643 -1541714213 1048548280 -1660633991 1130091658 -2141574694 -658428229 738397114 1958433631 -429772619 -1308194003 -251023580 204981853 216959330 -1292855761 -809931985 2069883497 -1399280724 943882148 380265944
REM
CELL 1.54180   50.00000   50.00000   50.00000   90.00000   90.00000   90.00000
LATT -1
SFAC C  
C      1  0.5433720000000  0.4965050000000  0.4613810000000 1.0
C      1  0.4349860000000  0.5065750000000  0.5137320000000 1.0
C      1  0.5047730000000  0.5305800000000  0.5207760000000 1.0
C      1  0.4783440000000  0.5393540000000  0.5088160000000 1.0
C      1  0.5283590000000  0.5338640000000  0.4968520000000 1.0
C      1  0.4428070000000  0.4950490000000  0.4837070000000 1.0
C      1  0.5575730000000  0.4696010000000  0.4528810000000 1.0
C      1  0.4600180000000  0.4994000000000  0.5363380000000 1.0
C      1  0.4994950000000  0.5048110000000  0.5387170000000 1.0
C      1  0.5019690000000  0.4621340000000  0.4753650000000 1.0
C      1  0.4615510000000  0.4878110000000  0.4573940000000 1.0
C      1  0.5052940000000  0.4674240000000  0.5048840000000 1.0
C      1  0.4853800000000  0.4812460000000  0.5221430000000 1.0
C      1  0.4560010000000  0.5304830000000  0.5239990000000 1.0
C      1  0.5059590000000  0.5029820000000  0.5641820000000 1.0
C      1  0.5347430000000  0.4715600000000  0.5103260000000 1.0
C      1  0.5358260000000  0.5168340000000  0.5240990000000 1.0
C      1  0.5658430000000  0.4851980000000  0.5448290000000 1.0
C      1  0.4796710000000  0.5363810000000  0.4800240000000 1.0
C      1  0.5340820000000  0.4685530000000  0.4774510000000 1.0
C      1  0.5068180000000  0.5373210000000  0.4715070000000 1.0
C      1  0.5339390000000  0.5211230000000  0.4663640000000 1.0
C      1  0.5460690000000  0.4911410000000  0.5271400000000 1.0
C      1  0.4537010000000  0.4779350000000  0.5105740000000 1.0
C      1  0.4620950000000  0.5178060000000  0.4683820000000 1.0
C      1  0.4813310000000  0.4683300000000  0.4581350000000 1.0
END
