TITL C-2778428-5639-969 -0.00065679990537795 125000 -219.416749539947 0 0 39 (C1) n - 1
REM
REM in /home/nfs/bkarasulu/CARBON/AIRSS/Generating-Clusters/REBO/Only-C1/SD-CG/HFTN-CG
REM
REM
REM
REM
REM
REM ./C.cell (11c1c37f851c82e70ff6c80c92926a4b)
REM
REM compiler GCC version 9.2.1 20190827 (Red Hat 9.2.1-1)
REM options -cpp -mtune=generic -march=x86-64 -g -O0 -fpre-include=/usr/include/finclude/math-vector-fortran.h
REM seed -1604632698 1314050180 1954189109 -700172978 1615400529 1125330592 1952627827 -1838471381 -609846313 -1590868893 -954672588 378289024 1699612279 -670606652 1819004788 -534481215 803140583 1990636251 441507209 -1396382098 771121248 -1815783364 -1899004145 1973982460 -799026596 -1510674694 -881317515 978359337 -758793504 259054757 1306056732 425507392 1184880175
REM
CELL 1.54180   50.00000   50.00000   50.00000   90.00000   90.00000   90.00000
LATT -1
SFAC C  
C      1  0.5202520000000  0.4451900000000  0.4744700000000 1.0
C      1  0.4361020000000  0.4703900000000  0.5034630000000 1.0
C      1  0.4857340000000  0.5476020000000  0.5572530000000 1.0
C      1  0.5035180000000  0.4743050000000  0.4986850000000 1.0
C      1  0.5142170000000  0.5426310000000  0.5462590000000 1.0
C      1  0.4688960000000  0.5528170000000  0.5313670000000 1.0
C      1  0.5508210000000  0.5772200000000  0.4813310000000 1.0
C      1  0.4982970000000  0.4712080000000  0.4135300000000 1.0
C      1  0.5407670000000  0.5569360000000  0.4961950000000 1.0
C      1  0.5084200000000  0.5231650000000  0.4814420000000 1.0
C      1  0.5623510000000  0.4221530000000  0.4497670000000 1.0
C      1  0.4763890000000  0.4543830000000  0.5701330000000 1.0
C      1  0.4981290000000  0.4593490000000  0.4619790000000 1.0
C      1  0.5573830000000  0.5249920000000  0.5672560000000 1.0
C      1  0.5709600000000  0.4782970000000  0.4780030000000 1.0
C      1  0.4519700000000  0.4731410000000  0.4799830000000 1.0
C      1  0.5128340000000  0.5481890000000  0.4950950000000 1.0
C      1  0.5408770000000  0.5301630000000  0.5425950000000 1.0
C      1  0.5419100000000  0.4333390000000  0.4617610000000 1.0
C      1  0.5444260000000  0.5094610000000  0.5168680000000 1.0
C      1  0.4353480000000  0.4969190000000  0.5206410000000 1.0
C      1  0.4786850000000  0.4655020000000  0.4839580000000 1.0
C      1  0.4366610000000  0.5212160000000  0.5054810000000 1.0
C      1  0.4519210000000  0.4696960000000  0.5317970000000 1.0
C      1  0.4985520000000  0.5513950000000  0.5198930000000 1.0
C      1  0.4929950000000  0.5199560000000  0.4583350000000 1.0
C      1  0.5206660000000  0.4989360000000  0.4956200000000 1.0
C      1  0.4756480000000  0.4998860000000  0.4480280000000 1.0
C      1  0.4964020000000  0.4471380000000  0.5271020000000 1.0
C      1  0.4381950000000  0.5200290000000  0.4762650000000 1.0
C      1  0.4317290000000  0.5418750000000  0.4612770000000 1.0
C      1  0.4457420000000  0.5443750000000  0.5187640000000 1.0
C      1  0.5529420000000  0.4905620000000  0.4914180000000 1.0
C      1  0.4509570000000  0.4969030000000  0.4639160000000 1.0
C      1  0.4903230000000  0.4753700000000  0.4391000000000 1.0
C      1  0.5713660000000  0.5206120000000  0.5881480000000 1.0
C      1  0.5550910000000  0.5408420000000  0.5143410000000 1.0
C      1  0.4747360000000  0.4567870000000  0.5429350000000 1.0
C      1  0.5177880000000  0.4470670000000  0.5055470000000 1.0
END
