TITL C-2778430-5657-1042 -0.000431713132146175 125000 -721.055225310381 0 0 124 (C1) n - 1
REM
REM in /home/nfs/bkarasulu/CARBON/AIRSS/Generating-Clusters/REBO/Only-C1/SD-CG/HFTN-CG
REM
REM
REM
REM
REM
REM ./C.cell (11c1c37f851c82e70ff6c80c92926a4b)
REM
REM compiler GCC version 9.2.1 20190827 (Red Hat 9.2.1-1)
REM options -cpp -mtune=generic -march=x86-64 -g -O0 -fpre-include=/usr/include/finclude/math-vector-fortran.h
REM seed 1361500264 1757659850 -1456255199 379348791 -1073342515 765574203 50524874 1080150949 875373645 -1576669463 -808700517 788042538 -1521577265 1796316725 -934874073 -734216310 345443634 1863843557 -652486528 60106688 -732886136 721702039 1935734618 -1032509900 -1988944306 675833049 -194740325 -414820190 29460716 -1114034416 -1381011768 219310183 1129324099
REM
CELL 1.54180   50.00000   50.00000   50.00000   90.00000   90.00000   90.00000
LATT -1
SFAC C  
C      1  0.5523030000000  0.5302420000000  0.4582810000000 1.0
C      1  0.4981370000000  0.5199380000000  0.3994880000000 1.0
C      1  0.5509570000000  0.5102220000000  0.5662300000000 1.0
C      1  0.4922270000000  0.5969730000000  0.4954550000000 1.0
C      1  0.4561890000000  0.4755510000000  0.5790280000000 1.0
C      1  0.5691110000000  0.5323290000000  0.5382710000000 1.0
C      1  0.4393310000000  0.5451850000000  0.5491640000000 1.0
C      1  0.5245630000000  0.4869280000000  0.5000070000000 1.0
C      1  0.4818540000000  0.4125570000000  0.4900500000000 1.0
C      1  0.5190240000000  0.4559760000000  0.4193960000000 1.0
C      1  0.4999220000000  0.5165560000000  0.5667090000000 1.0
C      1  0.5438660000000  0.5717860000000  0.4884750000000 1.0
C      1  0.4500060000000  0.4498290000000  0.5620760000000 1.0
C      1  0.4715630000000  0.5168020000000  0.5202920000000 1.0
C      1  0.4729160000000  0.5238110000000  0.5519800000000 1.0
C      1  0.5517150000000  0.5897220000000  0.5165540000000 1.0
C      1  0.5199250000000  0.5181270000000  0.5009720000000 1.0
C      1  0.5607250000000  0.5569350000000  0.5213040000000 1.0
C      1  0.4697610000000  0.5350470000000  0.4683910000000 1.0
C      1  0.5836680000000  0.4580790000000  0.4841000000000 1.0
C      1  0.5410410000000  0.4792890000000  0.4203400000000 1.0
C      1  0.4914640000000  0.5384130000000  0.5891300000000 1.0
C      1  0.4664040000000  0.5659260000000  0.5491740000000 1.0
C      1  0.4724880000000  0.5768400000000  0.4512410000000 1.0
C      1  0.4880580000000  0.5301840000000  0.4410360000000 1.0
C      1  0.4601170000000  0.4188130000000  0.5114290000000 1.0
C      1  0.5405580000000  0.5817980000000  0.4586220000000 1.0
C      1  0.5805790000000  0.4519840000000  0.5637960000000 1.0
C      1  0.5086980000000  0.4767170000000  0.5969190000000 1.0
C      1  0.4518830000000  0.5775330000000  0.4944610000000 1.0
C      1  0.4242620000000  0.5426090000000  0.4949550000000 1.0
C      1  0.4886260000000  0.4614330000000  0.4232330000000 1.0
C      1  0.4822370000000  0.4540740000000  0.5388160000000 1.0
C      1  0.4333750000000  0.5646240000000  0.4747410000000 1.0
C      1  0.5269380000000  0.5609060000000  0.5227900000000 1.0
C      1  0.5233970000000  0.5739020000000  0.4423970000000 1.0
C      1  0.4769350000000  0.3940000000000  0.4652310000000 1.0
C      1  0.5418160000000  0.4786450000000  0.4738180000000 1.0
C      1  0.5122060000000  0.4949070000000  0.4149300000000 1.0
C      1  0.4696240000000  0.5480070000000  0.5137490000000 1.0
C      1  0.4150960000000  0.4607390000000  0.5074980000000 1.0
C      1  0.4992690000000  0.4522850000000  0.5749400000000 1.0
C      1  0.5811360000000  0.5484260000000  0.4550020000000 1.0
C      1  0.5274230000000  0.5176360000000  0.5504210000000 1.0
C      1  0.5866880000000  0.5227390000000  0.4766790000000 1.0
C      1  0.4452980000000  0.4274090000000  0.4842520000000 1.0
C      1  0.5389660000000  0.5014140000000  0.4535420000000 1.0
C      1  0.4939120000000  0.4223830000000  0.5339420000000 1.0
C      1  0.5170630000000  0.5330980000000  0.5261400000000 1.0
C      1  0.4775690000000  0.4306850000000  0.5627880000000 1.0
C      1  0.4497020000000  0.4314200000000  0.5338070000000 1.0
C      1  0.5790810000000  0.4971470000000  0.4553450000000 1.0
C      1  0.4383780000000  0.4375360000000  0.4390280000000 1.0
C      1  0.4417370000000  0.5255440000000  0.4733680000000 1.0
C      1  0.5398290000000  0.4332600000000  0.4656700000000 1.0
C      1  0.5707680000000  0.4764680000000  0.5706540000000 1.0
C      1  0.5292820000000  0.4254310000000  0.4953660000000 1.0
C      1  0.4781830000000  0.5969340000000  0.4714650000000 1.0
C      1  0.4406490000000  0.4963560000000  0.4834910000000 1.0
C      1  0.4254150000000  0.4870240000000  0.4447050000000 1.0
C      1  0.5631180000000  0.5092090000000  0.5155290000000 1.0
C      1  0.4131860000000  0.4889070000000  0.5022080000000 1.0
C      1  0.4223260000000  0.4571140000000  0.4549080000000 1.0
C      1  0.4566480000000  0.4499200000000  0.4194420000000 1.0
C      1  0.5029430000000  0.5843300000000  0.5184960000000 1.0
C      1  0.4890760000000  0.4897600000000  0.5178680000000 1.0
C      1  0.4685880000000  0.5170120000000  0.5911990000000 1.0
C      1  0.4862010000000  0.4196040000000  0.4448090000000 1.0
C      1  0.4214240000000  0.4476570000000  0.4832390000000 1.0
C      1  0.5392030000000  0.4825590000000  0.5822870000000 1.0
C      1  0.5038490000000  0.5637160000000  0.5863830000000 1.0
C      1  0.4610010000000  0.4548180000000  0.4917980000000 1.0
C      1  0.5649810000000  0.4699050000000  0.4425940000000 1.0
C      1  0.4472900000000  0.5619730000000  0.4491990000000 1.0
C      1  0.4223500000000  0.5353870000000  0.5227290000000 1.0
C      1  0.4936530000000  0.4616600000000  0.4998890000000 1.0
C      1  0.5330220000000  0.5855910000000  0.5447750000000 1.0
C      1  0.4266380000000  0.5153990000000  0.4467570000000 1.0
C      1  0.5124440000000  0.4176900000000  0.5152230000000 1.0
C      1  0.5026430000000  0.4852050000000  0.5664260000000 1.0
C      1  0.4347830000000  0.4860210000000  0.5544570000000 1.0
C      1  0.4499180000000  0.4963280000000  0.5146760000000 1.0
C      1  0.4687340000000  0.5260660000000  0.4158080000000 1.0
C      1  0.4946280000000  0.4376760000000  0.4792110000000 1.0
C      1  0.5581320000000  0.4780520000000  0.5278270000000 1.0
C      1  0.4455710000000  0.5163860000000  0.5661340000000 1.0
C      1  0.5804430000000  0.5019020000000  0.5505540000000 1.0
C      1  0.4538870000000  0.4174680000000  0.4564760000000 1.0
C      1  0.4544100000000  0.4782390000000  0.4342160000000 1.0
C      1  0.4443130000000  0.5371470000000  0.4340510000000 1.0
C      1  0.4774600000000  0.4518920000000  0.4535060000000 1.0
C      1  0.5142150000000  0.4616590000000  0.4659010000000 1.0
C      1  0.5134560000000  0.5590570000000  0.4795790000000 1.0
C      1  0.5492680000000  0.5195190000000  0.4902290000000 1.0
C      1  0.4908220000000  0.5856260000000  0.5449890000000 1.0
C      1  0.4445040000000  0.5684340000000  0.5243960000000 1.0
C      1  0.5049900000000  0.4936950000000  0.4730120000000 1.0
C      1  0.5661790000000  0.4492930000000  0.4622670000000 1.0
C      1  0.5705120000000  0.5350470000000  0.5703140000000 1.0
C      1  0.5143780000000  0.4356660000000  0.4445070000000 1.0
C      1  0.4784240000000  0.4939600000000  0.4215320000000 1.0
C      1  0.5737800000000  0.4519460000000  0.5139940000000 1.0
C      1  0.5103900000000  0.4921980000000  0.5368880000000 1.0
C      1  0.4615600000000  0.4683890000000  0.5215700000000 1.0
C      1  0.5846910000000  0.4390920000000  0.5399470000000 1.0
C      1  0.4919510000000  0.5465110000000  0.5372340000000 1.0
C      1  0.5913670000000  0.4904700000000  0.4864330000000 1.0
C      1  0.4800500000000  0.5600210000000  0.4866250000000 1.0
C      1  0.5463550000000  0.4538490000000  0.4971550000000 1.0
C      1  0.4763980000000  0.4888200000000  0.5959280000000 1.0
C      1  0.5006360000000  0.5270820000000  0.4786590000000 1.0
C      1  0.5156520000000  0.4536240000000  0.5459850000000 1.0
C      1  0.4560470000000  0.4747260000000  0.4671650000000 1.0
C      1  0.4217780000000  0.5048810000000  0.5291390000000 1.0
C      1  0.5113890000000  0.5829330000000  0.5663760000000 1.0
C      1  0.5663650000000  0.5381770000000  0.4277470000000 1.0
C      1  0.5608860000000  0.5060420000000  0.4279140000000 1.0
C      1  0.5080360000000  0.5084190000000  0.4441170000000 1.0
C      1  0.5374950000000  0.4769210000000  0.5486530000000 1.0
C      1  0.4965860000000  0.5587600000000  0.4495080000000 1.0
C      1  0.5675120000000  0.5474130000000  0.4907290000000 1.0
C      1  0.4273270000000  0.4570240000000  0.5374570000000 1.0
C      1  0.5206430000000  0.4595610000000  0.5163250000000 1.0
C      1  0.5895820000000  0.4894560000000  0.5199130000000 1.0
END
