TITL C-2778431-5191-867 0.00688461601098878 125000 -971.170251702387 0 0 164 (C1) n - 1
REM
REM in /home/nfs/bkarasulu/CARBON/AIRSS/Generating-Clusters/REBO/Only-C1/SD-CG/HFTN-CG
REM
REM
REM
REM
REM
REM ./C.cell (11c1c37f851c82e70ff6c80c92926a4b)
REM
REM compiler GCC version 9.2.1 20190827 (Red Hat 9.2.1-1)
REM options -cpp -mtune=generic -march=x86-64 -g -O0 -fpre-include=/usr/include/finclude/math-vector-fortran.h
REM seed -1588663044 -1192471821 -1033454360 1064458265 2111517423 830166554 -647894641 -1970987624 810898563 1031835609 -2021871216 -500290479 -1478537738 88580186 1923207624 411265527 -153031432 -515177867 -779501012 604247973 -222572723 -737051682 -791982205 2131568258 1897628653 67687473 -565623788 1412058793 -1992477157 606396482 1042464002 -994845564 888681084
REM
CELL 1.54180   50.00000   50.00000   50.00000   90.00000   90.00000   90.00000
LATT -1
SFAC C  
C      1  0.4206630000000  0.5550230000000  0.4676520000000 1.0
C      1  0.4892990000000  0.4860220000000  0.4557740000000 1.0
C      1  0.5270000000000  0.5093410000000  0.5968780000000 1.0
C      1  0.5804390000000  0.5661400000000  0.4825590000000 1.0
C      1  0.4492490000000  0.5525810000000  0.5185870000000 1.0
C      1  0.4413820000000  0.4395390000000  0.5492870000000 1.0
C      1  0.4336080000000  0.4490820000000  0.5082530000000 1.0
C      1  0.4632840000000  0.4585070000000  0.5108510000000 1.0
C      1  0.5711070000000  0.4290330000000  0.5341810000000 1.0
C      1  0.5955310000000  0.4586410000000  0.4956360000000 1.0
C      1  0.5080820000000  0.5387790000000  0.4518310000000 1.0
C      1  0.5264700000000  0.5352950000000  0.4164720000000 1.0
C      1  0.4868630000000  0.5562020000000  0.4324430000000 1.0
C      1  0.5635260000000  0.4532970000000  0.4332920000000 1.0
C      1  0.4057230000000  0.5526940000000  0.4967780000000 1.0
C      1  0.5731600000000  0.4794330000000  0.4210290000000 1.0
C      1  0.5238360000000  0.5738690000000  0.5535080000000 1.0
C      1  0.5475520000000  0.5805740000000  0.5297920000000 1.0
C      1  0.4518300000000  0.5964100000000  0.5444310000000 1.0
C      1  0.5285510000000  0.4621720000000  0.5443460000000 1.0
C      1  0.5396340000000  0.4182950000000  0.5312960000000 1.0
C      1  0.5183380000000  0.4805810000000  0.6021590000000 1.0
C      1  0.4211890000000  0.4623990000000  0.4628500000000 1.0
C      1  0.5954220000000  0.5507010000000  0.5004010000000 1.0
C      1  0.4113260000000  0.5491310000000  0.5307990000000 1.0
C      1  0.5880860000000  0.5088050000000  0.5227570000000 1.0
C      1  0.4627420000000  0.5258720000000  0.5449540000000 1.0
C      1  0.5937900000000  0.4697740000000  0.5525420000000 1.0
C      1  0.5575070000000  0.4967870000000  0.4691580000000 1.0
C      1  0.4187150000000  0.5342510000000  0.5605140000000 1.0
C      1  0.6141890000000  0.5063220000000  0.5023970000000 1.0
C      1  0.3959750000000  0.5135780000000  0.5403900000000 1.0
C      1  0.4534010000000  0.4714570000000  0.4654650000000 1.0
C      1  0.4345720000000  0.5266130000000  0.5074120000000 1.0
C      1  0.4666690000000  0.5329550000000  0.5890600000000 1.0
C      1  0.4493140000000  0.4009020000000  0.5169770000000 1.0
C      1  0.5482380000000  0.4597670000000  0.5700250000000 1.0
C      1  0.4912070000000  0.5646590000000  0.5575660000000 1.0
C      1  0.4795720000000  0.5569030000000  0.5261770000000 1.0
C      1  0.4595740000000  0.5998410000000  0.4938990000000 1.0
C      1  0.4181390000000  0.4555520000000  0.5445630000000 1.0
C      1  0.5370450000000  0.5362890000000  0.5511190000000 1.0
C      1  0.4358810000000  0.4943670000000  0.4216390000000 1.0
C      1  0.4274780000000  0.4198660000000  0.5034470000000 1.0
C      1  0.4945920000000  0.4762820000000  0.4269790000000 1.0
C      1  0.5124970000000  0.4411040000000  0.4222940000000 1.0
C      1  0.4825630000000  0.4685540000000  0.4845420000000 1.0
C      1  0.5835440000000  0.5551260000000  0.4351580000000 1.0
C      1  0.5845770000000  0.5234090000000  0.4650150000000 1.0
C      1  0.4410930000000  0.5219960000000  0.4767430000000 1.0
C      1  0.4497200000000  0.4994770000000  0.4524440000000 1.0
C      1  0.5259350000000  0.4352180000000  0.5737780000000 1.0
C      1  0.4315420000000  0.5763820000000  0.5346630000000 1.0
C      1  0.5516190000000  0.4906390000000  0.5824020000000 1.0
C      1  0.5753060000000  0.5367650000000  0.5194900000000 1.0
C      1  0.3948400000000  0.5260100000000  0.5110320000000 1.0
C      1  0.4550640000000  0.4840790000000  0.5959460000000 1.0
C      1  0.5405910000000  0.4177140000000  0.4813510000000 1.0
C      1  0.4681480000000  0.5395040000000  0.4721090000000 1.0
C      1  0.4717280000000  0.5169500000000  0.5179410000000 1.0
C      1  0.4302380000000  0.5739540000000  0.5012520000000 1.0
C      1  0.4602890000000  0.4969680000000  0.5006970000000 1.0
C      1  0.4679430000000  0.5771280000000  0.4492070000000 1.0
C      1  0.5405860000000  0.4497800000000  0.5191960000000 1.0
C      1  0.5304010000000  0.4899980000000  0.4490860000000 1.0
C      1  0.4181720000000  0.5240480000000  0.4531170000000 1.0
C      1  0.4040770000000  0.5050160000000  0.5703200000000 1.0
C      1  0.4642730000000  0.6099220000000  0.5225110000000 1.0
C      1  0.5385890000000  0.5079680000000  0.5586720000000 1.0
C      1  0.4089080000000  0.4714610000000  0.5665190000000 1.0
C      1  0.4008700000000  0.4979750000000  0.4999480000000 1.0
C      1  0.5567570000000  0.5266160000000  0.4090220000000 1.0
C      1  0.4475550000000  0.5340970000000  0.5666870000000 1.0
C      1  0.5327020000000  0.5040480000000  0.5092830000000 1.0
C      1  0.4737220000000  0.5053460000000  0.5956630000000 1.0
C      1  0.4987450000000  0.5245310000000  0.5132380000000 1.0
C      1  0.4667940000000  0.4271670000000  0.5039660000000 1.0
C      1  0.5319310000000  0.4581740000000  0.4390570000000 1.0
C      1  0.4333390000000  0.4898070000000  0.5775170000000 1.0
C      1  0.4482050000000  0.5496500000000  0.4483510000000 1.0
C      1  0.4686010000000  0.4514130000000  0.5623910000000 1.0
C      1  0.5182870000000  0.5354530000000  0.5892670000000 1.0
C      1  0.5190220000000  0.4167250000000  0.5541730000000 1.0
C      1  0.4932150000000  0.6009700000000  0.5147570000000 1.0
C      1  0.4330080000000  0.4874490000000  0.4957650000000 1.0
C      1  0.4942370000000  0.4987520000000  0.5766330000000 1.0
C      1  0.4543620000000  0.4937290000000  0.3956430000000 1.0
C      1  0.4422880000000  0.4915680000000  0.5449000000000 1.0
C      1  0.4782040000000  0.5090430000000  0.3972970000000 1.0
C      1  0.5293780000000  0.4566140000000  0.4713590000000 1.0
C      1  0.4949060000000  0.4168000000000  0.4379140000000 1.0
C      1  0.4317950000000  0.4648360000000  0.4325930000000 1.0
C      1  0.5118050000000  0.5354590000000  0.5371220000000 1.0
C      1  0.4920990000000  0.5453170000000  0.5821010000000 1.0
C      1  0.4987380000000  0.4442620000000  0.4662960000000 1.0
C      1  0.5943640000000  0.4814980000000  0.4699340000000 1.0
C      1  0.5854600000000  0.4300770000000  0.5092110000000 1.0
C      1  0.5789400000000  0.5287140000000  0.4259660000000 1.0
C      1  0.4981000000000  0.4496850000000  0.5460250000000 1.0
C      1  0.5482030000000  0.5848210000000  0.4959280000000 1.0
C      1  0.4923130000000  0.4087450000000  0.5458160000000 1.0
C      1  0.4263350000000  0.5088930000000  0.5287800000000 1.0
C      1  0.5090190000000  0.5727980000000  0.5230860000000 1.0
C      1  0.5506010000000  0.5880110000000  0.4675100000000 1.0
C      1  0.4233640000000  0.4324340000000  0.4737590000000 1.0
C      1  0.5631150000000  0.5535250000000  0.5420450000000 1.0
C      1  0.4129470000000  0.4948490000000  0.4689360000000 1.0
C      1  0.4865100000000  0.5565700000000  0.4926960000000 1.0
C      1  0.5578960000000  0.4881550000000  0.3996550000000 1.0
C      1  0.4610850000000  0.4172210000000  0.5431220000000 1.0
C      1  0.5637530000000  0.4634000000000  0.5076400000000 1.0
C      1  0.5760650000000  0.5107140000000  0.5717030000000 1.0
C      1  0.5230300000000  0.4157500000000  0.5042540000000 1.0
C      1  0.5214520000000  0.4210920000000  0.4556040000000 1.0
C      1  0.4696030000000  0.5874100000000  0.5633270000000 1.0
C      1  0.4761500000000  0.4534190000000  0.4135850000000 1.0
C      1  0.5836070000000  0.4511340000000  0.4590600000000 1.0
C      1  0.5769710000000  0.4929800000000  0.4970690000000 1.0
C      1  0.4669640000000  0.4732230000000  0.5374400000000 1.0
C      1  0.5748970000000  0.5746100000000  0.4537490000000 1.0
C      1  0.4706380000000  0.5348420000000  0.4167000000000 1.0
C      1  0.5052660000000  0.5290440000000  0.4817720000000 1.0
C      1  0.5308010000000  0.5062680000000  0.3997600000000 1.0
C      1  0.5258390000000  0.4919660000000  0.5379160000000 1.0
C      1  0.5029650000000  0.4679570000000  0.5742060000000 1.0
C      1  0.5051810000000  0.4843020000000  0.5047910000000 1.0
C      1  0.4427320000000  0.5811660000000  0.4717700000000 1.0
C      1  0.6062240000000  0.5282340000000  0.4845990000000 1.0
C      1  0.4964150000000  0.5922230000000  0.4574830000000 1.0
C      1  0.4882480000000  0.5859460000000  0.4860590000000 1.0
C      1  0.5365860000000  0.5539450000000  0.4520990000000 1.0
C      1  0.4388150000000  0.5274490000000  0.4262640000000 1.0
C      1  0.4965180000000  0.4003770000000  0.4950370000000 1.0
C      1  0.5188210000000  0.5646180000000  0.4238590000000 1.0
C      1  0.5245990000000  0.5858370000000  0.4489710000000 1.0
C      1  0.4682500000000  0.4591460000000  0.5917840000000 1.0
C      1  0.4544980000000  0.4205190000000  0.4742600000000 1.0
C      1  0.5407220000000  0.5558560000000  0.5770000000000 1.0
C      1  0.5029220000000  0.4582620000000  0.3950510000000 1.0
C      1  0.4779000000000  0.5110390000000  0.4371870000000 1.0
C      1  0.4683530000000  0.4425890000000  0.4577980000000 1.0
C      1  0.5119620000000  0.5112720000000  0.4349040000000 1.0
C      1  0.5866520000000  0.4996660000000  0.4420580000000 1.0
C      1  0.4843550000000  0.4071790000000  0.4687810000000 1.0
C      1  0.4121550000000  0.4706640000000  0.5169260000000 1.0
C      1  0.5167200000000  0.4549830000000  0.5001760000000 1.0
C      1  0.5052140000000  0.4920290000000  0.3991690000000 1.0
C      1  0.4821440000000  0.3937650000000  0.5190750000000 1.0
C      1  0.5725130000000  0.4270650000000  0.4799860000000 1.0
C      1  0.5901180000000  0.4978070000000  0.5504710000000 1.0
C      1  0.4957100000000  0.4566100000000  0.6053410000000 1.0
C      1  0.5285920000000  0.5077130000000  0.4779730000000 1.0
C      1  0.5534880000000  0.4267590000000  0.4511500000000 1.0
C      1  0.5572640000000  0.5428990000000  0.4705320000000 1.0
C      1  0.4548490000000  0.4481800000000  0.4300260000000 1.0
C      1  0.5704460000000  0.5396150000000  0.5722680000000 1.0
C      1  0.5478510000000  0.5332130000000  0.5018350000000 1.0
C      1  0.5741180000000  0.4494840000000  0.5542390000000 1.0
C      1  0.5304900000000  0.5593680000000  0.5046400000000 1.0
C      1  0.4927030000000  0.5156640000000  0.5517100000000 1.0
C      1  0.4928620000000  0.4878100000000  0.5351590000000 1.0
C      1  0.4793020000000  0.5077940000000  0.4775290000000 1.0
C      1  0.5585190000000  0.4650040000000  0.4756490000000 1.0
C      1  0.4963760000000  0.4345900000000  0.5155890000000 1.0
END
