TITL C-2778431-5191-380 0.00474953676630645 125000 -951.319034621513 0 0 163 (C1) n - 1
REM
REM in /home/nfs/bkarasulu/CARBON/AIRSS/Generating-Clusters/REBO/Only-C1/SD-CG/HFTN-CG
REM
REM
REM
REM
REM
REM ./C.cell (11c1c37f851c82e70ff6c80c92926a4b)
REM
REM compiler GCC version 9.2.1 20190827 (Red Hat 9.2.1-1)
REM options -cpp -mtune=generic -march=x86-64 -g -O0 -fpre-include=/usr/include/finclude/math-vector-fortran.h
REM seed 1788448101 -908698944 945909763 -383906025 -550388410 230543136 302464018 1143677190 -1326893063 -606671005 -1005486254 -30482133 180337381 1191707914 128892995 394576182 518604135 -73097434 847429268 237286125 1766877311 1986757452 2000598420 -1841808117 -589614157 2107253819 1769493071 1167068169 -1247245281 1242790494 -2035689789 1119968267 627576484
REM
CELL 1.54180   50.00000   50.00000   50.00000   90.00000   90.00000   90.00000
LATT -1
SFAC C  
C      1  0.5777600000000  0.5040210000000  0.5317910000000 1.0
C      1  0.5429210000000  0.5333990000000  0.5872010000000 1.0
C      1  0.4721740000000  0.4182980000000  0.4526340000000 1.0
C      1  0.4886160000000  0.4556690000000  0.3910530000000 1.0
C      1  0.4435160000000  0.5499650000000  0.5812980000000 1.0
C      1  0.5442280000000  0.5097080000000  0.5551210000000 1.0
C      1  0.5173430000000  0.5576980000000  0.4993590000000 1.0
C      1  0.5431110000000  0.3933360000000  0.4710200000000 1.0
C      1  0.5813480000000  0.4425210000000  0.4529630000000 1.0
C      1  0.4797760000000  0.5490700000000  0.5978960000000 1.0
C      1  0.4884130000000  0.5029290000000  0.6084400000000 1.0
C      1  0.5583820000000  0.5949090000000  0.5029030000000 1.0
C      1  0.5509500000000  0.5114320000000  0.4082440000000 1.0
C      1  0.4641010000000  0.5759140000000  0.5853480000000 1.0
C      1  0.5283000000000  0.5306810000000  0.3753120000000 1.0
C      1  0.4854280000000  0.4518450000000  0.4218120000000 1.0
C      1  0.4835720000000  0.4177270000000  0.5677490000000 1.0
C      1  0.5224250000000  0.4940910000000  0.4725820000000 1.0
C      1  0.5368200000000  0.4338300000000  0.4869830000000 1.0
C      1  0.5752290000000  0.4892610000000  0.4309360000000 1.0
C      1  0.4249530000000  0.4776440000000  0.4559440000000 1.0
C      1  0.4567090000000  0.4124050000000  0.4752930000000 1.0
C      1  0.5803200000000  0.4300600000000  0.4840590000000 1.0
C      1  0.4714420000000  0.5416830000000  0.5332330000000 1.0
C      1  0.4601500000000  0.4658720000000  0.5857280000000 1.0
C      1  0.4220320000000  0.5575790000000  0.5567310000000 1.0
C      1  0.5081250000000  0.5429110000000  0.5488070000000 1.0
C      1  0.4825080000000  0.5904000000000  0.5530010000000 1.0
C      1  0.5198610000000  0.4579830000000  0.5669050000000 1.0
C      1  0.4722740000000  0.5019980000000  0.4145750000000 1.0
C      1  0.4796590000000  0.4483100000000  0.5931000000000 1.0
C      1  0.5678170000000  0.5198310000000  0.4438460000000 1.0
C      1  0.5325600000000  0.4511490000000  0.5144260000000 1.0
C      1  0.4282880000000  0.5216210000000  0.4996130000000 1.0
C      1  0.4981070000000  0.5354130000000  0.5168850000000 1.0
C      1  0.4759520000000  0.5215870000000  0.5828250000000 1.0
C      1  0.4464940000000  0.4824300000000  0.4138650000000 1.0
C      1  0.5826680000000  0.4563410000000  0.5279470000000 1.0
C      1  0.4642010000000  0.5472330000000  0.4792170000000 1.0
C      1  0.4573570000000  0.5926760000000  0.4902180000000 1.0
C      1  0.5652530000000  0.4687840000000  0.4111620000000 1.0
C      1  0.4334850000000  0.4308890000000  0.4751100000000 1.0
C      1  0.5322260000000  0.4818810000000  0.5030190000000 1.0
C      1  0.4953570000000  0.4936690000000  0.5408240000000 1.0
C      1  0.4375140000000  0.4508780000000  0.4524150000000 1.0
C      1  0.4709550000000  0.4743800000000  0.4642200000000 1.0
C      1  0.4310640000000  0.4538630000000  0.5445980000000 1.0
C      1  0.4045450000000  0.5386940000000  0.4860620000000 1.0
C      1  0.4287360000000  0.5849290000000  0.4806650000000 1.0
C      1  0.5383430000000  0.5000070000000  0.5874250000000 1.0
C      1  0.4658960000000  0.5650960000000  0.4198110000000 1.0
C      1  0.5564860000000  0.5445740000000  0.4318880000000 1.0
C      1  0.4693480000000  0.4061470000000  0.5005680000000 1.0
C      1  0.4490050000000  0.4981580000000  0.5410360000000 1.0
C      1  0.4305510000000  0.4969820000000  0.5183610000000 1.0
C      1  0.4127830000000  0.5239090000000  0.4397850000000 1.0
C      1  0.5051190000000  0.6169990000000  0.4874690000000 1.0
C      1  0.5953900000000  0.5030290000000  0.4547370000000 1.0
C      1  0.4037680000000  0.4639760000000  0.4997000000000 1.0
C      1  0.5190090000000  0.3962360000000  0.4948580000000 1.0
C      1  0.5439970000000  0.5687600000000  0.5500950000000 1.0
C      1  0.4756110000000  0.4458630000000  0.3692920000000 1.0
C      1  0.4853910000000  0.5198690000000  0.5534780000000 1.0
C      1  0.5308890000000  0.4746620000000  0.6017380000000 1.0
C      1  0.4449210000000  0.5229840000000  0.5981190000000 1.0
C      1  0.4332800000000  0.4984110000000  0.5776220000000 1.0
C      1  0.5219300000000  0.4840350000000  0.5549610000000 1.0
C      1  0.5552980000000  0.5419300000000  0.5594880000000 1.0
C      1  0.6001640000000  0.5129470000000  0.4862910000000 1.0
C      1  0.5414440000000  0.4133680000000  0.5724490000000 1.0
C      1  0.4989750000000  0.5734260000000  0.4221700000000 1.0
C      1  0.4489740000000  0.4480590000000  0.5161680000000 1.0
C      1  0.5148760000000  0.4443800000000  0.4350760000000 1.0
C      1  0.5279150000000  0.6103450000000  0.4652340000000 1.0
C      1  0.5583010000000  0.5132970000000  0.4745980000000 1.0
C      1  0.4981500000000  0.5749240000000  0.5862410000000 1.0
C      1  0.4521330000000  0.4160230000000  0.5204300000000 1.0
C      1  0.5679280000000  0.5497360000000  0.5108930000000 1.0
C      1  0.4406410000000  0.4234600000000  0.5465030000000 1.0
C      1  0.5105770000000  0.4752550000000  0.3961480000000 1.0
C      1  0.4995710000000  0.4746280000000  0.4812630000000 1.0
C      1  0.4050030000000  0.4815050000000  0.4772660000000 1.0
C      1  0.5596210000000  0.4560820000000  0.5684890000000 1.0
C      1  0.5806830000000  0.4745520000000  0.5698900000000 1.0
C      1  0.5464780000000  0.5025730000000  0.5218410000000 1.0
C      1  0.4646550000000  0.5318760000000  0.4189560000000 1.0
C      1  0.5814360000000  0.5337360000000  0.5448520000000 1.0
C      1  0.4024390000000  0.5093100000000  0.5437510000000 1.0
C      1  0.5672970000000  0.5581020000000  0.4718100000000 1.0
C      1  0.4495310000000  0.5622440000000  0.5060620000000 1.0
C      1  0.4151720000000  0.4809810000000  0.5579690000000 1.0
C      1  0.5130420000000  0.5205810000000  0.5973680000000 1.0
C      1  0.5544710000000  0.5247430000000  0.4999130000000 1.0
C      1  0.5157610000000  0.3962760000000  0.4552880000000 1.0
C      1  0.5660370000000  0.4854310000000  0.4754200000000 1.0
C      1  0.4538720000000  0.4719730000000  0.5559370000000 1.0
C      1  0.5386120000000  0.4403510000000  0.5831450000000 1.0
C      1  0.5056560000000  0.4806850000000  0.6203850000000 1.0
C      1  0.4158450000000  0.5651500000000  0.5004430000000 1.0
C      1  0.4658520000000  0.4936200000000  0.4907140000000 1.0
C      1  0.6001890000000  0.4692920000000  0.4547340000000 1.0
C      1  0.5909310000000  0.4527150000000  0.5017450000000 1.0
C      1  0.5569170000000  0.4091570000000  0.4971800000000 1.0
C      1  0.4518250000000  0.5177970000000  0.4806660000000 1.0
C      1  0.5143370000000  0.5482140000000  0.5779970000000 1.0
C      1  0.5428610000000  0.5648090000000  0.4340220000000 1.0
C      1  0.5958850000000  0.4791530000000  0.4865770000000 1.0
C      1  0.4472670000000  0.5805440000000  0.5570340000000 1.0
C      1  0.5549090000000  0.4447040000000  0.5367340000000 1.0
C      1  0.4104950000000  0.5470300000000  0.4564100000000 1.0
C      1  0.4703710000000  0.4766780000000  0.4355850000000 1.0
C      1  0.4410440000000  0.5346490000000  0.5261090000000 1.0
C      1  0.4604730000000  0.5177980000000  0.4491790000000 1.0
C      1  0.3951880000000  0.5078200000000  0.4819880000000 1.0
C      1  0.5139700000000  0.5023880000000  0.4404790000000 1.0
C      1  0.5134150000000  0.5824060000000  0.5574000000000 1.0
C      1  0.5517740000000  0.4144440000000  0.5456970000000 1.0
C      1  0.5478290000000  0.5342130000000  0.3581960000000 1.0
C      1  0.5015930000000  0.5721350000000  0.4759180000000 1.0
C      1  0.5728660000000  0.5851230000000  0.4798120000000 1.0
C      1  0.4044660000000  0.4801170000000  0.5254820000000 1.0
C      1  0.5194990000000  0.5669860000000  0.5279160000000 1.0
C      1  0.4494960000000  0.4647700000000  0.4889950000000 1.0
C      1  0.5583930000000  0.5739730000000  0.5221280000000 1.0
C      1  0.5876200000000  0.5402150000000  0.4719890000000 1.0
C      1  0.5921450000000  0.5264360000000  0.5131210000000 1.0
C      1  0.5889210000000  0.4795620000000  0.5431870000000 1.0
C      1  0.5364640000000  0.5531130000000  0.4717040000000 1.0
C      1  0.4836640000000  0.4674450000000  0.5534990000000 1.0
C      1  0.5372110000000  0.6129690000000  0.4959070000000 1.0
C      1  0.4847650000000  0.5964450000000  0.4861730000000 1.0
C      1  0.5560760000000  0.3975760000000  0.5250180000000 1.0
C      1  0.4980460000000  0.4089060000000  0.5064490000000 1.0
C      1  0.5051310000000  0.4536790000000  0.6038360000000 1.0
C      1  0.5084690000000  0.5270950000000  0.3926920000000 1.0
C      1  0.4984710000000  0.4399600000000  0.5526240000000 1.0
C      1  0.5332670000000  0.4623030000000  0.4144320000000 1.0
C      1  0.4899830000000  0.5585280000000  0.4507970000000 1.0
C      1  0.5168500000000  0.5270470000000  0.4709990000000 1.0
C      1  0.4563380000000  0.4145720000000  0.5683210000000 1.0
C      1  0.5013210000000  0.4237010000000  0.4569830000000 1.0
C      1  0.4900990000000  0.5315340000000  0.4871500000000 1.0
C      1  0.4599390000000  0.4383630000000  0.4367770000000 1.0
C      1  0.4282520000000  0.5694890000000  0.4557810000000 1.0
C      1  0.4572110000000  0.4920640000000  0.6017610000000 1.0
C      1  0.4661340000000  0.5729740000000  0.5326190000000 1.0
C      1  0.4818990000000  0.4520500000000  0.5084710000000 1.0
C      1  0.4444250000000  0.5247050000000  0.5584560000000 1.0
C      1  0.5605650000000  0.4679460000000  0.4507940000000 1.0
C      1  0.5612030000000  0.4164030000000  0.4585190000000 1.0
C      1  0.5050570000000  0.4353390000000  0.5232770000000 1.0
C      1  0.4896220000000  0.5477850000000  0.4022700000000 1.0
C      1  0.5041600000000  0.4420440000000  0.4840080000000 1.0
C      1  0.4324250000000  0.5034420000000  0.4446580000000 1.0
C      1  0.4889470000000  0.4851780000000  0.5119850000000 1.0
C      1  0.5011750000000  0.5017520000000  0.4059700000000 1.0
C      1  0.4567960000000  0.5619610000000  0.4508870000000 1.0
C      1  0.4074840000000  0.5357280000000  0.5477960000000 1.0
C      1  0.5414000000000  0.4434610000000  0.4546600000000 1.0
C      1  0.4148800000000  0.4384640000000  0.4951360000000 1.0
C      1  0.4920230000000  0.5267750000000  0.4475940000000 1.0
C      1  0.5365740000000  0.4941560000000  0.4222520000000 1.0
C      1  0.5258440000000  0.5812800000000  0.4551310000000 1.0
END
