TITL C-2778423-5760-1320 -0.007917573539413 125000 -959.503732029989 0 0 168 (C1) n - 1
REM
REM in /home/nfs/bkarasulu/CARBON/AIRSS/Generating-Clusters/REBO/Only-C1/SD-CG/HFTN-CG
REM
REM
REM
REM
REM
REM ./C.cell (11c1c37f851c82e70ff6c80c92926a4b)
REM
REM compiler GCC version 9.2.1 20190827 (Red Hat 9.2.1-1)
REM options -cpp -mtune=generic -march=x86-64 -g -O0 -fpre-include=/usr/include/finclude/math-vector-fortran.h
REM seed 2022934596 511236746 1338100132 -474647676 681253964 2144718643 -630123179 -835590783 2126600327 67743719 1464505550 663286054 314397965 -1970782138 496945670 -1421678563 -912287049 1218087959 -1437897136 -2032700034 1023417990 1507849529 -645380452 1377128322 632786297 119166575 522591141 1268708250 -1947117160 1112828041 469284241 -1681994494 193132153
REM
CELL 1.54180   50.00000   50.00000   50.00000   90.00000   90.00000   90.00000
LATT -1
SFAC C  
C      1  0.5295700000000  0.5512390000000  0.4143010000000 1.0
C      1  0.5242330000000  0.5026520000000  0.3893570000000 1.0
C      1  0.4107940000000  0.4632130000000  0.5327000000000 1.0
C      1  0.4886110000000  0.4181410000000  0.5798980000000 1.0
C      1  0.4946150000000  0.3884080000000  0.5308630000000 1.0
C      1  0.4479970000000  0.5701280000000  0.5626330000000 1.0
C      1  0.5326140000000  0.5797740000000  0.5670670000000 1.0
C      1  0.5367160000000  0.6030700000000  0.5170280000000 1.0
C      1  0.4576880000000  0.5473390000000  0.4553210000000 1.0
C      1  0.4071170000000  0.5102430000000  0.4963170000000 1.0
C      1  0.5035490000000  0.5945810000000  0.5376160000000 1.0
C      1  0.4770770000000  0.4853480000000  0.4662800000000 1.0
C      1  0.5399460000000  0.5161430000000  0.5844670000000 1.0
C      1  0.4445670000000  0.5270130000000  0.4704170000000 1.0
C      1  0.4403610000000  0.4135900000000  0.5220370000000 1.0
C      1  0.5217660000000  0.4521130000000  0.6031610000000 1.0
C      1  0.5519010000000  0.5059670000000  0.4365350000000 1.0
C      1  0.4524830000000  0.4834040000000  0.4349460000000 1.0
C      1  0.5793250000000  0.4780090000000  0.5502490000000 1.0
C      1  0.5602840000000  0.4904990000000  0.5747980000000 1.0
C      1  0.5515070000000  0.5326840000000  0.4177780000000 1.0
C      1  0.5357060000000  0.4362700000000  0.4262770000000 1.0
C      1  0.5434320000000  0.4652750000000  0.4144600000000 1.0
C      1  0.4555510000000  0.4796340000000  0.5954190000000 1.0
C      1  0.5074090000000  0.6098400000000  0.5121390000000 1.0
C      1  0.4779590000000  0.5059620000000  0.4399530000000 1.0
C      1  0.4754770000000  0.5413310000000  0.4946860000000 1.0
C      1  0.5616720000000  0.5208770000000  0.4633170000000 1.0
C      1  0.4983780000000  0.5112820000000  0.5530830000000 1.0
C      1  0.4379510000000  0.5001200000000  0.5071140000000 1.0
C      1  0.5378120000000  0.4795150000000  0.3881000000000 1.0
C      1  0.5097790000000  0.4278180000000  0.4199450000000 1.0
C      1  0.5575650000000  0.4678900000000  0.4795170000000 1.0
C      1  0.4154010000000  0.4906110000000  0.4219100000000 1.0
C      1  0.5899570000000  0.5029090000000  0.4691060000000 1.0
C      1  0.4526840000000  0.5122180000000  0.5950360000000 1.0
C      1  0.5141840000000  0.5233070000000  0.5762550000000 1.0
C      1  0.4943360000000  0.5163450000000  0.3905670000000 1.0
C      1  0.4891980000000  0.5404620000000  0.6131750000000 1.0
C      1  0.5782530000000  0.4530120000000  0.4487060000000 1.0
C      1  0.5739160000000  0.5729630000000  0.4769760000000 1.0
C      1  0.5650400000000  0.4300070000000  0.5615150000000 1.0
C      1  0.4722670000000  0.4013730000000  0.4660530000000 1.0
C      1  0.5922710000000  0.4993950000000  0.5031610000000 1.0
C      1  0.4686800000000  0.5683360000000  0.5830210000000 1.0
C      1  0.5435490000000  0.4361650000000  0.5008580000000 1.0
C      1  0.4719730000000  0.4952670000000  0.4022030000000 1.0
C      1  0.5644370000000  0.5515970000000  0.4538000000000 1.0
C      1  0.5559680000000  0.4297610000000  0.4515910000000 1.0
C      1  0.5442370000000  0.4333470000000  0.5853770000000 1.0
C      1  0.4321660000000  0.5737670000000  0.4395420000000 1.0
C      1  0.5012890000000  0.5459180000000  0.5883610000000 1.0
C      1  0.5060980000000  0.5226960000000  0.4499320000000 1.0
C      1  0.5025880000000  0.5510670000000  0.4080530000000 1.0
C      1  0.4496860000000  0.5765550000000  0.4638550000000 1.0
C      1  0.4080100000000  0.4543690000000  0.5059000000000 1.0
C      1  0.5203610000000  0.4717860000000  0.4360890000000 1.0
C      1  0.5221950000000  0.4804710000000  0.5834430000000 1.0
C      1  0.4363870000000  0.4739830000000  0.5710680000000 1.0
C      1  0.4281360000000  0.5564610000000  0.4188650000000 1.0
C      1  0.4794770000000  0.5696530000000  0.5087280000000 1.0
C      1  0.5816520000000  0.4424490000000  0.5105910000000 1.0
C      1  0.4977890000000  0.4422140000000  0.5223350000000 1.0
C      1  0.4233050000000  0.4268120000000  0.4967730000000 1.0
C      1  0.5949210000000  0.5252120000000  0.5253330000000 1.0
C      1  0.5762240000000  0.5483260000000  0.4235640000000 1.0
C      1  0.5323360000000  0.4589040000000  0.4656650000000 1.0
C      1  0.5211060000000  0.5793150000000  0.4733210000000 1.0
C      1  0.4860760000000  0.5161480000000  0.4777430000000 1.0
C      1  0.5946980000000  0.4857680000000  0.4459270000000 1.0
C      1  0.5146870000000  0.4251860000000  0.5748390000000 1.0
C      1  0.5624070000000  0.5327500000000  0.5303790000000 1.0
C      1  0.4011240000000  0.5274420000000  0.4754030000000 1.0
C      1  0.4763630000000  0.4298060000000  0.4210180000000 1.0
C      1  0.4942350000000  0.4704610000000  0.5986210000000 1.0
C      1  0.5510720000000  0.4659110000000  0.5925310000000 1.0
C      1  0.4276660000000  0.4377210000000  0.4227110000000 1.0
C      1  0.4486120000000  0.4042880000000  0.4901580000000 1.0
C      1  0.4155850000000  0.4940050000000  0.5316380000000 1.0
C      1  0.4600560000000  0.4078480000000  0.4375780000000 1.0
C      1  0.4847540000000  0.4758300000000  0.5494790000000 1.0
C      1  0.5156630000000  0.4975990000000  0.5121950000000 1.0
C      1  0.5760140000000  0.4456000000000  0.5419650000000 1.0
C      1  0.5761040000000  0.4759340000000  0.5164040000000 1.0
C      1  0.5467730000000  0.5808300000000  0.4959370000000 1.0
C      1  0.5154560000000  0.4070110000000  0.5293050000000 1.0
C      1  0.5785400000000  0.5186090000000  0.5746940000000 1.0
C      1  0.4433740000000  0.4737140000000  0.4912640000000 1.0
C      1  0.4691870000000  0.5293250000000  0.4080460000000 1.0
C      1  0.4729760000000  0.4193520000000  0.5179720000000 1.0
C      1  0.5334330000000  0.4137230000000  0.4692530000000 1.0
C      1  0.4910020000000  0.4788320000000  0.4240970000000 1.0
C      1  0.4753430000000  0.4627230000000  0.5741020000000 1.0
C      1  0.6081840000000  0.5490650000000  0.5175980000000 1.0
C      1  0.4934950000000  0.4756230000000  0.5172510000000 1.0
C      1  0.5979110000000  0.5607480000000  0.4920230000000 1.0
C      1  0.4967490000000  0.5693910000000  0.4506780000000 1.0
C      1  0.5844720000000  0.4645480000000  0.4780410000000 1.0
C      1  0.4751070000000  0.5849370000000  0.5474250000000 1.0
C      1  0.5546930000000  0.5618480000000  0.5778740000000 1.0
C      1  0.5016330000000  0.4485500000000  0.4890920000000 1.0
C      1  0.4394040000000  0.5029900000000  0.4069080000000 1.0
C      1  0.4992400000000  0.5736310000000  0.5708710000000 1.0
C      1  0.4783570000000  0.4910480000000  0.6172010000000 1.0
C      1  0.4428000000000  0.4433720000000  0.4784200000000 1.0
C      1  0.4870330000000  0.5990870000000  0.4953400000000 1.0
C      1  0.4035270000000  0.4769720000000  0.4901930000000 1.0
C      1  0.5671490000000  0.4293480000000  0.4838630000000 1.0
C      1  0.4791650000000  0.5481150000000  0.4320610000000 1.0
C      1  0.5210020000000  0.4870600000000  0.5539960000000 1.0
C      1  0.4962020000000  0.5553810000000  0.5294640000000 1.0
C      1  0.4677390000000  0.5264040000000  0.5493610000000 1.0
C      1  0.5269750000000  0.4975880000000  0.4581320000000 1.0
C      1  0.5505340000000  0.5884350000000  0.4586920000000 1.0
C      1  0.4283900000000  0.5780930000000  0.5218190000000 1.0
C      1  0.5267940000000  0.5359200000000  0.5129640000000 1.0
C      1  0.6084720000000  0.4859510000000  0.5568320000000 1.0
C      1  0.4820720000000  0.5165310000000  0.6242400000000 1.0
C      1  0.5523320000000  0.5387360000000  0.5972040000000 1.0
C      1  0.4654350000000  0.4968210000000  0.5359580000000 1.0
C      1  0.4149640000000  0.4896020000000  0.4472130000000 1.0
C      1  0.5690070000000  0.5408350000000  0.5610100000000 1.0
C      1  0.5357120000000  0.5119070000000  0.5359560000000 1.0
C      1  0.4481910000000  0.4339590000000  0.5457270000000 1.0
C      1  0.5437200000000  0.6021060000000  0.5439370000000 1.0
C      1  0.4562300000000  0.5900700000000  0.5192010000000 1.0
C      1  0.4595640000000  0.4596210000000  0.4578070000000 1.0
C      1  0.5927300000000  0.5302860000000  0.4860730000000 1.0
C      1  0.4503250000000  0.4518950000000  0.5166770000000 1.0
C      1  0.5308760000000  0.5460290000000  0.4537370000000 1.0
C      1  0.4386120000000  0.4954930000000  0.5515760000000 1.0
C      1  0.5169040000000  0.4331120000000  0.5461780000000 1.0
C      1  0.4715970000000  0.4402870000000  0.4927200000000 1.0
C      1  0.5676300000000  0.4784280000000  0.4289510000000 1.0
C      1  0.4994580000000  0.5247430000000  0.5253330000000 1.0
C      1  0.5243660000000  0.4112770000000  0.5013380000000 1.0
C      1  0.4853330000000  0.4529790000000  0.4402910000000 1.0
C      1  0.4512780000000  0.4529990000000  0.4195000000000 1.0
C      1  0.4550710000000  0.5292450000000  0.5769950000000 1.0
C      1  0.5353360000000  0.5051770000000  0.4889600000000 1.0
C      1  0.4254360000000  0.5648910000000  0.5467330000000 1.0
C      1  0.5453250000000  0.5608220000000  0.5202500000000 1.0
C      1  0.5612220000000  0.5233310000000  0.4972880000000 1.0
C      1  0.5047380000000  0.4767070000000  0.4746680000000 1.0
C      1  0.4206670000000  0.5621110000000  0.4996860000000 1.0
C      1  0.4377860000000  0.5347120000000  0.4065410000000 1.0
C      1  0.4689880000000  0.4338790000000  0.5685580000000 1.0
C      1  0.5287480000000  0.4613820000000  0.5386510000000 1.0
C      1  0.5035360000000  0.4096740000000  0.4549700000000 1.0
C      1  0.4389660000000  0.4963920000000  0.4662730000000 1.0
C      1  0.4356940000000  0.5382220000000  0.4957880000000 1.0
C      1  0.4579500000000  0.5931750000000  0.4849230000000 1.0
C      1  0.5011700000000  0.3955580000000  0.4841370000000 1.0
C      1  0.5062760000000  0.4406060000000  0.4576420000000 1.0
C      1  0.5251470000000  0.5352960000000  0.4827040000000 1.0
C      1  0.5063680000000  0.5936490000000  0.4328270000000 1.0
C      1  0.5223170000000  0.5688930000000  0.5386210000000 1.0
C      1  0.5332710000000  0.5747610000000  0.4355220000000 1.0
C      1  0.4760130000000  0.3892260000000  0.5038710000000 1.0
C      1  0.4328530000000  0.4122060000000  0.4331980000000 1.0
C      1  0.4720620000000  0.4985480000000  0.5034990000000 1.0
C      1  0.5000480000000  0.5536190000000  0.4785340000000 1.0
C      1  0.4255780000000  0.4527900000000  0.5547110000000 1.0
C      1  0.5462320000000  0.4594890000000  0.5167640000000 1.0
C      1  0.4014540000000  0.5221530000000  0.5277510000000 1.0
C      1  0.4557020000000  0.5316530000000  0.5192650000000 1.0
C      1  0.4075120000000  0.5427470000000  0.5442600000000 1.0
C      1  0.5144830000000  0.5144400000000  0.4179110000000 1.0
END
