TITL C-2778429-3646-696 0.00208978986866887 125000 -327.823635056486 0 0 58 (C1) n - 1
REM
REM in /home/nfs/bkarasulu/CARBON/AIRSS/Generating-Clusters/REBO/Only-C1/SD-CG/HFTN-CG
REM
REM
REM
REM
REM
REM ./C.cell (11c1c37f851c82e70ff6c80c92926a4b)
REM
REM compiler GCC version 9.2.1 20190827 (Red Hat 9.2.1-1)
REM options -cpp -mtune=generic -march=x86-64 -g -O0 -fpre-include=/usr/include/finclude/math-vector-fortran.h
REM seed -1020868826 -649971015 -1089251393 579307161 1139948465 -963912305 502324784 -430626759 143843768 -500180381 -1063823827 -1633997599 1615174690 -1438806882 -1531113242 1795699536 1664465331 -2015769788 109824955 736615655 1080827999 -2122675989 -528684745 -640333715 -1414452321 1807111664 1219983660 -350009346 -790024348 -78690316 125090348 2006545207 -1349477618
REM
CELL 1.54180   50.00000   50.00000   50.00000   90.00000   90.00000   90.00000
LATT -1
SFAC C  
C      1  0.4725200000000  0.5543670000000  0.5667020000000 1.0
C      1  0.5275920000000  0.5149420000000  0.5099990000000 1.0
C      1  0.5366430000000  0.4861290000000  0.5017550000000 1.0
C      1  0.5196150000000  0.4288310000000  0.4854750000000 1.0
C      1  0.5550120000000  0.5422910000000  0.5001670000000 1.0
C      1  0.4942140000000  0.5626940000000  0.4978430000000 1.0
C      1  0.5106770000000  0.4741460000000  0.4874500000000 1.0
C      1  0.4900560000000  0.4532280000000  0.4985280000000 1.0
C      1  0.5481940000000  0.5300170000000  0.5307010000000 1.0
C      1  0.5318800000000  0.4675950000000  0.5591140000000 1.0
C      1  0.5234440000000  0.5276430000000  0.4807430000000 1.0
C      1  0.4331220000000  0.4967320000000  0.5614610000000 1.0
C      1  0.5045430000000  0.5677020000000  0.4656940000000 1.0
C      1  0.4599370000000  0.4863370000000  0.4289480000000 1.0
C      1  0.5265910000000  0.4677590000000  0.4579760000000 1.0
C      1  0.5289950000000  0.5151230000000  0.4520950000000 1.0
C      1  0.4890690000000  0.4762670000000  0.5236230000000 1.0
C      1  0.5203360000000  0.5661270000000  0.5160270000000 1.0
C      1  0.4484840000000  0.5328890000000  0.5166260000000 1.0
C      1  0.4400280000000  0.4779170000000  0.5125610000000 1.0
C      1  0.5621080000000  0.4999640000000  0.5292240000000 1.0
C      1  0.4369020000000  0.5112590000000  0.5056580000000 1.0
C      1  0.4616270000000  0.4450530000000  0.4808240000000 1.0
C      1  0.4574860000000  0.5087960000000  0.4617600000000 1.0
C      1  0.5039570000000  0.5023670000000  0.5297690000000 1.0
C      1  0.5298170000000  0.5161280000000  0.5767330000000 1.0
C      1  0.4525500000000  0.4675300000000  0.4492140000000 1.0
C      1  0.5246870000000  0.5603340000000  0.5417850000000 1.0
C      1  0.5323770000000  0.4942800000000  0.5433580000000 1.0
C      1  0.4653250000000  0.5357310000000  0.4672130000000 1.0
C      1  0.4697560000000  0.4323360000000  0.5174500000000 1.0
C      1  0.4677690000000  0.5588160000000  0.5138930000000 1.0
C      1  0.4826760000000  0.4554430000000  0.4593910000000 1.0
C      1  0.4841770000000  0.4885770000000  0.4606080000000 1.0
C      1  0.4503750000000  0.4955750000000  0.5397830000000 1.0
C      1  0.5432040000000  0.4906070000000  0.4539210000000 1.0
C      1  0.5341430000000  0.5368470000000  0.5581130000000 1.0
C      1  0.5276790000000  0.4886930000000  0.5823020000000 1.0
C      1  0.5016820000000  0.5509540000000  0.4360680000000 1.0
C      1  0.5619690000000  0.4882580000000  0.4787250000000 1.0
C      1  0.4377350000000  0.4986280000000  0.4786340000000 1.0
C      1  0.5313750000000  0.5587370000000  0.4845740000000 1.0
C      1  0.5363750000000  0.4459750000000  0.5377470000000 1.0
C      1  0.4986900000000  0.5045820000000  0.4846620000000 1.0
C      1  0.5100280000000  0.4430960000000  0.4624970000000 1.0
C      1  0.5660840000000  0.5129700000000  0.4994520000000 1.0
C      1  0.5623000000000  0.4572840000000  0.4928090000000 1.0
C      1  0.4744130000000  0.5114800000000  0.5382440000000 1.0
C      1  0.5080960000000  0.5230090000000  0.4334650000000 1.0
C      1  0.5556630000000  0.4685680000000  0.5238500000000 1.0
C      1  0.4530610000000  0.4169920000000  0.4980120000000 1.0
C      1  0.4688190000000  0.5423250000000  0.5425920000000 1.0
C      1  0.4382800000000  0.4667860000000  0.4803760000000 1.0
C      1  0.4631020000000  0.4604220000000  0.5267330000000 1.0
C      1  0.5387420000000  0.4380700000000  0.5049340000000 1.0
C      1  0.4861580000000  0.5040570000000  0.4318400000000 1.0
C      1  0.4751620000000  0.5577110000000  0.4514670000000 1.0
C      1  0.4847010000000  0.5330250000000  0.4888310000000 1.0
END
