TITL C-2778430-5657-1023 0.127601816882402 125000 -545.86828000313 0 0 93 (C1) n - 1
REM
REM in /home/nfs/bkarasulu/CARBON/AIRSS/Generating-Clusters/REBO/Only-C1/SD-CG/HFTN-CG
REM
REM
REM
REM
REM
REM ./C.cell (11c1c37f851c82e70ff6c80c92926a4b)
REM
REM compiler GCC version 9.2.1 20190827 (Red Hat 9.2.1-1)
REM options -cpp -mtune=generic -march=x86-64 -g -O0 -fpre-include=/usr/include/finclude/math-vector-fortran.h
REM seed -1703111014 -1282933084 -1244823219 -1563802746 -387699939 439312709 -1820033487 1831552639 -1746290034 1573317146 -2099990550 -939854249 -1986796816 -2006222135 -1606250809 -416657407 -2098834019 1782753697 -1833964859 951321355 -1294768440 -1013264683 522407768 -1910358614 561380519 341843502 329701809 -86950195 -1097422061 148485393 -22737077 -1934247389 1265247204
REM
CELL 1.54180   50.00000   50.00000   50.00000   90.00000   90.00000   90.00000
LATT -1
SFAC C  
C      1  0.4470290000000  0.5849320000000  0.5074660000000 1.0
C      1  0.5135880000000  0.5533620000000  0.4242730000000 1.0
C      1  0.5029840000000  0.4909460000000  0.5421460000000 1.0
C      1  0.5384060000000  0.4537380000000  0.4274560000000 1.0
C      1  0.4756530000000  0.5830230000000  0.5151080000000 1.0
C      1  0.5471750000000  0.5024350000000  0.4270400000000 1.0
C      1  0.4482180000000  0.5285980000000  0.4075480000000 1.0
C      1  0.4529480000000  0.4505880000000  0.4550530000000 1.0
C      1  0.4013720000000  0.5004960000000  0.4851490000000 1.0
C      1  0.4582180000000  0.5220920000000  0.5898520000000 1.0
C      1  0.5563200000000  0.4492270000000  0.4499700000000 1.0
C      1  0.5462220000000  0.5678700000000  0.5446630000000 1.0
C      1  0.5460480000000  0.4957610000000  0.4606420000000 1.0
C      1  0.4894740000000  0.4189090000000  0.5419660000000 1.0
C      1  0.4215690000000  0.4804120000000  0.4890360000000 1.0
C      1  0.4392960000000  0.4288840000000  0.5467570000000 1.0
C      1  0.5811550000000  0.4684080000000  0.4930520000000 1.0
C      1  0.4725150000000  0.5099050000000  0.4659660000000 1.0
C      1  0.5088550000000  0.5224910000000  0.6135380000000 1.0
C      1  0.5382720000000  0.5187380000000  0.5074950000000 1.0
C      1  0.4381300000000  0.5654980000000  0.4880560000000 1.0
C      1  0.4453290000000  0.4471900000000  0.5003290000000 1.0
C      1  0.5045450000000  0.5830740000000  0.5019120000000 1.0
C      1  0.5080530000000  0.4473410000000  0.4317500000000 1.0
C      1  0.5443860000000  0.4778060000000  0.4127160000000 1.0
C      1  0.4718630000000  0.4995170000000  0.4952780000000 1.0
C      1  0.5519140000000  0.5291790000000  0.5432200000000 1.0
C      1  0.5237770000000  0.4693100000000  0.5040050000000 1.0
C      1  0.4890420000000  0.4537820000000  0.5158290000000 1.0
C      1  0.5532440000000  0.4941380000000  0.5624530000000 1.0
C      1  0.5695640000000  0.5146500000000  0.5107440000000 1.0
C      1  0.5798300000000  0.5165440000000  0.4651980000000 1.0
C      1  0.4968230000000  0.5623660000000  0.4442590000000 1.0
C      1  0.4689950000000  0.5477650000000  0.4510560000000 1.0
C      1  0.4763760000000  0.4157870000000  0.4871140000000 1.0
C      1  0.5053210000000  0.5553200000000  0.5215200000000 1.0
C      1  0.5290260000000  0.4983840000000  0.4879980000000 1.0
C      1  0.5355610000000  0.5714240000000  0.4940150000000 1.0
C      1  0.5216860000000  0.5455880000000  0.5444210000000 1.0
C      1  0.4425700000000  0.5313690000000  0.3821080000000 1.0
C      1  0.4948380000000  0.4653090000000  0.4645910000000 1.0
C      1  0.4378230000000  0.4756580000000  0.4630870000000 1.0
C      1  0.4920110000000  0.4773610000000  0.4328850000000 1.0
C      1  0.5203350000000  0.5148880000000  0.4527470000000 1.0
C      1  0.4630940000000  0.4166850000000  0.5531370000000 1.0
C      1  0.5114270000000  0.5326690000000  0.6375510000000 1.0
C      1  0.4955210000000  0.5024750000000  0.4499360000000 1.0
C      1  0.4552170000000  0.4328820000000  0.4778900000000 1.0
C      1  0.5664630000000  0.4703720000000  0.5481930000000 1.0
C      1  0.5228100000000  0.5123360000000  0.5372070000000 1.0
C      1  0.5103450000000  0.5721580000000  0.4700820000000 1.0
C      1  0.5351190000000  0.4356040000000  0.5641040000000 1.0
C      1  0.5819770000000  0.5011410000000  0.4888950000000 1.0
C      1  0.4472310000000  0.5680180000000  0.4614200000000 1.0
C      1  0.4885790000000  0.4241000000000  0.5117170000000 1.0
C      1  0.4989510000000  0.4840160000000  0.4876070000000 1.0
C      1  0.5051970000000  0.4365160000000  0.4632760000000 1.0
C      1  0.5368940000000  0.5431600000000  0.4756640000000 1.0
C      1  0.4737030000000  0.4494870000000  0.4350830000000 1.0
C      1  0.5086790000000  0.4385840000000  0.5544660000000 1.0
C      1  0.4912910000000  0.5617850000000  0.5637180000000 1.0
C      1  0.5831740000000  0.4797760000000  0.5240150000000 1.0
C      1  0.5289970000000  0.4417270000000  0.5060310000000 1.0
C      1  0.4274080000000  0.4769710000000  0.5189700000000 1.0
C      1  0.5485420000000  0.5503830000000  0.5155700000000 1.0
C      1  0.5060970000000  0.5115800000000  0.5877930000000 1.0
C      1  0.4533430000000  0.5219670000000  0.5111310000000 1.0
C      1  0.4765610000000  0.5370790000000  0.4823880000000 1.0
C      1  0.5538870000000  0.4299340000000  0.4715330000000 1.0
C      1  0.5658230000000  0.4732040000000  0.4635550000000 1.0
C      1  0.5297920000000  0.5017590000000  0.5751330000000 1.0
C      1  0.5546730000000  0.4341740000000  0.5201840000000 1.0
C      1  0.5040880000000  0.4627750000000  0.5381440000000 1.0
C      1  0.5295140000000  0.5301990000000  0.4276150000000 1.0
C      1  0.4771330000000  0.4996160000000  0.5510600000000 1.0
C      1  0.4793220000000  0.5114810000000  0.5763900000000 1.0
C      1  0.4296560000000  0.4466880000000  0.5271660000000 1.0
C      1  0.4464180000000  0.5012020000000  0.4511400000000 1.0
C      1  0.4069530000000  0.5266690000000  0.4904720000000 1.0
C      1  0.4538780000000  0.4943820000000  0.5301780000000 1.0
C      1  0.5563930000000  0.4438160000000  0.5470190000000 1.0
C      1  0.4309080000000  0.5859340000000  0.5314360000000 1.0
C      1  0.5253730000000  0.4270200000000  0.4803660000000 1.0
C      1  0.4756400000000  0.5432490000000  0.5160780000000 1.0
C      1  0.4728910000000  0.5639130000000  0.5430970000000 1.0
C      1  0.4310150000000  0.5389620000000  0.4976950000000 1.0
C      1  0.5582910000000  0.5337020000000  0.4631200000000 1.0
C      1  0.5699760000000  0.4384270000000  0.4948350000000 1.0
C      1  0.4435350000000  0.5721140000000  0.5519140000000 1.0
C      1  0.4541720000000  0.5256770000000  0.4343670000000 1.0
C      1  0.5061220000000  0.5449580000000  0.4903010000000 1.0
C      1  0.4651920000000  0.4703100000000  0.5082650000000 1.0
C      1  0.5763780000000  0.5083030000000  0.5416290000000 1.0
END
