TITL C-2778437-8639-580 -1.88499850945331e-06 125000 -153.846263255152 0 0 28 (C1) n - 1
REM
REM in /home/nfs/bkarasulu/CARBON/AIRSS/Generating-Clusters/REBO/Only-C1/SD-CG/HFTN-CG
REM
REM
REM
REM
REM
REM ./C.cell (11c1c37f851c82e70ff6c80c92926a4b)
REM
REM compiler GCC version 9.2.1 20190827 (Red Hat 9.2.1-1)
REM options -cpp -mtune=generic -march=x86-64 -g -O0 -fpre-include=/usr/include/finclude/math-vector-fortran.h
REM seed -1774944676 1921162041 2079883933 1513574400 259274303 -1096281150 878538600 -812962228 -52498705 -525673999 -1326982269 492841125 512311320 1763305132 -331018372 -708214540 -796534580 -885551688 -1859093982 -549833722 -1043685857 504185817 -1516729131 -1102081131 -1007756974 2001612559 1855392138 -897752352 -1752816997 -1401265072 126363630 1848332170 -2013327574
REM
CELL 1.54180   50.00000   50.00000   50.00000   90.00000   90.00000   90.00000
LATT -1
SFAC C  
C      1  0.5826420000000  0.5359740000000  0.4704890000000 1.0
C      1  0.4854050000000  0.4638600000000  0.5359390000000 1.0
C      1  0.4679930000000  0.5892560000000  0.5211200000000 1.0
C      1  0.4443330000000  0.5047500000000  0.4779360000000 1.0
C      1  0.5266220000000  0.4837430000000  0.4755420000000 1.0
C      1  0.4221150000000  0.4875390000000  0.4785570000000 1.0
C      1  0.4721620000000  0.5123650000000  0.5382180000000 1.0
C      1  0.4012600000000  0.4901730000000  0.4613030000000 1.0
C      1  0.5371420000000  0.5326620000000  0.4932100000000 1.0
C      1  0.4367420000000  0.4555030000000  0.5179300000000 1.0
C      1  0.5208780000000  0.5072160000000  0.4980370000000 1.0
C      1  0.5331950000000  0.5157190000000  0.5445450000000 1.0
C      1  0.4683780000000  0.5418850000000  0.4977160000000 1.0
C      1  0.5203790000000  0.4977300000000  0.5269100000000 1.0
C      1  0.4924880000000  0.5029180000000  0.4821320000000 1.0
C      1  0.4685820000000  0.5168190000000  0.4853320000000 1.0
C      1  0.5521260000000  0.4789380000000  0.4658320000000 1.0
C      1  0.4903870000000  0.4920030000000  0.5348500000000 1.0
C      1  0.5588240000000  0.4629170000000  0.5256020000000 1.0
C      1  0.5320840000000  0.4685060000000  0.5286880000000 1.0
C      1  0.5599740000000  0.5430790000000  0.4837550000000 1.0
C      1  0.4681840000000  0.5657600000000  0.5095120000000 1.0
C      1  0.4984750000000  0.4785450000000  0.4638930000000 1.0
C      1  0.5765140000000  0.4883780000000  0.4588930000000 1.0
C      1  0.5901910000000  0.5119300000000  0.4598920000000 1.0
C      1  0.5105460000000  0.4503500000000  0.5338200000000 1.0
C      1  0.4595420000000  0.4540900000000  0.5321580000000 1.0
C      1  0.4228380000000  0.4673920000000  0.4981930000000 1.0
END
