TITL C-2778426-5645-185 -0.00120747926992729 125000 -785.508166695739 0 0 136 (C1) n - 1
REM
REM in /home/nfs/bkarasulu/CARBON/AIRSS/Generating-Clusters/REBO/Only-C1/SD-CG/HFTN-CG
REM
REM
REM
REM
REM
REM ./C.cell (11c1c37f851c82e70ff6c80c92926a4b)
REM
REM compiler GCC version 9.2.1 20190827 (Red Hat 9.2.1-1)
REM options -cpp -mtune=generic -march=x86-64 -g -O0 -fpre-include=/usr/include/finclude/math-vector-fortran.h
REM seed -762832708 -1973636446 -771337410 277378939 -426858850 -809139035 1968546919 486971331 208095236 1869618996 1848774642 1672835125 992810857 54426287 789827678 885398897 -84417693 631123272 156993350 1111067297 388858062 1548524222 -450034902 -1529850179 1221714751 -1990787179 763607196 620776728 540092085 -627892547 -1133883120 817385248 159191517
REM
CELL 1.54180   50.00000   50.00000   50.00000   90.00000   90.00000   90.00000
LATT -1
SFAC C  
C      1  0.5075700000000  0.4411530000000  0.5847010000000 1.0
C      1  0.5260710000000  0.5956010000000  0.4878380000000 1.0
C      1  0.5439020000000  0.4639720000000  0.4172180000000 1.0
C      1  0.5030300000000  0.5075900000000  0.4110840000000 1.0
C      1  0.4047300000000  0.4419410000000  0.5125470000000 1.0
C      1  0.4988530000000  0.5963700000000  0.4744860000000 1.0
C      1  0.4616410000000  0.5207760000000  0.5852210000000 1.0
C      1  0.5647420000000  0.4298450000000  0.4736570000000 1.0
C      1  0.4064720000000  0.5244470000000  0.5003260000000 1.0
C      1  0.4854400000000  0.5152800000000  0.5479890000000 1.0
C      1  0.4435270000000  0.4819550000000  0.4453130000000 1.0
C      1  0.4826260000000  0.4812030000000  0.5116050000000 1.0
C      1  0.5882740000000  0.4651570000000  0.5403570000000 1.0
C      1  0.5826670000000  0.4484090000000  0.4511700000000 1.0
C      1  0.5766650000000  0.5056430000000  0.5098300000000 1.0
C      1  0.4918650000000  0.5643660000000  0.5408310000000 1.0
C      1  0.4974700000000  0.5343310000000  0.5255830000000 1.0
C      1  0.5684460000000  0.5380250000000  0.5657990000000 1.0
C      1  0.3989680000000  0.5140180000000  0.5317580000000 1.0
C      1  0.4689960000000  0.4235870000000  0.5613940000000 1.0
C      1  0.5010350000000  0.4831340000000  0.4422860000000 1.0
C      1  0.5247120000000  0.5469840000000  0.4493660000000 1.0
C      1  0.5521030000000  0.5201810000000  0.5844580000000 1.0
C      1  0.4930050000000  0.4306440000000  0.5001100000000 1.0
C      1  0.5569840000000  0.4723860000000  0.5454360000000 1.0
C      1  0.5682860000000  0.5423960000000  0.4132040000000 1.0
C      1  0.5267810000000  0.4786670000000  0.5025630000000 1.0
C      1  0.4843470000000  0.4786730000000  0.4118760000000 1.0
C      1  0.5976780000000  0.4882400000000  0.4586350000000 1.0
C      1  0.4777730000000  0.6026240000000  0.5140470000000 1.0
C      1  0.5366560000000  0.5277820000000  0.5285050000000 1.0
C      1  0.5787420000000  0.4163790000000  0.4943490000000 1.0
C      1  0.5469860000000  0.4819650000000  0.4682460000000 1.0
C      1  0.5803050000000  0.4953290000000  0.4300850000000 1.0
C      1  0.4589210000000  0.4996270000000  0.4134530000000 1.0
C      1  0.4373020000000  0.4793630000000  0.5668980000000 1.0
C      1  0.5067610000000  0.5032610000000  0.5164610000000 1.0
C      1  0.5911300000000  0.5263010000000  0.5539430000000 1.0
C      1  0.4744400000000  0.4319970000000  0.5288880000000 1.0
C      1  0.4970470000000  0.4523550000000  0.4389150000000 1.0
C      1  0.5127680000000  0.4467790000000  0.4665450000000 1.0
C      1  0.4113040000000  0.4657750000000  0.5242570000000 1.0
C      1  0.4917540000000  0.4753330000000  0.5684570000000 1.0
C      1  0.5140930000000  0.4175080000000  0.4472110000000 1.0
C      1  0.4585780000000  0.5268250000000  0.5208710000000 1.0
C      1  0.4720360000000  0.5489430000000  0.4718990000000 1.0
C      1  0.5371460000000  0.4569350000000  0.5630980000000 1.0
C      1  0.4035670000000  0.4912370000000  0.5097460000000 1.0
C      1  0.4941260000000  0.5537340000000  0.4461600000000 1.0
C      1  0.5966270000000  0.5092820000000  0.5333080000000 1.0
C      1  0.5950830000000  0.4629680000000  0.4793530000000 1.0
C      1  0.5258740000000  0.4862020000000  0.4110940000000 1.0
C      1  0.5484330000000  0.5781630000000  0.5299900000000 1.0
C      1  0.4988400000000  0.5170700000000  0.5710530000000 1.0
C      1  0.5733040000000  0.5327130000000  0.4969210000000 1.0
C      1  0.4600920000000  0.4686910000000  0.4928300000000 1.0
C      1  0.4996690000000  0.5910470000000  0.5288270000000 1.0
C      1  0.4645420000000  0.4645480000000  0.5321540000000 1.0
C      1  0.5206150000000  0.5305830000000  0.5858770000000 1.0
C      1  0.5195740000000  0.4472460000000  0.5134880000000 1.0
C      1  0.4419310000000  0.5660930000000  0.5468500000000 1.0
C      1  0.5580020000000  0.5176800000000  0.4235870000000 1.0
C      1  0.4268610000000  0.5441930000000  0.4508200000000 1.0
C      1  0.5478630000000  0.4961810000000  0.5227420000000 1.0
C      1  0.5563070000000  0.5508510000000  0.5131520000000 1.0
C      1  0.4614350000000  0.4683020000000  0.5824290000000 1.0
C      1  0.4824260000000  0.4212030000000  0.4359410000000 1.0
C      1  0.5685030000000  0.4263610000000  0.5206920000000 1.0
C      1  0.5231310000000  0.5443590000000  0.5551290000000 1.0
C      1  0.5688950000000  0.5044720000000  0.4596700000000 1.0
C      1  0.5248650000000  0.5327950000000  0.4967510000000 1.0
C      1  0.4298490000000  0.4590450000000  0.4866130000000 1.0
C      1  0.4742310000000  0.5454230000000  0.5845500000000 1.0
C      1  0.4271620000000  0.5259580000000  0.4779430000000 1.0
C      1  0.4733290000000  0.4500360000000  0.4709630000000 1.0
C      1  0.4527230000000  0.4526190000000  0.4445570000000 1.0
C      1  0.4688410000000  0.6078200000000  0.4826190000000 1.0
C      1  0.5534760000000  0.5538590000000  0.4556860000000 1.0
C      1  0.4488130000000  0.4923950000000  0.4759840000000 1.0
C      1  0.5091700000000  0.4595030000000  0.5437540000000 1.0
C      1  0.4302190000000  0.5720410000000  0.4948090000000 1.0
C      1  0.4919430000000  0.5320280000000  0.4200650000000 1.0
C      1  0.5327750000000  0.4400360000000  0.4328820000000 1.0
C      1  0.5048980000000  0.4177590000000  0.5359980000000 1.0
C      1  0.4176180000000  0.5541260000000  0.5399600000000 1.0
C      1  0.5503080000000  0.4541940000000  0.4553700000000 1.0
C      1  0.4763840000000  0.4945740000000  0.5946970000000 1.0
C      1  0.4777140000000  0.5097470000000  0.4743130000000 1.0
C      1  0.4814110000000  0.4194770000000  0.4699040000000 1.0
C      1  0.4992010000000  0.4674070000000  0.4856650000000 1.0
C      1  0.5673580000000  0.5322340000000  0.4697280000000 1.0
C      1  0.5322840000000  0.4955290000000  0.5718650000000 1.0
C      1  0.5046450000000  0.5578130000000  0.5037340000000 1.0
C      1  0.4954170000000  0.5568860000000  0.5710540000000 1.0
C      1  0.4444220000000  0.5237970000000  0.4105440000000 1.0
C      1  0.5353820000000  0.4330030000000  0.4855750000000 1.0
C      1  0.5265970000000  0.5936990000000  0.5188180000000 1.0
C      1  0.4558660000000  0.5287350000000  0.4900290000000 1.0
C      1  0.4784770000000  0.4401660000000  0.5813480000000 1.0
C      1  0.4640590000000  0.5435320000000  0.4190490000000 1.0
C      1  0.4545470000000  0.5580930000000  0.4447840000000 1.0
C      1  0.4146920000000  0.5273840000000  0.5514350000000 1.0
C      1  0.5382410000000  0.4241020000000  0.5303030000000 1.0
C      1  0.5180770000000  0.4915450000000  0.5460360000000 1.0
C      1  0.5578990000000  0.4581300000000  0.5159620000000 1.0
C      1  0.5684110000000  0.4786470000000  0.4933470000000 1.0
C      1  0.4711910000000  0.4479290000000  0.4180460000000 1.0
C      1  0.5116680000000  0.4095090000000  0.4803190000000 1.0
C      1  0.4767180000000  0.5829510000000  0.4523660000000 1.0
C      1  0.4634600000000  0.5522220000000  0.5356140000000 1.0
C      1  0.5090300000000  0.4874300000000  0.5955050000000 1.0
C      1  0.4477640000000  0.5879800000000  0.4704210000000 1.0
C      1  0.5912060000000  0.4507550000000  0.5105510000000 1.0
C      1  0.4198810000000  0.5050250000000  0.4518220000000 1.0
C      1  0.4154040000000  0.4878640000000  0.4808560000000 1.0
C      1  0.5353240000000  0.5650270000000  0.4924840000000 1.0
C      1  0.5073350000000  0.5105540000000  0.4821780000000 1.0
C      1  0.5241610000000  0.4261800000000  0.5611320000000 1.0
C      1  0.4338760000000  0.4669380000000  0.5411620000000 1.0
C      1  0.4591890000000  0.4979910000000  0.5391440000000 1.0
C      1  0.4330810000000  0.4350710000000  0.4632550000000 1.0
C      1  0.4727310000000  0.4980350000000  0.4446150000000 1.0
C      1  0.4270590000000  0.4264620000000  0.4956090000000 1.0
C      1  0.4562320000000  0.5802540000000  0.5082790000000 1.0
C      1  0.5314670000000  0.4631340000000  0.5949060000000 1.0
C      1  0.4133040000000  0.5544680000000  0.5107660000000 1.0
C      1  0.5720270000000  0.4665740000000  0.4243790000000 1.0
C      1  0.4392360000000  0.5114500000000  0.5637070000000 1.0
C      1  0.5222370000000  0.4974690000000  0.4582770000000 1.0
C      1  0.5672130000000  0.5629510000000  0.4319590000000 1.0
C      1  0.4821550000000  0.5710100000000  0.4901070000000 1.0
C      1  0.5516130000000  0.5572670000000  0.5522190000000 1.0
C      1  0.4204930000000  0.5256890000000  0.4269430000000 1.0
C      1  0.4495310000000  0.4157900000000  0.5137610000000 1.0
C      1  0.5344270000000  0.5196640000000  0.4402910000000 1.0
C      1  0.5533540000000  0.4889860000000  0.5980560000000 1.0
END
