TITL C-2778429-3646-780 0.00107241680664505 125000 -734.473226673426 0 0 124 (C1) n - 1
REM
REM in /home/nfs/bkarasulu/CARBON/AIRSS/Generating-Clusters/REBO/Only-C1/SD-CG/HFTN-CG
REM
REM
REM
REM
REM
REM ./C.cell (11c1c37f851c82e70ff6c80c92926a4b)
REM
REM compiler GCC version 9.2.1 20190827 (Red Hat 9.2.1-1)
REM options -cpp -mtune=generic -march=x86-64 -g -O0 -fpre-include=/usr/include/finclude/math-vector-fortran.h
REM seed -811934784 -1306888469 -1775278643 1574227961 -269939974 -2068247833 -1288542326 1696687864 984456406 -1712723958 -239224683 -2073326655 1474825771 824691791 -1135232008 469868921 -676926376 1849691614 -213355644 1128616378 -1110253071 1487435950 -2094284088 -1444780767 -1004492513 -1748116901 780205052 112335143 626583276 -1355796757 2025079306 903719650 -1087333358
REM
CELL 1.54180   50.00000   50.00000   50.00000   90.00000   90.00000   90.00000
LATT -1
SFAC C  
C      1  0.4599160000000  0.4419510000000  0.4322940000000 1.0
C      1  0.4836730000000  0.4175490000000  0.4699220000000 1.0
C      1  0.5582110000000  0.4964340000000  0.4794730000000 1.0
C      1  0.4672430000000  0.4970920000000  0.4629320000000 1.0
C      1  0.4984300000000  0.5121830000000  0.5347540000000 1.0
C      1  0.4558370000000  0.5090400000000  0.5095600000000 1.0
C      1  0.4710010000000  0.4089480000000  0.5220910000000 1.0
C      1  0.4251680000000  0.4850620000000  0.4512240000000 1.0
C      1  0.4818560000000  0.5027230000000  0.4891090000000 1.0
C      1  0.5749030000000  0.5467670000000  0.4890600000000 1.0
C      1  0.4840870000000  0.5671380000000  0.4134950000000 1.0
C      1  0.5684390000000  0.5535600000000  0.5360830000000 1.0
C      1  0.4697570000000  0.5542180000000  0.5580390000000 1.0
C      1  0.4837140000000  0.4679590000000  0.4137070000000 1.0
C      1  0.5585310000000  0.4462380000000  0.5600830000000 1.0
C      1  0.4246560000000  0.5007850000000  0.5205600000000 1.0
C      1  0.5097970000000  0.5498660000000  0.4854510000000 1.0
C      1  0.4107230000000  0.4625790000000  0.4969490000000 1.0
C      1  0.4847690000000  0.4916500000000  0.4380760000000 1.0
C      1  0.5773750000000  0.4748780000000  0.4763930000000 1.0
C      1  0.4927420000000  0.4422340000000  0.5235310000000 1.0
C      1  0.5111910000000  0.5072770000000  0.4405360000000 1.0
C      1  0.5446000000000  0.5770590000000  0.4641240000000 1.0
C      1  0.5421710000000  0.5278090000000  0.5717610000000 1.0
C      1  0.5057750000000  0.4236020000000  0.4525930000000 1.0
C      1  0.5434530000000  0.5297560000000  0.5376020000000 1.0
C      1  0.5595550000000  0.4235780000000  0.5370300000000 1.0
C      1  0.4453860000000  0.4453740000000  0.5462620000000 1.0
C      1  0.4620540000000  0.5236750000000  0.4122420000000 1.0
C      1  0.4303850000000  0.4219070000000  0.5033590000000 1.0
C      1  0.4934350000000  0.4998460000000  0.4056240000000 1.0
C      1  0.5605370000000  0.4277170000000  0.4712330000000 1.0
C      1  0.5836960000000  0.4272480000000  0.5196300000000 1.0
C      1  0.4977950000000  0.5349400000000  0.4462930000000 1.0
C      1  0.4614450000000  0.5405730000000  0.4991450000000 1.0
C      1  0.5937920000000  0.4732230000000  0.4985400000000 1.0
C      1  0.5170540000000  0.5763930000000  0.4565200000000 1.0
C      1  0.4464240000000  0.5600800000000  0.4425820000000 1.0
C      1  0.5590190000000  0.4749410000000  0.4412380000000 1.0
C      1  0.5675640000000  0.5669820000000  0.5100880000000 1.0
C      1  0.4092300000000  0.5034070000000  0.4754260000000 1.0
C      1  0.5292310000000  0.4602720000000  0.4930320000000 1.0
C      1  0.4599850000000  0.4659150000000  0.4554420000000 1.0
C      1  0.4417080000000  0.5145640000000  0.4559250000000 1.0
C      1  0.5433580000000  0.4780140000000  0.5781350000000 1.0
C      1  0.4470550000000  0.5369870000000  0.5766610000000 1.0
C      1  0.4858940000000  0.4724910000000  0.5147530000000 1.0
C      1  0.4168710000000  0.5182240000000  0.5427910000000 1.0
C      1  0.4723970000000  0.5752040000000  0.4383350000000 1.0
C      1  0.5027790000000  0.4761050000000  0.5662860000000 1.0
C      1  0.4061090000000  0.4900080000000  0.5000220000000 1.0
C      1  0.5251580000000  0.4919220000000  0.5953590000000 1.0
C      1  0.4599510000000  0.4919440000000  0.4068780000000 1.0
C      1  0.5368670000000  0.4168860000000  0.5238300000000 1.0
C      1  0.4219590000000  0.5452300000000  0.5034710000000 1.0
C      1  0.4443770000000  0.4718400000000  0.4264040000000 1.0
C      1  0.4889880000000  0.4649290000000  0.4724410000000 1.0
C      1  0.4927800000000  0.5878810000000  0.5246760000000 1.0
C      1  0.4854270000000  0.5391840000000  0.4066810000000 1.0
C      1  0.4974750000000  0.5253080000000  0.5061890000000 1.0
C      1  0.4878540000000  0.6148330000000  0.5190180000000 1.0
C      1  0.5321740000000  0.4960930000000  0.4614660000000 1.0
C      1  0.5812330000000  0.4756030000000  0.5224090000000 1.0
C      1  0.4426070000000  0.4413330000000  0.4816240000000 1.0
C      1  0.4455640000000  0.5334340000000  0.4329630000000 1.0
C      1  0.4308960000000  0.4508520000000  0.5186420000000 1.0
C      1  0.4952330000000  0.5338580000000  0.5548990000000 1.0
C      1  0.5513590000000  0.4582290000000  0.4700000000000 1.0
C      1  0.4378680000000  0.5580630000000  0.5514280000000 1.0
C      1  0.5412490000000  0.4625090000000  0.4222790000000 1.0
C      1  0.5531090000000  0.4920100000000  0.5297450000000 1.0
C      1  0.5585450000000  0.5354600000000  0.4398720000000 1.0
C      1  0.4571520000000  0.5614720000000  0.4723650000000 1.0
C      1  0.5451630000000  0.5824860000000  0.5062860000000 1.0
C      1  0.4236920000000  0.5299370000000  0.4798410000000 1.0
C      1  0.5122390000000  0.4711720000000  0.4585340000000 1.0
C      1  0.5377590000000  0.5447260000000  0.4218350000000 1.0
C      1  0.5343460000000  0.5110570000000  0.5101480000000 1.0
C      1  0.4922350000000  0.4383390000000  0.4250580000000 1.0
C      1  0.5848160000000  0.5249550000000  0.5169070000000 1.0
C      1  0.4878170000000  0.5797500000000  0.5540230000000 1.0
C      1  0.4913420000000  0.4187280000000  0.4992060000000 1.0
C      1  0.4872720000000  0.5785210000000  0.4688980000000 1.0
C      1  0.5142310000000  0.5556400000000  0.4370110000000 1.0
C      1  0.4652310000000  0.4597860000000  0.4937300000000 1.0
C      1  0.4762470000000  0.4893570000000  0.5394790000000 1.0
C      1  0.4733320000000  0.4923240000000  0.5716080000000 1.0
C      1  0.5794540000000  0.4223820000000  0.4919720000000 1.0
C      1  0.4211770000000  0.5450520000000  0.5324190000000 1.0
C      1  0.5178230000000  0.5453370000000  0.5241120000000 1.0
C      1  0.5002780000000  0.5369420000000  0.5942750000000 1.0
C      1  0.4359530000000  0.4611500000000  0.5674490000000 1.0
C      1  0.5587650000000  0.5064010000000  0.4411660000000 1.0
C      1  0.5110890000000  0.4882330000000  0.5002180000000 1.0
C      1  0.5207450000000  0.4888480000000  0.5402030000000 1.0
C      1  0.5790040000000  0.5074750000000  0.5456140000000 1.0
C      1  0.5012580000000  0.5635660000000  0.5807870000000 1.0
C      1  0.4292350000000  0.5125500000000  0.5679840000000 1.0
C      1  0.4480680000000  0.4793280000000  0.5253270000000 1.0
C      1  0.5214490000000  0.4277820000000  0.4997950000000 1.0
C      1  0.5236570000000  0.5200000000000  0.5921470000000 1.0
C      1  0.4198930000000  0.4585240000000  0.4687660000000 1.0
C      1  0.5508830000000  0.5592810000000  0.5633890000000 1.0
C      1  0.5864150000000  0.4523500000000  0.5425100000000 1.0
C      1  0.5729160000000  0.4778290000000  0.5612740000000 1.0
C      1  0.5739730000000  0.5333350000000  0.5629260000000 1.0
C      1  0.5210700000000  0.4578240000000  0.5261030000000 1.0
C      1  0.5331940000000  0.5322010000000  0.4896210000000 1.0
C      1  0.4759890000000  0.5220110000000  0.5805880000000 1.0
C      1  0.4695640000000  0.4308990000000  0.5433400000000 1.0
C      1  0.4987020000000  0.4776790000000  0.6000500000000 1.0
C      1  0.5300230000000  0.4244530000000  0.4682290000000 1.0
C      1  0.4841860000000  0.5664370000000  0.5008370000000 1.0
C      1  0.5697930000000  0.5165740000000  0.4926070000000 1.0
C      1  0.4426830000000  0.4877210000000  0.5730880000000 1.0
C      1  0.5204290000000  0.5751550000000  0.5146910000000 1.0
C      1  0.5631520000000  0.5544630000000  0.4623290000000 1.0
C      1  0.5162900000000  0.4574120000000  0.4341400000000 1.0
C      1  0.4454260000000  0.4013150000000  0.5127190000000 1.0
C      1  0.5281390000000  0.4546690000000  0.5588390000000 1.0
C      1  0.5141620000000  0.5247580000000  0.4113440000000 1.0
C      1  0.4584380000000  0.4263820000000  0.4605100000000 1.0
C      1  0.4820110000000  0.5390470000000  0.4719540000000 1.0
C      1  0.5203940000000  0.5569620000000  0.5554780000000 1.0
END
