TITL C-2778428-5639-383 -0.00240229773411101 125000 -902.186389378801 0 0 156 (C1) n - 1
REM
REM in /home/nfs/bkarasulu/CARBON/AIRSS/Generating-Clusters/REBO/Only-C1/SD-CG/HFTN-CG
REM
REM
REM
REM
REM
REM ./C.cell (11c1c37f851c82e70ff6c80c92926a4b)
REM
REM compiler GCC version 9.2.1 20190827 (Red Hat 9.2.1-1)
REM options -cpp -mtune=generic -march=x86-64 -g -O0 -fpre-include=/usr/include/finclude/math-vector-fortran.h
REM seed 709344331 397927515 2020693398 1493102712 700315881 1599714800 -1096253968 -2043627407 747692219 1523891393 1439935241 -1601711157 -74396666 -945169737 2106981725 -471199537 -1865871122 -1491073487 474417050 903097212 407489668 -1144299645 1411279189 95536742 -204807630 513805785 1287697219 -1853925981 223797609 671974375 1822822319 -703007810 1985186417
REM
CELL 1.54180   50.00000   50.00000   50.00000   90.00000   90.00000   90.00000
LATT -1
SFAC C  
C      1  0.5467960000000  0.5987710000000  0.5306290000000 1.0
C      1  0.4905210000000  0.6046400000000  0.5306170000000 1.0
C      1  0.4748900000000  0.5124170000000  0.4789390000000 1.0
C      1  0.5896890000000  0.4902000000000  0.5273300000000 1.0
C      1  0.5456740000000  0.4605340000000  0.4362290000000 1.0
C      1  0.4231550000000  0.4201720000000  0.4684020000000 1.0
C      1  0.4982830000000  0.5127970000000  0.5195030000000 1.0
C      1  0.5591570000000  0.5665550000000  0.4361920000000 1.0
C      1  0.4574090000000  0.5635470000000  0.4493620000000 1.0
C      1  0.5062780000000  0.4643740000000  0.5439910000000 1.0
C      1  0.4931390000000  0.5611450000000  0.3783930000000 1.0
C      1  0.4368780000000  0.4461630000000  0.5616670000000 1.0
C      1  0.5838610000000  0.5505680000000  0.6067960000000 1.0
C      1  0.4770320000000  0.6120940000000  0.5007210000000 1.0
C      1  0.4098550000000  0.4760990000000  0.4353970000000 1.0
C      1  0.5920420000000  0.5081160000000  0.4753800000000 1.0
C      1  0.5814690000000  0.4869400000000  0.4571560000000 1.0
C      1  0.4208910000000  0.5045040000000  0.4261160000000 1.0
C      1  0.5052070000000  0.4657510000000  0.5780140000000 1.0
C      1  0.4953810000000  0.5870370000000  0.4950190000000 1.0
C      1  0.5296130000000  0.4174220000000  0.4723120000000 1.0
C      1  0.4802580000000  0.5594580000000  0.4947750000000 1.0
C      1  0.4187410000000  0.5226710000000  0.4991190000000 1.0
C      1  0.4994820000000  0.4332060000000  0.4740000000000 1.0
C      1  0.5137470000000  0.5456000000000  0.4223820000000 1.0
C      1  0.4885400000000  0.5166260000000  0.5605730000000 1.0
C      1  0.4298410000000  0.3714230000000  0.5094320000000 1.0
C      1  0.5518570000000  0.4479980000000  0.5031880000000 1.0
C      1  0.5068530000000  0.5279520000000  0.5940870000000 1.0
C      1  0.4641570000000  0.5503560000000  0.5215150000000 1.0
C      1  0.4006640000000  0.4963450000000  0.4874350000000 1.0
C      1  0.5277960000000  0.5004470000000  0.4078420000000 1.0
C      1  0.4120930000000  0.5802300000000  0.4915210000000 1.0
C      1  0.5642490000000  0.4654170000000  0.5708970000000 1.0
C      1  0.4207400000000  0.5382420000000  0.5772170000000 1.0
C      1  0.5258540000000  0.5018570000000  0.4354850000000 1.0
C      1  0.5615910000000  0.4315530000000  0.5294960000000 1.0
C      1  0.5896520000000  0.4418230000000  0.5357350000000 1.0
C      1  0.4396210000000  0.4934920000000  0.4820200000000 1.0
C      1  0.4569810000000  0.6008710000000  0.5260570000000 1.0
C      1  0.5316580000000  0.4461110000000  0.5375620000000 1.0
C      1  0.4818200000000  0.4852030000000  0.5521350000000 1.0
C      1  0.4458270000000  0.5077610000000  0.4147930000000 1.0
C      1  0.4193440000000  0.4512630000000  0.4435380000000 1.0
C      1  0.5327040000000  0.5485040000000  0.4808780000000 1.0
C      1  0.4486080000000  0.5653780000000  0.4883200000000 1.0
C      1  0.5111370000000  0.4960170000000  0.4950220000000 1.0
C      1  0.5984950000000  0.5387200000000  0.5181930000000 1.0
C      1  0.5373510000000  0.5283210000000  0.5779770000000 1.0
C      1  0.5756500000000  0.4924410000000  0.5542340000000 1.0
C      1  0.5329360000000  0.4203410000000  0.5041440000000 1.0
C      1  0.5442940000000  0.5358580000000  0.4152880000000 1.0
C      1  0.5621900000000  0.5143080000000  0.4247420000000 1.0
C      1  0.5746600000000  0.5070250000000  0.5031780000000 1.0
C      1  0.4786790000000  0.5681270000000  0.5683990000000 1.0
C      1  0.4545930000000  0.4568990000000  0.4847420000000 1.0
C      1  0.5099110000000  0.3956970000000  0.5407700000000 1.0
C      1  0.4384050000000  0.5443000000000  0.4562030000000 1.0
C      1  0.5056050000000  0.4230140000000  0.4351850000000 1.0
C      1  0.5001400000000  0.4009890000000  0.4508600000000 1.0
C      1  0.4856020000000  0.4052840000000  0.5291890000000 1.0
C      1  0.5724460000000  0.5462330000000  0.5841430000000 1.0
C      1  0.5524790000000  0.4359850000000  0.4591080000000 1.0
C      1  0.4980090000000  0.4338190000000  0.5682890000000 1.0
C      1  0.5159340000000  0.4825210000000  0.3906880000000 1.0
C      1  0.4685050000000  0.4863800000000  0.4282660000000 1.0
C      1  0.4648180000000  0.4826820000000  0.5026070000000 1.0
C      1  0.4642950000000  0.5741970000000  0.5404150000000 1.0
C      1  0.4735070000000  0.4628200000000  0.4086510000000 1.0
C      1  0.5027390000000  0.5840430000000  0.5537310000000 1.0
C      1  0.4701450000000  0.5282820000000  0.4079180000000 1.0
C      1  0.5394080000000  0.4071840000000  0.5335770000000 1.0
C      1  0.4516530000000  0.5315820000000  0.4953100000000 1.0
C      1  0.5150830000000  0.5407110000000  0.5236800000000 1.0
C      1  0.4255330000000  0.4527620000000  0.4739370000000 1.0
C      1  0.5487430000000  0.4413320000000  0.5656470000000 1.0
C      1  0.5463780000000  0.4873900000000  0.5804750000000 1.0
C      1  0.5369730000000  0.5203140000000  0.5134190000000 1.0
C      1  0.4777180000000  0.4070130000000  0.4752430000000 1.0
C      1  0.5199530000000  0.5911630000000  0.5260360000000 1.0
C      1  0.5598580000000  0.5375510000000  0.4988110000000 1.0
C      1  0.4739160000000  0.4580050000000  0.5708240000000 1.0
C      1  0.5107350000000  0.4631480000000  0.4757140000000 1.0
C      1  0.4781980000000  0.5084460000000  0.5921040000000 1.0
C      1  0.4410460000000  0.3961960000000  0.5085650000000 1.0
C      1  0.5412900000000  0.4654540000000  0.4689340000000 1.0
C      1  0.4146360000000  0.4986260000000  0.4589050000000 1.0
C      1  0.4421000000000  0.4450620000000  0.5134900000000 1.0
C      1  0.5320630000000  0.5704340000000  0.4337650000000 1.0
C      1  0.5605710000000  0.4846970000000  0.4818810000000 1.0
C      1  0.4537960000000  0.6191590000000  0.4781690000000 1.0
C      1  0.5978630000000  0.4563630000000  0.4915040000000 1.0
C      1  0.5614680000000  0.5889460000000  0.4836700000000 1.0
C      1  0.4444720000000  0.5296380000000  0.5890040000000 1.0
C      1  0.4701290000000  0.5025850000000  0.5280550000000 1.0
C      1  0.4469520000000  0.4660690000000  0.5848340000000 1.0
C      1  0.4471050000000  0.4078400000000  0.4645900000000 1.0
C      1  0.4532920000000  0.4410100000000  0.5406050000000 1.0
C      1  0.5180410000000  0.5656010000000  0.5062070000000 1.0
C      1  0.5662010000000  0.5219810000000  0.5610910000000 1.0
C      1  0.5153710000000  0.5658480000000  0.4581250000000 1.0
C      1  0.5234090000000  0.5630550000000  0.5646850000000 1.0
C      1  0.5658030000000  0.4873690000000  0.4330560000000 1.0
C      1  0.5771420000000  0.5453490000000  0.5385720000000 1.0
C      1  0.5552770000000  0.5603940000000  0.5600170000000 1.0
C      1  0.5712950000000  0.5677400000000  0.5034830000000 1.0
C      1  0.4941420000000  0.5540940000000  0.5933510000000 1.0
C      1  0.4542670000000  0.5267670000000  0.5388200000000 1.0
C      1  0.4267090000000  0.4741940000000  0.5076410000000 1.0
C      1  0.5159040000000  0.4511780000000  0.4269120000000 1.0
C      1  0.5676780000000  0.5388410000000  0.4475510000000 1.0
C      1  0.5264850000000  0.4945570000000  0.5606820000000 1.0
C      1  0.4658210000000  0.5382810000000  0.5686570000000 1.0
C      1  0.5127560000000  0.5329370000000  0.5548500000000 1.0
C      1  0.5907220000000  0.5356040000000  0.4679750000000 1.0
C      1  0.5078240000000  0.4946010000000  0.5877690000000 1.0
C      1  0.5388890000000  0.5074230000000  0.4834080000000 1.0
C      1  0.5532830000000  0.6066070000000  0.4671670000000 1.0
C      1  0.4850560000000  0.5642880000000  0.4555660000000 1.0
C      1  0.4564850000000  0.4615940000000  0.3863660000000 1.0
C      1  0.5020180000000  0.5298890000000  0.4470080000000 1.0
C      1  0.4244000000000  0.4900650000000  0.5346130000000 1.0
C      1  0.4701920000000  0.3995170000000  0.5052910000000 1.0
C      1  0.5125550000000  0.4456600000000  0.5095690000000 1.0
C      1  0.5027270000000  0.4614030000000  0.4018650000000 1.0
C      1  0.4762860000000  0.5172790000000  0.4380300000000 1.0
C      1  0.5108930000000  0.4781430000000  0.4465510000000 1.0
C      1  0.4751410000000  0.4520060000000  0.4618180000000 1.0
C      1  0.4007180000000  0.4285990000000  0.4926610000000 1.0
C      1  0.4479540000000  0.4982130000000  0.5895590000000 1.0
C      1  0.5986550000000  0.4623970000000  0.5195410000000 1.0
C      1  0.4809340000000  0.4846250000000  0.4601550000000 1.0
C      1  0.5243420000000  0.3870410000000  0.4606110000000 1.0
C      1  0.5353450000000  0.5568340000000  0.5944450000000 1.0
C      1  0.5383150000000  0.5241110000000  0.4569740000000 1.0
C      1  0.5331590000000  0.4733740000000  0.5086390000000 1.0
C      1  0.4768420000000  0.4273300000000  0.5449620000000 1.0
C      1  0.5743080000000  0.4471390000000  0.4815760000000 1.0
C      1  0.4939840000000  0.5380110000000  0.4771450000000 1.0
C      1  0.3994820000000  0.4627500000000  0.4929140000000 1.0
C      1  0.4935780000000  0.4735690000000  0.5136470000000 1.0
C      1  0.5248770000000  0.4168100000000  0.5632930000000 1.0
C      1  0.4170440000000  0.5162780000000  0.5286280000000 1.0
C      1  0.4228120000000  0.5356930000000  0.5492110000000 1.0
C      1  0.5963010000000  0.5516280000000  0.4911120000000 1.0
C      1  0.4649210000000  0.4443600000000  0.4329470000000 1.0
C      1  0.4389580000000  0.4357280000000  0.4307070000000 1.0
C      1  0.4408860000000  0.5954950000000  0.4981860000000 1.0
C      1  0.4499540000000  0.5162120000000  0.4583720000000 1.0
C      1  0.5262330000000  0.4966910000000  0.5318970000000 1.0
C      1  0.4334770000000  0.4859870000000  0.5608510000000 1.0
C      1  0.4190890000000  0.5494840000000  0.4811390000000 1.0
C      1  0.4911890000000  0.5456700000000  0.4011120000000 1.0
C      1  0.6097090000000  0.5141140000000  0.5210200000000 1.0
C      1  0.4257540000000  0.4201680000000  0.5081200000000 1.0
C      1  0.5650620000000  0.5768100000000  0.5330220000000 1.0
END
