TITL C-2778433-5640-553 0.0021428226982007 125000 -347.710459678486 0 0 60 (C1) n - 1
REM
REM in /home/nfs/bkarasulu/CARBON/AIRSS/Generating-Clusters/REBO/Only-C1/SD-CG/HFTN-CG
REM
REM
REM
REM
REM
REM ./C.cell (11c1c37f851c82e70ff6c80c92926a4b)
REM
REM compiler GCC version 9.2.1 20190827 (Red Hat 9.2.1-1)
REM options -cpp -mtune=generic -march=x86-64 -g -O0 -fpre-include=/usr/include/finclude/math-vector-fortran.h
REM seed -448365559 -1840251511 -18645512 -682445899 -762867596 -1048553161 1353800181 -600440411 -303750945 1303176741 2016941216 549664923 1425483414 1373477031 -1657159716 2049125054 2015361056 -667791866 1903568158 963611553 1638540123 -154505362 -809903622 1328040870 -1891817481 -1821813678 -776399701 1485567087 -517454504 -613022158 43704841 362264740 1471367171
REM
CELL 1.54180   50.00000   50.00000   50.00000   90.00000   90.00000   90.00000
LATT -1
SFAC C  
C      1  0.4453050000000  0.4788800000000  0.4966410000000 1.0
C      1  0.5079360000000  0.5176290000000  0.5590990000000 1.0
C      1  0.5549550000000  0.4995110000000  0.5576970000000 1.0
C      1  0.5318470000000  0.5752900000000  0.4947320000000 1.0
C      1  0.4922120000000  0.4693650000000  0.5692600000000 1.0
C      1  0.5201470000000  0.5028500000000  0.4462910000000 1.0
C      1  0.5449890000000  0.5331560000000  0.5180030000000 1.0
C      1  0.5237810000000  0.4933670000000  0.5169970000000 1.0
C      1  0.4997590000000  0.4930320000000  0.4927480000000 1.0
C      1  0.5757190000000  0.4411320000000  0.4850650000000 1.0
C      1  0.4244560000000  0.5590890000000  0.5239440000000 1.0
C      1  0.5165950000000  0.4646580000000  0.4905280000000 1.0
C      1  0.4956120000000  0.4359910000000  0.5204120000000 1.0
C      1  0.5696790000000  0.5197430000000  0.5366810000000 1.0
C      1  0.4751530000000  0.5053100000000  0.4261660000000 1.0
C      1  0.4884040000000  0.4574720000000  0.4499610000000 1.0
C      1  0.4985630000000  0.4836500000000  0.4355310000000 1.0
C      1  0.4968820000000  0.5512170000000  0.5201680000000 1.0
C      1  0.5114090000000  0.4471580000000  0.4692210000000 1.0
C      1  0.5379150000000  0.4563000000000  0.5399400000000 1.0
C      1  0.5648470000000  0.4943860000000  0.4758080000000 1.0
C      1  0.5000430000000  0.5510710000000  0.4392190000000 1.0
C      1  0.4556870000000  0.4643790000000  0.4485290000000 1.0
C      1  0.4923170000000  0.5376760000000  0.5509040000000 1.0
C      1  0.4940210000000  0.5214460000000  0.4470760000000 1.0
C      1  0.4465740000000  0.5498310000000  0.5403980000000 1.0
C      1  0.4724540000000  0.4419890000000  0.4764900000000 1.0
C      1  0.4528610000000  0.5245140000000  0.4770020000000 1.0
C      1  0.5524250000000  0.4713570000000  0.5576550000000 1.0
C      1  0.5513570000000  0.5203020000000  0.4907820000000 1.0
C      1  0.5410660000000  0.5094290000000  0.4619500000000 1.0
C      1  0.4153920000000  0.5366500000000  0.5073390000000 1.0
C      1  0.5217080000000  0.4523350000000  0.5172260000000 1.0
C      1  0.4496820000000  0.4851810000000  0.4322170000000 1.0
C      1  0.4697220000000  0.5046140000000  0.5317740000000 1.0
C      1  0.4220740000000  0.4872070000000  0.5104990000000 1.0
C      1  0.5615210000000  0.4653140000000  0.4811000000000 1.0
C      1  0.4883740000000  0.4258300000000  0.4939030000000 1.0
C      1  0.4728290000000  0.5599940000000  0.5424430000000 1.0
C      1  0.5501290000000  0.4794550000000  0.5097590000000 1.0
C      1  0.4440560000000  0.5092510000000  0.4127840000000 1.0
C      1  0.4824820000000  0.5454570000000  0.4938110000000 1.0
C      1  0.4953040000000  0.4864940000000  0.5332660000000 1.0
C      1  0.4993540000000  0.4954760000000  0.5742610000000 1.0
C      1  0.4785130000000  0.5674740000000  0.4777200000000 1.0
C      1  0.4906120000000  0.4572670000000  0.5418600000000 1.0
C      1  0.4988220000000  0.5723270000000  0.4582120000000 1.0
C      1  0.5125300000000  0.4171970000000  0.4766640000000 1.0
C      1  0.4458490000000  0.5198280000000  0.5389860000000 1.0
C      1  0.5264470000000  0.5569470000000  0.5141340000000 1.0
C      1  0.5228020000000  0.5826820000000  0.4698500000000 1.0
C      1  0.5767890000000  0.4933610000000  0.5248950000000 1.0
C      1  0.4846490000000  0.5178700000000  0.4771050000000 1.0
C      1  0.4280730000000  0.5342250000000  0.4817680000000 1.0
C      1  0.5838630000000  0.4390540000000  0.5116850000000 1.0
C      1  0.4214530000000  0.5123550000000  0.5235510000000 1.0
C      1  0.4465880000000  0.4582370000000  0.4771360000000 1.0
C      1  0.5750370000000  0.4617650000000  0.5261110000000 1.0
C      1  0.4694120000000  0.4920990000000  0.5036300000000 1.0
C      1  0.5309650000000  0.5128740000000  0.5414150000000 1.0
END
