TITL C-2778433-5640-1391 -0.00277806308953189 125000 -711.487894344175 0 0 123 (C1) n - 1
REM
REM in /home/nfs/bkarasulu/CARBON/AIRSS/Generating-Clusters/REBO/Only-C1/SD-CG/HFTN-CG
REM
REM
REM
REM
REM
REM ./C.cell (11c1c37f851c82e70ff6c80c92926a4b)
REM
REM compiler GCC version 9.2.1 20190827 (Red Hat 9.2.1-1)
REM options -cpp -mtune=generic -march=x86-64 -g -O0 -fpre-include=/usr/include/finclude/math-vector-fortran.h
REM seed 582851518 1038275721 1219963112 -1010204253 -1181885678 14832943 -1118904949 -965177256 335741458 -928900490 -1626130884 1064998216 -1529065131 -2145555602 1589114572 105464429 -1077320376 -1663024780 -1691921249 -586534930 907593074 438541823 -1183234817 -466198989 2024151141 -35228865 2010100707 -92868026 -1191007878 -1906696448 -1011722216 48830057 -1240222135
REM
CELL 1.54180   50.00000   50.00000   50.00000   90.00000   90.00000   90.00000
LATT -1
SFAC C  
C      1  0.5343210000000  0.4810210000000  0.4183150000000 1.0
C      1  0.4680370000000  0.4757760000000  0.4166260000000 1.0
C      1  0.4137090000000  0.5402340000000  0.4930090000000 1.0
C      1  0.5596300000000  0.5045170000000  0.5556430000000 1.0
C      1  0.5740880000000  0.4563290000000  0.4735980000000 1.0
C      1  0.4634640000000  0.5797790000000  0.5390830000000 1.0
C      1  0.4602900000000  0.4432780000000  0.5573740000000 1.0
C      1  0.4346370000000  0.5570850000000  0.5066580000000 1.0
C      1  0.4757080000000  0.5403790000000  0.4641260000000 1.0
C      1  0.4907420000000  0.4239350000000  0.4673300000000 1.0
C      1  0.5428090000000  0.5119450000000  0.4299540000000 1.0
C      1  0.4516640000000  0.4163810000000  0.4653400000000 1.0
C      1  0.4823350000000  0.4994720000000  0.4920220000000 1.0
C      1  0.4458710000000  0.5124540000000  0.5797110000000 1.0
C      1  0.4489820000000  0.4693960000000  0.5542340000000 1.0
C      1  0.4432500000000  0.4342830000000  0.4854610000000 1.0
C      1  0.4497990000000  0.5283160000000  0.4348120000000 1.0
C      1  0.4656550000000  0.5069830000000  0.4148610000000 1.0
C      1  0.4935630000000  0.5292850000000  0.5041780000000 1.0
C      1  0.4709170000000  0.4310390000000  0.4420670000000 1.0
C      1  0.5455130000000  0.5723540000000  0.4380350000000 1.0
C      1  0.5184930000000  0.5173760000000  0.5866310000000 1.0
C      1  0.4926930000000  0.5193850000000  0.4062770000000 1.0
C      1  0.5152760000000  0.5446360000000  0.5794350000000 1.0
C      1  0.5863680000000  0.4857430000000  0.4498400000000 1.0
C      1  0.5326090000000  0.4680980000000  0.5871800000000 1.0
C      1  0.6102250000000  0.5020430000000  0.5155790000000 1.0
C      1  0.5133650000000  0.5016180000000  0.4050380000000 1.0
C      1  0.5116710000000  0.4497350000000  0.5008290000000 1.0
C      1  0.4205190000000  0.5380920000000  0.4651230000000 1.0
C      1  0.4803200000000  0.4681940000000  0.5163760000000 1.0
C      1  0.4711680000000  0.5467650000000  0.5377580000000 1.0
C      1  0.4385070000000  0.4858210000000  0.4998660000000 1.0
C      1  0.5483950000000  0.4504970000000  0.4588200000000 1.0
C      1  0.4256080000000  0.5148690000000  0.5560950000000 1.0
C      1  0.5185750000000  0.5060580000000  0.5070330000000 1.0
C      1  0.4881210000000  0.5975670000000  0.5363970000000 1.0
C      1  0.4666970000000  0.5128330000000  0.5175710000000 1.0
C      1  0.4177280000000  0.4678070000000  0.4857850000000 1.0
C      1  0.4929960000000  0.4460090000000  0.5640220000000 1.0
C      1  0.5430320000000  0.5165410000000  0.5213410000000 1.0
C      1  0.5141670000000  0.4267240000000  0.5225240000000 1.0
C      1  0.5130250000000  0.5892590000000  0.4540030000000 1.0
C      1  0.4514570000000  0.4569170000000  0.4331800000000 1.0
C      1  0.5207400000000  0.4524000000000  0.4199830000000 1.0
C      1  0.4860150000000  0.5854960000000  0.4944650000000 1.0
C      1  0.4464570000000  0.5555290000000  0.4546460000000 1.0
C      1  0.4765890000000  0.4818190000000  0.4668280000000 1.0
C      1  0.5665660000000  0.5561070000000  0.4931360000000 1.0
C      1  0.4624290000000  0.5099240000000  0.4593100000000 1.0
C      1  0.5629410000000  0.5353780000000  0.5415210000000 1.0
C      1  0.4434610000000  0.5435830000000  0.5549520000000 1.0
C      1  0.5169040000000  0.5712480000000  0.4739020000000 1.0
C      1  0.5052810000000  0.5342830000000  0.4626460000000 1.0
C      1  0.5709560000000  0.5147770000000  0.4456570000000 1.0
C      1  0.4568880000000  0.4246710000000  0.5311170000000 1.0
C      1  0.4535240000000  0.5386980000000  0.4900580000000 1.0
C      1  0.4111110000000  0.5163770000000  0.5089150000000 1.0
C      1  0.4896680000000  0.4227380000000  0.5420870000000 1.0
C      1  0.4804730000000  0.4485030000000  0.4886120000000 1.0
C      1  0.5005940000000  0.4692960000000  0.4541550000000 1.0
C      1  0.5758630000000  0.4509700000000  0.5533010000000 1.0
C      1  0.5564210000000  0.4720670000000  0.5654200000000 1.0
C      1  0.5276420000000  0.5656840000000  0.5270130000000 1.0
C      1  0.4566380000000  0.4839240000000  0.5784680000000 1.0
C      1  0.5317400000000  0.4284390000000  0.4300750000000 1.0
C      1  0.5531650000000  0.4330130000000  0.5136770000000 1.0
C      1  0.5238700000000  0.4198280000000  0.4599330000000 1.0
C      1  0.4906820000000  0.4548550000000  0.4276140000000 1.0
C      1  0.4151810000000  0.4605890000000  0.5190040000000 1.0
C      1  0.5251940000000  0.4471800000000  0.5662970000000 1.0
C      1  0.4451330000000  0.5818750000000  0.5144330000000 1.0
C      1  0.5770260000000  0.4493040000000  0.5252920000000 1.0
C      1  0.4512250000000  0.4767990000000  0.5249170000000 1.0
C      1  0.4471410000000  0.5846640000000  0.4658020000000 1.0
C      1  0.5792350000000  0.5398900000000  0.5119080000000 1.0
C      1  0.4544050000000  0.4611770000000  0.4726800000000 1.0
C      1  0.4787000000000  0.5163770000000  0.5707490000000 1.0
C      1  0.5390370000000  0.5541420000000  0.5570430000000 1.0
C      1  0.5273150000000  0.4871560000000  0.4571200000000 1.0
C      1  0.5016940000000  0.4787160000000  0.5595280000000 1.0
C      1  0.5962200000000  0.4787370000000  0.4818470000000 1.0
C      1  0.5918790000000  0.4744370000000  0.5141350000000 1.0
C      1  0.5360760000000  0.5620750000000  0.4987340000000 1.0
C      1  0.5132070000000  0.4770230000000  0.5164430000000 1.0
C      1  0.5206190000000  0.5345030000000  0.5372100000000 1.0
C      1  0.4967700000000  0.5569780000000  0.4944320000000 1.0
C      1  0.5121190000000  0.4874400000000  0.5970240000000 1.0
C      1  0.5364210000000  0.5366010000000  0.4756590000000 1.0
C      1  0.5198550000000  0.4507930000000  0.4716020000000 1.0
C      1  0.4932680000000  0.5262030000000  0.5440300000000 1.0
C      1  0.5052950000000  0.4109490000000  0.4938180000000 1.0
C      1  0.5545210000000  0.5624750000000  0.4632920000000 1.0
C      1  0.5563470000000  0.4807160000000  0.4835920000000 1.0
C      1  0.4619310000000  0.5662470000000  0.5702320000000 1.0
C      1  0.5923950000000  0.5112590000000  0.4721030000000 1.0
C      1  0.5006040000000  0.5472730000000  0.4069330000000 1.0
C      1  0.5102460000000  0.5065160000000  0.4759100000000 1.0
C      1  0.4586290000000  0.5921870000000  0.4912540000000 1.0
C      1  0.5357820000000  0.4772190000000  0.5387620000000 1.0
C      1  0.5524600000000  0.4792220000000  0.5110700000000 1.0
C      1  0.5252320000000  0.5583450000000  0.4228060000000 1.0
C      1  0.5721150000000  0.4994580000000  0.5265670000000 1.0
C      1  0.5113300000000  0.5908760000000  0.5314150000000 1.0
C      1  0.5494980000000  0.5095550000000  0.4692920000000 1.0
C      1  0.5379520000000  0.4210830000000  0.4912290000000 1.0
C      1  0.5274810000000  0.4990870000000  0.5622800000000 1.0
C      1  0.4223140000000  0.5096110000000  0.4566630000000 1.0
C      1  0.4397390000000  0.5154840000000  0.5263790000000 1.0
C      1  0.5225450000000  0.5313440000000  0.4361430000000 1.0
C      1  0.4416060000000  0.5098890000000  0.4840280000000 1.0
C      1  0.5566000000000  0.4769180000000  0.4426380000000 1.0
C      1  0.4357610000000  0.4370010000000  0.5127960000000 1.0
C      1  0.4660770000000  0.5350180000000  0.5946140000000 1.0
C      1  0.5364530000000  0.4368840000000  0.5420830000000 1.0
C      1  0.4847540000000  0.4938680000000  0.5383940000000 1.0
C      1  0.4833700000000  0.4800500000000  0.5867940000000 1.0
C      1  0.4150610000000  0.4918940000000  0.5325170000000 1.0
C      1  0.4884990000000  0.5550240000000  0.5830470000000 1.0
C      1  0.5979830000000  0.5220320000000  0.5007720000000 1.0
C      1  0.4372700000000  0.4959780000000  0.4317870000000 1.0
C      1  0.4807190000000  0.4066170000000  0.5146310000000 1.0
C      1  0.4290930000000  0.4708320000000  0.4536350000000 1.0
END
