TITL C-2778436-5916-406 -0.00256032091541188 125000 -919.629182641783 0 0 158 (C1) n - 1
REM
REM in /home/nfs/bkarasulu/CARBON/AIRSS/Generating-Clusters/REBO/Only-C1/SD-CG/HFTN-CG
REM
REM
REM
REM
REM
REM ./C.cell (11c1c37f851c82e70ff6c80c92926a4b)
REM
REM compiler GCC version 9.2.1 20190827 (Red Hat 9.2.1-1)
REM options -cpp -mtune=generic -march=x86-64 -g -O0 -fpre-include=/usr/include/finclude/math-vector-fortran.h
REM seed 1303855715 1928594551 150654592 2074628661 1457243765 -204419935 -1879738413 -998891920 844756252 -1935026808 -612424835 885635399 1168400887 1740879949 145733325 639898413 -1169633438 223820515 2021303635 348342273 455743110 -825576164 883024801 657244572 -1336736060 27919822 2050410097 -1946534634 115888915 1471073081 -864406667 286855195 1949810192
REM
CELL 1.54180   50.00000   50.00000   50.00000   90.00000   90.00000   90.00000
LATT -1
SFAC C  
C      1  0.5875290000000  0.4428780000000  0.4893600000000 1.0
C      1  0.5142460000000  0.4482140000000  0.5495080000000 1.0
C      1  0.4843430000000  0.5383170000000  0.4461260000000 1.0
C      1  0.4509310000000  0.4944200000000  0.4582310000000 1.0
C      1  0.4822440000000  0.4351740000000  0.4267930000000 1.0
C      1  0.4525830000000  0.4515670000000  0.4937110000000 1.0
C      1  0.5669580000000  0.5649080000000  0.4783070000000 1.0
C      1  0.4054860000000  0.5000320000000  0.5648250000000 1.0
C      1  0.4858200000000  0.4817910000000  0.4817620000000 1.0
C      1  0.4782820000000  0.4266910000000  0.4552820000000 1.0
C      1  0.5780170000000  0.5279780000000  0.4684580000000 1.0
C      1  0.5072640000000  0.5003440000000  0.5273350000000 1.0
C      1  0.4302770000000  0.5632240000000  0.5157040000000 1.0
C      1  0.4559190000000  0.5213650000000  0.4039750000000 1.0
C      1  0.5040720000000  0.4394740000000  0.5012060000000 1.0
C      1  0.5237000000000  0.4075400000000  0.5151560000000 1.0
C      1  0.5280960000000  0.4219430000000  0.4418750000000 1.0
C      1  0.5675250000000  0.4725690000000  0.4308230000000 1.0
C      1  0.5225830000000  0.4871730000000  0.5523980000000 1.0
C      1  0.4994400000000  0.5308630000000  0.5372470000000 1.0
C      1  0.4726960000000  0.5104170000000  0.4384000000000 1.0
C      1  0.4166030000000  0.5267910000000  0.5478280000000 1.0
C      1  0.4911590000000  0.5460660000000  0.4774150000000 1.0
C      1  0.5701530000000  0.5896770000000  0.5213020000000 1.0
C      1  0.4320290000000  0.4334580000000  0.4755260000000 1.0
C      1  0.5366730000000  0.4851190000000  0.4491680000000 1.0
C      1  0.4522680000000  0.5876870000000  0.5065470000000 1.0
C      1  0.6004620000000  0.4859040000000  0.4720150000000 1.0
C      1  0.4346030000000  0.4560400000000  0.4181330000000 1.0
C      1  0.4532720000000  0.4906560000000  0.4185760000000 1.0
C      1  0.5785070000000  0.4589740000000  0.5399780000000 1.0
C      1  0.6002390000000  0.5094500000000  0.4578470000000 1.0
C      1  0.4525780000000  0.5834140000000  0.4754190000000 1.0
C      1  0.5326960000000  0.5187940000000  0.4910270000000 1.0
C      1  0.4385670000000  0.4946240000000  0.5562380000000 1.0
C      1  0.5683110000000  0.5410070000000  0.5275540000000 1.0
C      1  0.3998700000000  0.4723810000000  0.4842560000000 1.0
C      1  0.5026640000000  0.5175780000000  0.4867300000000 1.0
C      1  0.5216720000000  0.5021430000000  0.5903100000000 1.0
C      1  0.4044730000000  0.4708250000000  0.4562930000000 1.0
C      1  0.5437010000000  0.4058910000000  0.4878390000000 1.0
C      1  0.5708120000000  0.4217630000000  0.4966140000000 1.0
C      1  0.4300110000000  0.5229340000000  0.4766250000000 1.0
C      1  0.4937640000000  0.5732760000000  0.4291950000000 1.0
C      1  0.5392270000000  0.5660630000000  0.4363900000000 1.0
C      1  0.5449980000000  0.5236130000000  0.4615980000000 1.0
C      1  0.4968630000000  0.5029810000000  0.4594490000000 1.0
C      1  0.4224130000000  0.4847010000000  0.4319760000000 1.0
C      1  0.5743250000000  0.5355870000000  0.5664570000000 1.0
C      1  0.5711670000000  0.4627860000000  0.5734610000000 1.0
C      1  0.4950570000000  0.5920210000000  0.5368600000000 1.0
C      1  0.5233970000000  0.4646330000000  0.5770680000000 1.0
C      1  0.4305560000000  0.5416470000000  0.3936290000000 1.0
C      1  0.4052780000000  0.5266570000000  0.4966530000000 1.0
C      1  0.5436710000000  0.5682610000000  0.5980540000000 1.0
C      1  0.4875280000000  0.4654380000000  0.4520290000000 1.0
C      1  0.5623890000000  0.5050150000000  0.4401040000000 1.0
C      1  0.5446470000000  0.4626200000000  0.5436210000000 1.0
C      1  0.5320900000000  0.5441030000000  0.5115210000000 1.0
C      1  0.4520480000000  0.5082430000000  0.5317620000000 1.0
C      1  0.4077170000000  0.4739080000000  0.5414410000000 1.0
C      1  0.4874950000000  0.4767620000000  0.4034800000000 1.0
C      1  0.5653640000000  0.5619910000000  0.5837280000000 1.0
C      1  0.4442020000000  0.4533080000000  0.5712010000000 1.0
C      1  0.4600670000000  0.4169250000000  0.4754390000000 1.0
C      1  0.5936830000000  0.4605910000000  0.5116030000000 1.0
C      1  0.4129650000000  0.5008720000000  0.5260350000000 1.0
C      1  0.4554110000000  0.4226170000000  0.5669650000000 1.0
C      1  0.4411480000000  0.5319790000000  0.5696750000000 1.0
C      1  0.4256100000000  0.5138470000000  0.4458660000000 1.0
C      1  0.5043050000000  0.4081970000000  0.4878320000000 1.0
C      1  0.5108130000000  0.4713510000000  0.4971880000000 1.0
C      1  0.4637950000000  0.5602970000000  0.4519860000000 1.0
C      1  0.4178790000000  0.4501720000000  0.5259210000000 1.0
C      1  0.4648240000000  0.4714560000000  0.5867690000000 1.0
C      1  0.5299220000000  0.5936710000000  0.4957260000000 1.0
C      1  0.5662730000000  0.4889710000000  0.5444770000000 1.0
C      1  0.5363600000000  0.4376500000000  0.4777780000000 1.0
C      1  0.5178040000000  0.5624950000000  0.5981430000000 1.0
C      1  0.3963590000000  0.4971980000000  0.4979190000000 1.0
C      1  0.4654340000000  0.4585560000000  0.4135440000000 1.0
C      1  0.5358560000000  0.4584520000000  0.4280620000000 1.0
C      1  0.5171660000000  0.5801740000000  0.4469190000000 1.0
C      1  0.5038250000000  0.4867950000000  0.4303210000000 1.0
C      1  0.4796610000000  0.5892530000000  0.4560910000000 1.0
C      1  0.5027450000000  0.4669110000000  0.5975040000000 1.0
C      1  0.4815570000000  0.4219710000000  0.5790350000000 1.0
C      1  0.5022450000000  0.4007130000000  0.5352090000000 1.0
C      1  0.5666680000000  0.5649250000000  0.5502000000000 1.0
C      1  0.5269670000000  0.5746160000000  0.5203260000000 1.0
C      1  0.4129280000000  0.4498780000000  0.4978650000000 1.0
C      1  0.4634580000000  0.5175510000000  0.4791220000000 1.0
C      1  0.4760780000000  0.5146360000000  0.5076460000000 1.0
C      1  0.4861350000000  0.5926800000000  0.5040110000000 1.0
C      1  0.5355050000000  0.4875590000000  0.5146380000000 1.0
C      1  0.5515110000000  0.5126830000000  0.5623670000000 1.0
C      1  0.4646800000000  0.5781120000000  0.5371350000000 1.0
C      1  0.5789900000000  0.4570480000000  0.4593160000000 1.0
C      1  0.4583050000000  0.5044310000000  0.5802080000000 1.0
C      1  0.4881590000000  0.4957990000000  0.5940200000000 1.0
C      1  0.5481250000000  0.4584070000000  0.5020240000000 1.0
C      1  0.4358010000000  0.5016200000000  0.5026340000000 1.0
C      1  0.4375760000000  0.5529610000000  0.5938100000000 1.0
C      1  0.4192530000000  0.4704250000000  0.5719010000000 1.0
C      1  0.4432040000000  0.4386220000000  0.5403080000000 1.0
C      1  0.4337790000000  0.5588260000000  0.4641790000000 1.0
C      1  0.5662170000000  0.5598540000000  0.4477280000000 1.0
C      1  0.5351640000000  0.5570670000000  0.4806600000000 1.0
C      1  0.5367450000000  0.4204680000000  0.5674540000000 1.0
C      1  0.5432590000000  0.5174400000000  0.5294400000000 1.0
C      1  0.4314510000000  0.5330960000000  0.4242440000000 1.0
C      1  0.4642570000000  0.4383730000000  0.5188230000000 1.0
C      1  0.5105610000000  0.4373140000000  0.4226280000000 1.0
C      1  0.4588870000000  0.5497410000000  0.5160580000000 1.0
C      1  0.4816690000000  0.4834840000000  0.5214340000000 1.0
C      1  0.4275370000000  0.4488630000000  0.4484250000000 1.0
C      1  0.5049370000000  0.4423960000000  0.4679150000000 1.0
C      1  0.5544710000000  0.4245110000000  0.5500250000000 1.0
C      1  0.4636930000000  0.5568940000000  0.5637970000000 1.0
C      1  0.5502480000000  0.4884780000000  0.4062280000000 1.0
C      1  0.5301560000000  0.5395190000000  0.4169600000000 1.0
C      1  0.5534020000000  0.4410720000000  0.4507020000000 1.0
C      1  0.4831700000000  0.4444330000000  0.5964720000000 1.0
C      1  0.5014160000000  0.5058460000000  0.3952870000000 1.0
C      1  0.5679990000000  0.4770750000000  0.4843800000000 1.0
C      1  0.4808780000000  0.5611030000000  0.4980550000000 1.0
C      1  0.4843540000000  0.5298800000000  0.4005700000000 1.0
C      1  0.4916640000000  0.4537220000000  0.5275220000000 1.0
C      1  0.4582070000000  0.5645650000000  0.6026470000000 1.0
C      1  0.4999670000000  0.5512650000000  0.4118300000000 1.0
C      1  0.5482830000000  0.4292270000000  0.5197930000000 1.0
C      1  0.5274900000000  0.5057300000000  0.4133460000000 1.0
C      1  0.5178480000000  0.6004700000000  0.5507380000000 1.0
C      1  0.5167740000000  0.5405640000000  0.4572040000000 1.0
C      1  0.4581870000000  0.4808950000000  0.4975570000000 1.0
C      1  0.4859010000000  0.5591660000000  0.5879610000000 1.0
C      1  0.4981740000000  0.5600950000000  0.5250700000000 1.0
C      1  0.5433810000000  0.5851910000000  0.5453750000000 1.0
C      1  0.4688870000000  0.5347280000000  0.5410940000000 1.0
C      1  0.5594080000000  0.5895660000000  0.4955730000000 1.0
C      1  0.5852430000000  0.5147600000000  0.5417370000000 1.0
C      1  0.5294090000000  0.4817870000000  0.4755450000000 1.0
C      1  0.5215100000000  0.4039710000000  0.4623110000000 1.0
C      1  0.5646720000000  0.5072830000000  0.4920680000000 1.0
C      1  0.5496310000000  0.4844160000000  0.5814020000000 1.0
C      1  0.4967690000000  0.4809040000000  0.3726460000000 1.0
C      1  0.5620960000000  0.5349640000000  0.4277510000000 1.0
C      1  0.4549430000000  0.4635740000000  0.4617670000000 1.0
C      1  0.4676390000000  0.4116530000000  0.5033410000000 1.0
C      1  0.5053270000000  0.4182980000000  0.5602250000000 1.0
C      1  0.4794630000000  0.3930880000000  0.5215500000000 1.0
C      1  0.5124390000000  0.5181930000000  0.5622950000000 1.0
C      1  0.5063440000000  0.5326890000000  0.5905790000000 1.0
C      1  0.5921190000000  0.5136910000000  0.5113360000000 1.0
C      1  0.6027180000000  0.4857750000000  0.5018200000000 1.0
C      1  0.4111660000000  0.5425200000000  0.5198690000000 1.0
C      1  0.5059470000000  0.5936680000000  0.4761290000000 1.0
C      1  0.5815680000000  0.5431130000000  0.4975140000000 1.0
END
