TITL C-2778428-5639-1126 0.00720292550813489 125000 -1054.64268053417 0 0 181 (C1) n - 1
REM
REM in /home/nfs/bkarasulu/CARBON/AIRSS/Generating-Clusters/REBO/Only-C1/SD-CG/HFTN-CG
REM
REM
REM
REM
REM
REM ./C.cell (11c1c37f851c82e70ff6c80c92926a4b)
REM
REM compiler GCC version 9.2.1 20190827 (Red Hat 9.2.1-1)
REM options -cpp -mtune=generic -march=x86-64 -g -O0 -fpre-include=/usr/include/finclude/math-vector-fortran.h
REM seed -1998133214 1460074328 -1961211582 842101037 264969957 1345893978 -1219839629 -2084100418 1294639129 -270836827 1810263751 -751690781 301166226 787539766 1918183497 157082848 -1226478570 1081324663 -1533634555 1004212589 -1956073065 -1553549919 -1363006756 -265281472 1413146643 -189353826 91054296 1001039291 602094430 1537336810 1678688514 1691974817 -1713531116
REM
CELL 1.54180   50.00000   50.00000   50.00000   90.00000   90.00000   90.00000
LATT -1
SFAC C  
C      1  0.5688320000000  0.4769870000000  0.4402520000000 1.0
C      1  0.4340690000000  0.5852600000000  0.5296420000000 1.0
C      1  0.5061240000000  0.4874090000000  0.3955300000000 1.0
C      1  0.4196920000000  0.5517680000000  0.4833590000000 1.0
C      1  0.5178190000000  0.4403450000000  0.5185590000000 1.0
C      1  0.5190490000000  0.4387130000000  0.4677470000000 1.0
C      1  0.4823750000000  0.4002160000000  0.4860270000000 1.0
C      1  0.4121160000000  0.4925880000000  0.5583500000000 1.0
C      1  0.4689580000000  0.5508420000000  0.5681940000000 1.0
C      1  0.5556430000000  0.4052020000000  0.5018350000000 1.0
C      1  0.5786240000000  0.5585580000000  0.4595720000000 1.0
C      1  0.4313430000000  0.5129780000000  0.5390460000000 1.0
C      1  0.5110210000000  0.5232140000000  0.4484180000000 1.0
C      1  0.5110010000000  0.4972100000000  0.4951640000000 1.0
C      1  0.4367750000000  0.5678100000000  0.5537220000000 1.0
C      1  0.5854170000000  0.5128180000000  0.5851760000000 1.0
C      1  0.4492730000000  0.5147340000000  0.4079410000000 1.0
C      1  0.4538900000000  0.5662040000000  0.4268910000000 1.0
C      1  0.5126990000000  0.3957310000000  0.4827840000000 1.0
C      1  0.4674060000000  0.5350320000000  0.4288020000000 1.0
C      1  0.5895560000000  0.5021520000000  0.4500580000000 1.0
C      1  0.4712330000000  0.4123690000000  0.4622270000000 1.0
C      1  0.4489840000000  0.5203410000000  0.5039230000000 1.0
C      1  0.5223510000000  0.4543660000000  0.5925000000000 1.0
C      1  0.3992450000000  0.4814650000000  0.5306340000000 1.0
C      1  0.5392880000000  0.5512150000000  0.5655120000000 1.0
C      1  0.4819980000000  0.5986550000000  0.5473850000000 1.0
C      1  0.5326910000000  0.5760580000000  0.4884810000000 1.0
C      1  0.4802460000000  0.5821040000000  0.5708260000000 1.0
C      1  0.4675180000000  0.4424260000000  0.5137130000000 1.0
C      1  0.4455200000000  0.4260490000000  0.5200520000000 1.0
C      1  0.5521500000000  0.5790260000000  0.4378830000000 1.0
C      1  0.4607080000000  0.4429670000000  0.5528780000000 1.0
C      1  0.5132910000000  0.6022180000000  0.5356710000000 1.0
C      1  0.4263570000000  0.4481860000000  0.4448050000000 1.0
C      1  0.4255940000000  0.4935150000000  0.4841740000000 1.0
C      1  0.5544450000000  0.4808650000000  0.3947120000000 1.0
C      1  0.5648120000000  0.5991250000000  0.4845560000000 1.0
C      1  0.5090850000000  0.4412970000000  0.5572610000000 1.0
C      1  0.5530850000000  0.5046220000000  0.5923520000000 1.0
C      1  0.5655170000000  0.4901750000000  0.4828930000000 1.0
C      1  0.5402230000000  0.5447270000000  0.3945890000000 1.0
C      1  0.4996260000000  0.4591380000000  0.4776030000000 1.0
C      1  0.4751540000000  0.5631600000000  0.5031950000000 1.0
C      1  0.5253860000000  0.5828880000000  0.4566850000000 1.0
C      1  0.4977520000000  0.5629010000000  0.4565260000000 1.0
C      1  0.4535410000000  0.5258690000000  0.5836720000000 1.0
C      1  0.4968000000000  0.5629370000000  0.5937910000000 1.0
C      1  0.4423730000000  0.4673490000000  0.5470540000000 1.0
C      1  0.5372730000000  0.5099750000000  0.5270910000000 1.0
C      1  0.5592960000000  0.5759890000000  0.5074080000000 1.0
C      1  0.4473060000000  0.4275850000000  0.4461910000000 1.0
C      1  0.4690200000000  0.5352010000000  0.3890290000000 1.0
C      1  0.5325760000000  0.5628250000000  0.4156660000000 1.0
C      1  0.4701270000000  0.4633020000000  0.4615850000000 1.0
C      1  0.5667090000000  0.5163010000000  0.4293780000000 1.0
C      1  0.4397740000000  0.5451250000000  0.4577520000000 1.0
C      1  0.4915000000000  0.4537690000000  0.4388360000000 1.0
C      1  0.5734220000000  0.4346760000000  0.4705550000000 1.0
C      1  0.4459900000000  0.4008880000000  0.5024280000000 1.0
C      1  0.4735390000000  0.4592770000000  0.5958160000000 1.0
C      1  0.4847980000000  0.4882860000000  0.6065640000000 1.0
C      1  0.6046670000000  0.4897160000000  0.5019980000000 1.0
C      1  0.4562230000000  0.5979330000000  0.4990330000000 1.0
C      1  0.5432240000000  0.4610390000000  0.4563720000000 1.0
C      1  0.4942480000000  0.5394270000000  0.4082250000000 1.0
C      1  0.4116400000000  0.5230170000000  0.4407530000000 1.0
C      1  0.4086390000000  0.5210540000000  0.4734000000000 1.0
C      1  0.4953550000000  0.4489230000000  0.4019630000000 1.0
C      1  0.6015980000000  0.5437740000000  0.5277940000000 1.0
C      1  0.5739630000000  0.5281510000000  0.5183750000000 1.0
C      1  0.4160960000000  0.5211420000000  0.5126370000000 1.0
C      1  0.4198530000000  0.4871490000000  0.4505010000000 1.0
C      1  0.5632210000000  0.4589260000000  0.4155360000000 1.0
C      1  0.4073780000000  0.5464920000000  0.5270810000000 1.0
C      1  0.4882630000000  0.4352510000000  0.5343010000000 1.0
C      1  0.5118940000000  0.5588100000000  0.5657260000000 1.0
C      1  0.5709560000000  0.5833540000000  0.5342260000000 1.0
C      1  0.5395030000000  0.5214270000000  0.5587880000000 1.0
C      1  0.4812580000000  0.5992430000000  0.4553980000000 1.0
C      1  0.4250780000000  0.5218270000000  0.5702460000000 1.0
C      1  0.5833510000000  0.4702180000000  0.5568810000000 1.0
C      1  0.4616430000000  0.4909140000000  0.5030140000000 1.0
C      1  0.4388950000000  0.4700690000000  0.4980940000000 1.0
C      1  0.4657950000000  0.5617790000000  0.5360500000000 1.0
C      1  0.4071610000000  0.4611870000000  0.4698140000000 1.0
C      1  0.5266030000000  0.5264550000000  0.4992550000000 1.0
C      1  0.6003730000000  0.5097980000000  0.5273350000000 1.0
C      1  0.5638670000000  0.4977990000000  0.5136340000000 1.0
C      1  0.4704980000000  0.4043110000000  0.5523310000000 1.0
C      1  0.5938680000000  0.5006600000000  0.5560190000000 1.0
C      1  0.4875130000000  0.5306090000000  0.5870680000000 1.0
C      1  0.5719280000000  0.4423740000000  0.5664220000000 1.0
C      1  0.5318140000000  0.5456410000000  0.4451800000000 1.0
C      1  0.5603830000000  0.4951370000000  0.5603560000000 1.0
C      1  0.5022690000000  0.5658380000000  0.4232240000000 1.0
C      1  0.5992740000000  0.5703370000000  0.5345110000000 1.0
C      1  0.5368540000000  0.5028670000000  0.4391460000000 1.0
C      1  0.5745500000000  0.5882980000000  0.4606070000000 1.0
C      1  0.4702830000000  0.4313950000000  0.4273590000000 1.0
C      1  0.5322710000000  0.4577850000000  0.5444380000000 1.0
C      1  0.5562550000000  0.4049580000000  0.5302770000000 1.0
C      1  0.4671610000000  0.4950200000000  0.4588720000000 1.0
C      1  0.6005850000000  0.4612820000000  0.5066300000000 1.0
C      1  0.6031310000000  0.5004060000000  0.4742650000000 1.0
C      1  0.5012140000000  0.5204930000000  0.5407040000000 1.0
C      1  0.4596510000000  0.4906190000000  0.5565740000000 1.0
C      1  0.5565290000000  0.4671040000000  0.5141900000000 1.0
C      1  0.4892040000000  0.4114900000000  0.5743380000000 1.0
C      1  0.4969410000000  0.4375170000000  0.5948290000000 1.0
C      1  0.4417540000000  0.5119940000000  0.4529540000000 1.0
C      1  0.4849130000000  0.4607110000000  0.5647520000000 1.0
C      1  0.4844520000000  0.5917840000000  0.4862160000000 1.0
C      1  0.5502640000000  0.4528580000000  0.4878640000000 1.0
C      1  0.4169380000000  0.5475900000000  0.5540550000000 1.0
C      1  0.5292260000000  0.4014090000000  0.5392580000000 1.0
C      1  0.5806220000000  0.4679730000000  0.4683580000000 1.0
C      1  0.5270850000000  0.4859110000000  0.5803680000000 1.0
C      1  0.4992440000000  0.4219360000000  0.4163950000000 1.0
C      1  0.5632540000000  0.5461390000000  0.4346900000000 1.0
C      1  0.4208570000000  0.4150490000000  0.4907800000000 1.0
C      1  0.4404340000000  0.4175590000000  0.5523550000000 1.0
C      1  0.4168860000000  0.5696330000000  0.5114160000000 1.0
C      1  0.4193930000000  0.4573560000000  0.5226380000000 1.0
C      1  0.5090390000000  0.4075310000000  0.5145140000000 1.0
C      1  0.5211360000000  0.5439020000000  0.6066490000000 1.0
C      1  0.5230430000000  0.4874780000000  0.5463650000000 1.0
C      1  0.4157610000000  0.4378550000000  0.5505610000000 1.0
C      1  0.4685110000000  0.5623390000000  0.4638300000000 1.0
C      1  0.5142040000000  0.5165310000000  0.4092320000000 1.0
C      1  0.5401820000000  0.4234560000000  0.4897140000000 1.0
C      1  0.4784500000000  0.4647220000000  0.5005730000000 1.0
C      1  0.5803040000000  0.4542370000000  0.5293630000000 1.0
C      1  0.5303650000000  0.4018290000000  0.4579950000000 1.0
C      1  0.5481030000000  0.4348040000000  0.4267250000000 1.0
C      1  0.5550310000000  0.5729120000000  0.5603000000000 1.0
C      1  0.4907380000000  0.4887410000000  0.5486160000000 1.0
C      1  0.4971290000000  0.4971450000000  0.4325960000000 1.0
C      1  0.5093430000000  0.5140350000000  0.5729180000000 1.0
C      1  0.4881610000000  0.5075620000000  0.5135230000000 1.0
C      1  0.4977540000000  0.5510130000000  0.5405440000000 1.0
C      1  0.5188620000000  0.4115890000000  0.5634210000000 1.0
C      1  0.5000010000000  0.4893800000000  0.4657180000000 1.0
C      1  0.4996970000000  0.5760010000000  0.5196080000000 1.0
C      1  0.4595380000000  0.6015570000000  0.5285870000000 1.0
C      1  0.5535030000000  0.4186140000000  0.4502740000000 1.0
C      1  0.5448750000000  0.4478570000000  0.5730040000000 1.0
C      1  0.5621470000000  0.5372990000000  0.4735750000000 1.0
C      1  0.4436410000000  0.5760150000000  0.4824470000000 1.0
C      1  0.5738200000000  0.4236880000000  0.5422760000000 1.0
C      1  0.5016060000000  0.4165590000000  0.4486110000000 1.0
C      1  0.4192810000000  0.4641870000000  0.5717120000000 1.0
C      1  0.4759930000000  0.4002750000000  0.5194480000000 1.0
C      1  0.5420030000000  0.5982850000000  0.5451850000000 1.0
C      1  0.4794490000000  0.4773370000000  0.4112640000000 1.0
C      1  0.5216220000000  0.4548250000000  0.4314390000000 1.0
C      1  0.4583570000000  0.4952270000000  0.5885860000000 1.0
C      1  0.5088970000000  0.6045330000000  0.5027370000000 1.0
C      1  0.4624560000000  0.5144210000000  0.5348920000000 1.0
C      1  0.4409610000000  0.4670650000000  0.5937450000000 1.0
C      1  0.4324980000000  0.4713120000000  0.4259290000000 1.0
C      1  0.3950100000000  0.5002850000000  0.5088660000000 1.0
C      1  0.4511420000000  0.4856040000000  0.4106890000000 1.0
C      1  0.3922220000000  0.4908630000000  0.4786180000000 1.0
C      1  0.5352530000000  0.6103450000000  0.4864210000000 1.0
C      1  0.5551100000000  0.5449600000000  0.5025450000000 1.0
C      1  0.4769600000000  0.5855280000000  0.4312720000000 1.0
C      1  0.6015930000000  0.4406930000000  0.4877360000000 1.0
C      1  0.4229640000000  0.5517460000000  0.4292840000000 1.0
C      1  0.5299920000000  0.4808840000000  0.4173920000000 1.0
C      1  0.5542860000000  0.5106620000000  0.4667430000000 1.0
C      1  0.4102300000000  0.4406120000000  0.4943150000000 1.0
C      1  0.5284520000000  0.5176370000000  0.6078260000000 1.0
C      1  0.4405990000000  0.5471840000000  0.4018680000000 1.0
C      1  0.5232590000000  0.4724730000000  0.5087680000000 1.0
C      1  0.5474060000000  0.5133180000000  0.4021600000000 1.0
C      1  0.4793210000000  0.5246520000000  0.4576460000000 1.0
C      1  0.5212130000000  0.5490280000000  0.4771530000000 1.0
C      1  0.4663460000000  0.5377300000000  0.4865190000000 1.0
C      1  0.4484630000000  0.4520710000000  0.4776270000000 1.0
C      1  0.5074880000000  0.4997030000000  0.6132810000000 1.0
END
