TITL C-2778433-5640-768 0.000990856280633307 125000 -1043.35209390267 0 0 177 (C1) n - 1
REM
REM in /home/nfs/bkarasulu/CARBON/AIRSS/Generating-Clusters/REBO/Only-C1/SD-CG/HFTN-CG
REM
REM
REM
REM
REM
REM ./C.cell (11c1c37f851c82e70ff6c80c92926a4b)
REM
REM compiler GCC version 9.2.1 20190827 (Red Hat 9.2.1-1)
REM options -cpp -mtune=generic -march=x86-64 -g -O0 -fpre-include=/usr/include/finclude/math-vector-fortran.h
REM seed 1856080057 420428894 -1279882742 1303307817 -2141768512 1302461423 -215369726 1462024852 -579152030 -775987927 -844882077 -424540190 906957421 -428712707 -1868720620 -544686686 -1889880751 1048474837 -1563941299 -1581753508 -1812060784 1364738221 -721456232 658445583 -434126693 -624237843 2135523681 -633467532 -719642326 1614244297 -357615796 -1946632601 -42705645
REM
CELL 1.54180   50.00000   50.00000   50.00000   90.00000   90.00000   90.00000
LATT -1
SFAC C  
C      1  0.5385660000000  0.3984360000000  0.5319020000000 1.0
C      1  0.5191480000000  0.5271620000000  0.5733200000000 1.0
C      1  0.5932330000000  0.5646310000000  0.4908100000000 1.0
C      1  0.4516060000000  0.5209670000000  0.4514100000000 1.0
C      1  0.5766210000000  0.5333450000000  0.4322370000000 1.0
C      1  0.3944460000000  0.4770040000000  0.5149980000000 1.0
C      1  0.4908950000000  0.3988470000000  0.5127820000000 1.0
C      1  0.5062770000000  0.5548910000000  0.5350840000000 1.0
C      1  0.5228000000000  0.4234980000000  0.4323610000000 1.0
C      1  0.4601160000000  0.4758360000000  0.5581470000000 1.0
C      1  0.4856120000000  0.5926510000000  0.4671140000000 1.0
C      1  0.5497830000000  0.5235170000000  0.5046110000000 1.0
C      1  0.5936020000000  0.5085740000000  0.5303390000000 1.0
C      1  0.4195240000000  0.4597600000000  0.4742190000000 1.0
C      1  0.4101080000000  0.4914040000000  0.5532250000000 1.0
C      1  0.4486760000000  0.4828130000000  0.4348840000000 1.0
C      1  0.5118060000000  0.5672290000000  0.4306770000000 1.0
C      1  0.5349100000000  0.5969840000000  0.4693130000000 1.0
C      1  0.4203830000000  0.4651950000000  0.5136240000000 1.0
C      1  0.4378610000000  0.5447440000000  0.4901660000000 1.0
C      1  0.4174460000000  0.4855000000000  0.4430240000000 1.0
C      1  0.4149010000000  0.5562480000000  0.5553060000000 1.0
C      1  0.4910840000000  0.4628860000000  0.5274710000000 1.0
C      1  0.5384160000000  0.4014460000000  0.5037370000000 1.0
C      1  0.5480650000000  0.5217200000000  0.5463250000000 1.0
C      1  0.4988250000000  0.4834780000000  0.5510740000000 1.0
C      1  0.5767400000000  0.4512340000000  0.4330660000000 1.0
C      1  0.5314890000000  0.5588490000000  0.5782460000000 1.0
C      1  0.5766460000000  0.4381700000000  0.5587260000000 1.0
C      1  0.4572120000000  0.4249370000000  0.5658000000000 1.0
C      1  0.4174710000000  0.4349750000000  0.4972820000000 1.0
C      1  0.4944920000000  0.4934330000000  0.6111760000000 1.0
C      1  0.5138940000000  0.4730970000000  0.4842480000000 1.0
C      1  0.4781270000000  0.5274500000000  0.5416090000000 1.0
C      1  0.4093460000000  0.5387960000000  0.5082950000000 1.0
C      1  0.4620530000000  0.4472090000000  0.3863560000000 1.0
C      1  0.4611380000000  0.4622690000000  0.5208630000000 1.0
C      1  0.5247150000000  0.4831610000000  0.5995210000000 1.0
C      1  0.5951090000000  0.4670400000000  0.5029480000000 1.0
C      1  0.4515570000000  0.5753320000000  0.5161750000000 1.0
C      1  0.5021940000000  0.5093170000000  0.3984940000000 1.0
C      1  0.5540530000000  0.4776170000000  0.5269010000000 1.0
C      1  0.4523470000000  0.4727130000000  0.3832120000000 1.0
C      1  0.4838510000000  0.4198000000000  0.5856330000000 1.0
C      1  0.5391720000000  0.4574540000000  0.5909480000000 1.0
C      1  0.4503060000000  0.4148140000000  0.5379820000000 1.0
C      1  0.5984820000000  0.4879050000000  0.4583740000000 1.0
C      1  0.5082020000000  0.5235530000000  0.4655370000000 1.0
C      1  0.4745630000000  0.5263600000000  0.4314100000000 1.0
C      1  0.4473800000000  0.5492360000000  0.4133880000000 1.0
C      1  0.5403690000000  0.5085010000000  0.5889900000000 1.0
C      1  0.4885430000000  0.5333730000000  0.4061080000000 1.0
C      1  0.5691800000000  0.5078780000000  0.5771530000000 1.0
C      1  0.4758090000000  0.5111690000000  0.5938410000000 1.0
C      1  0.4675770000000  0.5042070000000  0.4887970000000 1.0
C      1  0.4485680000000  0.5939270000000  0.5413820000000 1.0
C      1  0.4642430000000  0.4548940000000  0.4355740000000 1.0
C      1  0.5768760000000  0.4940480000000  0.3884450000000 1.0
C      1  0.5383130000000  0.4255250000000  0.4621760000000 1.0
C      1  0.4987390000000  0.4623290000000  0.4039810000000 1.0
C      1  0.4744700000000  0.5038500000000  0.5633850000000 1.0
C      1  0.5485740000000  0.4350420000000  0.5595600000000 1.0
C      1  0.5370980000000  0.5443290000000  0.6057860000000 1.0
C      1  0.5565320000000  0.5046400000000  0.4557800000000 1.0
C      1  0.4370380000000  0.4487700000000  0.5762850000000 1.0
C      1  0.5021650000000  0.4683080000000  0.5810230000000 1.0
C      1  0.5575930000000  0.5383150000000  0.4053330000000 1.0
C      1  0.4403270000000  0.5827240000000  0.4848650000000 1.0
C      1  0.3998930000000  0.5136730000000  0.5292730000000 1.0
C      1  0.5076100000000  0.4114900000000  0.4669350000000 1.0
C      1  0.5208060000000  0.5928170000000  0.5000270000000 1.0
C      1  0.4667120000000  0.5613120000000  0.4820530000000 1.0
C      1  0.5059010000000  0.5760820000000  0.5922370000000 1.0
C      1  0.4600820000000  0.5840840000000  0.5643940000000 1.0
C      1  0.4173820000000  0.5165430000000  0.4312870000000 1.0
C      1  0.5565990000000  0.4269060000000  0.4903800000000 1.0
C      1  0.4357670000000  0.4923080000000  0.5755440000000 1.0
C      1  0.4736280000000  0.4681850000000  0.6087430000000 1.0
C      1  0.5681390000000  0.5258830000000  0.4777670000000 1.0
C      1  0.5310110000000  0.5526520000000  0.3895970000000 1.0
C      1  0.4474560000000  0.4087250000000  0.4300270000000 1.0
C      1  0.5939710000000  0.4933060000000  0.4099250000000 1.0
C      1  0.4959420000000  0.5502070000000  0.4747080000000 1.0
C      1  0.5317130000000  0.5396740000000  0.4273820000000 1.0
C      1  0.5162520000000  0.5197890000000  0.6121330000000 1.0
C      1  0.4819400000000  0.5594240000000  0.5178330000000 1.0
C      1  0.5298840000000  0.5102880000000  0.4101000000000 1.0
C      1  0.5224590000000  0.5504920000000  0.4936680000000 1.0
C      1  0.4501770000000  0.4561530000000  0.4889740000000 1.0
C      1  0.4383520000000  0.5217490000000  0.4124730000000 1.0
C      1  0.5729460000000  0.5549950000000  0.4507980000000 1.0
C      1  0.4037310000000  0.5276830000000  0.4785590000000 1.0
C      1  0.4372740000000  0.4110240000000  0.4863190000000 1.0
C      1  0.4896320000000  0.5089230000000  0.4505020000000 1.0
C      1  0.4456570000000  0.4907410000000  0.5320110000000 1.0
C      1  0.5479200000000  0.5519110000000  0.4732060000000 1.0
C      1  0.5704040000000  0.4981720000000  0.5073930000000 1.0
C      1  0.4089840000000  0.4885940000000  0.4755160000000 1.0
C      1  0.5889590000000  0.4589310000000  0.4573060000000 1.0
C      1  0.5827700000000  0.4478750000000  0.4843820000000 1.0
C      1  0.5637840000000  0.4830710000000  0.4774390000000 1.0
C      1  0.4335600000000  0.5111940000000  0.4689560000000 1.0
C      1  0.4090680000000  0.5245570000000  0.5596870000000 1.0
C      1  0.5149480000000  0.5986680000000  0.5486880000000 1.0
C      1  0.5909250000000  0.5064970000000  0.4355000000000 1.0
C      1  0.4859580000000  0.4870010000000  0.3993160000000 1.0
C      1  0.5932230000000  0.5717650000000  0.4624960000000 1.0
C      1  0.5750180000000  0.5604840000000  0.5471520000000 1.0
C      1  0.4391730000000  0.4351750000000  0.4360080000000 1.0
C      1  0.5366540000000  0.4922090000000  0.4339120000000 1.0
C      1  0.3917220000000  0.5034870000000  0.4990490000000 1.0
C      1  0.6066440000000  0.5141690000000  0.5020550000000 1.0
C      1  0.4175810000000  0.4601830000000  0.5602530000000 1.0
C      1  0.4174140000000  0.4512990000000  0.4441730000000 1.0
C      1  0.4895870000000  0.4436580000000  0.6009690000000 1.0
C      1  0.5692500000000  0.5738060000000  0.5038280000000 1.0
C      1  0.5818470000000  0.4833590000000  0.5764480000000 1.0
C      1  0.5550140000000  0.5099100000000  0.3892260000000 1.0
C      1  0.4114250000000  0.5384120000000  0.4501470000000 1.0
C      1  0.4557900000000  0.5611440000000  0.4372890000000 1.0
C      1  0.5285000000000  0.5894980000000  0.4447230000000 1.0
C      1  0.5019950000000  0.4480110000000  0.4992180000000 1.0
C      1  0.4776130000000  0.4521870000000  0.5637160000000 1.0
C      1  0.4870700000000  0.4579070000000  0.4563240000000 1.0
C      1  0.5876380000000  0.4643720000000  0.5558370000000 1.0
C      1  0.5361790000000  0.5512550000000  0.5466870000000 1.0
C      1  0.5355670000000  0.5287990000000  0.4549610000000 1.0
C      1  0.4486700000000  0.4684200000000  0.5956420000000 1.0
C      1  0.5416650000000  0.4940130000000  0.5517770000000 1.0
C      1  0.4850020000000  0.5672600000000  0.4471040000000 1.0
C      1  0.5947100000000  0.5355530000000  0.4891940000000 1.0
C      1  0.4909310000000  0.5834550000000  0.4958550000000 1.0
C      1  0.5298250000000  0.4156120000000  0.5524280000000 1.0
C      1  0.4600490000000  0.4280000000000  0.4816690000000 1.0
C      1  0.5060820000000  0.5563710000000  0.4020020000000 1.0
C      1  0.6054700000000  0.4900360000000  0.4868810000000 1.0
C      1  0.4960360000000  0.4942300000000  0.4892790000000 1.0
C      1  0.5145100000000  0.4493340000000  0.4233530000000 1.0
C      1  0.4987400000000  0.5436910000000  0.5952560000000 1.0
C      1  0.5937530000000  0.4754960000000  0.5306390000000 1.0
C      1  0.4707000000000  0.4862310000000  0.4595070000000 1.0
C      1  0.5346340000000  0.4636160000000  0.5586080000000 1.0
C      1  0.4720980000000  0.5281550000000  0.5080750000000 1.0
C      1  0.5085660000000  0.5158300000000  0.5470160000000 1.0
C      1  0.4447930000000  0.5198130000000  0.5849240000000 1.0
C      1  0.4726990000000  0.5736430000000  0.5909240000000 1.0
C      1  0.4724890000000  0.5542820000000  0.5562400000000 1.0
C      1  0.5543740000000  0.5955080000000  0.4941270000000 1.0
C      1  0.4462180000000  0.5424090000000  0.5228840000000 1.0
C      1  0.5793530000000  0.5269440000000  0.5508380000000 1.0
C      1  0.4339350000000  0.5602340000000  0.4597600000000 1.0
C      1  0.4441030000000  0.5431890000000  0.5629340000000 1.0
C      1  0.5492670000000  0.4566640000000  0.4615940000000 1.0
C      1  0.5511880000000  0.4633320000000  0.4278750000000 1.0
C      1  0.5125410000000  0.3960360000000  0.4926140000000 1.0
C      1  0.4414060000000  0.4878190000000  0.4983820000000 1.0
C      1  0.4700380000000  0.4354010000000  0.4106890000000 1.0
C      1  0.4763330000000  0.4068500000000  0.4208250000000 1.0
C      1  0.4548640000000  0.4952580000000  0.4067470000000 1.0
C      1  0.4981440000000  0.4256900000000  0.5560010000000 1.0
C      1  0.4987460000000  0.5746920000000  0.5606220000000 1.0
C      1  0.5024200000000  0.4248220000000  0.5240880000000 1.0
C      1  0.4079790000000  0.5631270000000  0.5289590000000 1.0
C      1  0.5222180000000  0.4499700000000  0.5334970000000 1.0
C      1  0.5347620000000  0.5935150000000  0.5301530000000 1.0
C      1  0.4659470000000  0.5429550000000  0.5983390000000 1.0
C      1  0.5186040000000  0.4684350000000  0.4504060000000 1.0
C      1  0.5468580000000  0.4474490000000  0.5128260000000 1.0
C      1  0.4389800000000  0.4379230000000  0.5227640000000 1.0
C      1  0.5003370000000  0.4031550000000  0.4352110000000 1.0
C      1  0.5196450000000  0.5276800000000  0.5190140000000 1.0
C      1  0.4375210000000  0.5179800000000  0.5414000000000 1.0
C      1  0.4647750000000  0.3960290000000  0.5237940000000 1.0
C      1  0.5404030000000  0.4744290000000  0.4965110000000 1.0
C      1  0.5488690000000  0.5543370000000  0.5158310000000 1.0
C      1  0.4887010000000  0.4341060000000  0.4752150000000 1.0
C      1  0.5596880000000  0.5830370000000  0.5414070000000 1.0
END
