TITL C-2778431-5191-978 0.00300937647410116 125000 -720.108765908188 0 0 124 (C1) n - 1
REM
REM in /home/nfs/bkarasulu/CARBON/AIRSS/Generating-Clusters/REBO/Only-C1/SD-CG/HFTN-CG
REM
REM
REM
REM
REM
REM ./C.cell (11c1c37f851c82e70ff6c80c92926a4b)
REM
REM compiler GCC version 9.2.1 20190827 (Red Hat 9.2.1-1)
REM options -cpp -mtune=generic -march=x86-64 -g -O0 -fpre-include=/usr/include/finclude/math-vector-fortran.h
REM seed -81304816 -2010937989 1874167144 1603280999 -1297569881 -1974109327 -885222231 847613311 -216665744 718464898 209832464 -1966893698 138190540 -1566743107 -257471548 1627550605 368371559 1159564939 99475567 1995296515 370508326 754705040 803575209 159302277 1580991860 -74341883 249913721 -1292297500 362703919 -1927027267 -1067007652 -230881818 -519964988
REM
CELL 1.54180   50.00000   50.00000   50.00000   90.00000   90.00000   90.00000
LATT -1
SFAC C  
C      1  0.5085940000000  0.4023800000000  0.4831860000000 1.0
C      1  0.5462310000000  0.4493090000000  0.5547630000000 1.0
C      1  0.4256650000000  0.4989750000000  0.4350960000000 1.0
C      1  0.4529230000000  0.4323910000000  0.4714560000000 1.0
C      1  0.4560970000000  0.5841460000000  0.4921890000000 1.0
C      1  0.5141820000000  0.4516620000000  0.5432640000000 1.0
C      1  0.4729100000000  0.5046740000000  0.4242060000000 1.0
C      1  0.4390080000000  0.5655700000000  0.5155630000000 1.0
C      1  0.5570840000000  0.4929520000000  0.5384180000000 1.0
C      1  0.4630940000000  0.4730130000000  0.4661020000000 1.0
C      1  0.4875130000000  0.5859230000000  0.5478270000000 1.0
C      1  0.5449370000000  0.4340500000000  0.4451660000000 1.0
C      1  0.5679400000000  0.4500900000000  0.4518290000000 1.0
C      1  0.5234110000000  0.5030700000000  0.5781880000000 1.0
C      1  0.4866530000000  0.4958460000000  0.5009650000000 1.0
C      1  0.4455990000000  0.5287410000000  0.5596620000000 1.0
C      1  0.5360550000000  0.5322080000000  0.5083960000000 1.0
C      1  0.5849760000000  0.4862720000000  0.5035270000000 1.0
C      1  0.5324960000000  0.5596610000000  0.4333910000000 1.0
C      1  0.5628470000000  0.4811230000000  0.4538680000000 1.0
C      1  0.4932560000000  0.5607740000000  0.4976210000000 1.0
C      1  0.5432370000000  0.4945730000000  0.4321710000000 1.0
C      1  0.5454820000000  0.4908880000000  0.5002290000000 1.0
C      1  0.5631260000000  0.5142220000000  0.5132250000000 1.0
C      1  0.4217130000000  0.5458880000000  0.4936360000000 1.0
C      1  0.5240840000000  0.5788090000000  0.4560730000000 1.0
C      1  0.5432740000000  0.5616750000000  0.5649190000000 1.0
C      1  0.5256270000000  0.4907470000000  0.5255150000000 1.0
C      1  0.4648680000000  0.5525370000000  0.5745300000000 1.0
C      1  0.5620600000000  0.4637840000000  0.4944780000000 1.0
C      1  0.4908040000000  0.5311430000000  0.5309120000000 1.0
C      1  0.5163960000000  0.5412530000000  0.5599210000000 1.0
C      1  0.4771140000000  0.4494790000000  0.4087390000000 1.0
C      1  0.4548780000000  0.5040200000000  0.5423790000000 1.0
C      1  0.4839060000000  0.5951470000000  0.4796370000000 1.0
C      1  0.5391440000000  0.4144510000000  0.4724340000000 1.0
C      1  0.5358410000000  0.4835730000000  0.4717840000000 1.0
C      1  0.5657900000000  0.5196000000000  0.5526400000000 1.0
C      1  0.4726240000000  0.4512440000000  0.5698220000000 1.0
C      1  0.5326650000000  0.4694690000000  0.4137230000000 1.0
C      1  0.4767590000000  0.5467890000000  0.4771700000000 1.0
C      1  0.4548200000000  0.4718070000000  0.4983170000000 1.0
C      1  0.5084740000000  0.5436910000000  0.4341890000000 1.0
C      1  0.5220320000000  0.4196120000000  0.5080100000000 1.0
C      1  0.4663980000000  0.4442230000000  0.4935980000000 1.0
C      1  0.5240320000000  0.4698770000000  0.5703180000000 1.0
C      1  0.4767390000000  0.5784610000000  0.5170680000000 1.0
C      1  0.4098070000000  0.5108600000000  0.5360770000000 1.0
C      1  0.5124560000000  0.4999160000000  0.4588280000000 1.0
C      1  0.5199600000000  0.5005000000000  0.4078090000000 1.0
C      1  0.4702190000000  0.5442270000000  0.4236020000000 1.0
C      1  0.5887170000000  0.4589440000000  0.5235150000000 1.0
C      1  0.5680400000000  0.5663200000000  0.5477470000000 1.0
C      1  0.5119790000000  0.4328430000000  0.4676160000000 1.0
C      1  0.5121300000000  0.4622170000000  0.4788690000000 1.0
C      1  0.4094170000000  0.4791590000000  0.5257170000000 1.0
C      1  0.4940300000000  0.4733310000000  0.5853290000000 1.0
C      1  0.4619980000000  0.5032710000000  0.4560410000000 1.0
C      1  0.5433490000000  0.4249560000000  0.5329970000000 1.0
C      1  0.4335520000000  0.4926300000000  0.4871290000000 1.0
C      1  0.4916570000000  0.4304580000000  0.5059130000000 1.0
C      1  0.4250900000000  0.4844130000000  0.4617940000000 1.0
C      1  0.5179590000000  0.5801300000000  0.5516740000000 1.0
C      1  0.5258400000000  0.5544130000000  0.5297610000000 1.0
C      1  0.5767170000000  0.5619550000000  0.4832850000000 1.0
C      1  0.5118720000000  0.5177170000000  0.5228860000000 1.0
C      1  0.5211400000000  0.5620650000000  0.4856560000000 1.0
C      1  0.4877260000000  0.5031190000000  0.4753210000000 1.0
C      1  0.4465050000000  0.5229260000000  0.4328900000000 1.0
C      1  0.5559160000000  0.4183620000000  0.5017780000000 1.0
C      1  0.4442460000000  0.4740810000000  0.5665830000000 1.0
C      1  0.5437810000000  0.5279680000000  0.5723740000000 1.0
C      1  0.4531520000000  0.4620530000000  0.4062310000000 1.0
C      1  0.5481130000000  0.5798140000000  0.4793080000000 1.0
C      1  0.5772690000000  0.5282500000000  0.4786950000000 1.0
C      1  0.4378240000000  0.4539340000000  0.4538310000000 1.0
C      1  0.4894440000000  0.4167960000000  0.4479970000000 1.0
C      1  0.4175480000000  0.4342120000000  0.5370260000000 1.0
C      1  0.3973100000000  0.5324090000000  0.5131230000000 1.0
C      1  0.4348900000000  0.4708030000000  0.4257470000000 1.0
C      1  0.4762650000000  0.5485040000000  0.5434460000000 1.0
C      1  0.4507540000000  0.4282190000000  0.5324640000000 1.0
C      1  0.4960310000000  0.4435230000000  0.4326170000000 1.0
C      1  0.5013030000000  0.4996550000000  0.5564270000000 1.0
C      1  0.5002150000000  0.4895220000000  0.4318400000000 1.0
C      1  0.5173840000000  0.5852690000000  0.5180170000000 1.0
C      1  0.4554380000000  0.5752020000000  0.5432390000000 1.0
C      1  0.4682120000000  0.4107960000000  0.5152540000000 1.0
C      1  0.4635460000000  0.4593100000000  0.5352780000000 1.0
C      1  0.4384340000000  0.4424000000000  0.5611160000000 1.0
C      1  0.4640850000000  0.5214300000000  0.5876600000000 1.0
C      1  0.4783460000000  0.3967900000000  0.4891080000000 1.0
C      1  0.4915710000000  0.4363320000000  0.5518290000000 1.0
C      1  0.5689310000000  0.5883100000000  0.5032250000000 1.0
C      1  0.5776310000000  0.5015540000000  0.4758430000000 1.0
C      1  0.4482690000000  0.5560290000000  0.4780650000000 1.0
C      1  0.5767280000000  0.4423720000000  0.4776560000000 1.0
C      1  0.5856200000000  0.4341870000000  0.5069260000000 1.0
C      1  0.4964180000000  0.5245060000000  0.4128930000000 1.0
C      1  0.5439090000000  0.5183230000000  0.4537050000000 1.0
C      1  0.4935610000000  0.5060640000000  0.5949920000000 1.0
C      1  0.4924090000000  0.5837840000000  0.4550360000000 1.0
C      1  0.5054980000000  0.5988380000000  0.4983830000000 1.0
C      1  0.4007970000000  0.4535680000000  0.5277740000000 1.0
C      1  0.4766860000000  0.5676860000000  0.4370130000000 1.0
C      1  0.5867620000000  0.5415190000000  0.5085730000000 1.0
C      1  0.4672800000000  0.4088440000000  0.4642000000000 1.0
C      1  0.5539190000000  0.5428640000000  0.4389340000000 1.0
C      1  0.5706410000000  0.5879820000000  0.5299420000000 1.0
C      1  0.5277980000000  0.5311350000000  0.4780890000000 1.0
C      1  0.5779150000000  0.5413690000000  0.5385670000000 1.0
C      1  0.4401160000000  0.4817800000000  0.5250510000000 1.0
C      1  0.4219890000000  0.4915290000000  0.5612820000000 1.0
C      1  0.5423590000000  0.4531940000000  0.5152770000000 1.0
C      1  0.5002460000000  0.5382890000000  0.4612120000000 1.0
C      1  0.4735040000000  0.4905170000000  0.5643170000000 1.0
C      1  0.4939510000000  0.5348660000000  0.5766060000000 1.0
C      1  0.5124260000000  0.4637060000000  0.5114830000000 1.0
C      1  0.4913700000000  0.4661620000000  0.4549800000000 1.0
C      1  0.5690720000000  0.4662060000000  0.5438580000000 1.0
C      1  0.5261540000000  0.4452370000000  0.4268880000000 1.0
C      1  0.4332310000000  0.5351300000000  0.5300060000000 1.0
C      1  0.4794630000000  0.4876460000000  0.5252290000000 1.0
C      1  0.4307510000000  0.5150100000000  0.5024320000000 1.0
END
