TITL C-2778432-5617-213 164.775220874126 125000 -1068.12118109395 0 0 182 (C1) n - 1
REM
REM in /home/nfs/bkarasulu/CARBON/AIRSS/Generating-Clusters/REBO/Only-C1/SD-CG/HFTN-CG
REM
REM
REM
REM
REM
REM ./C.cell (11c1c37f851c82e70ff6c80c92926a4b)
REM
REM compiler GCC version 9.2.1 20190827 (Red Hat 9.2.1-1)
REM options -cpp -mtune=generic -march=x86-64 -g -O0 -fpre-include=/usr/include/finclude/math-vector-fortran.h
REM seed 1683919507 -51839189 -1292980157 -1311918954 1669268180 906177828 361335179 501766618 635129853 1131353351 1694859603 -889701884 1089336165 -2018998704 -739877830 552978410 -1513041400 549619348 -1197386873 -1045322761 -447187517 792927083 -901779756 -1783322216 702071520 1409587492 1876992132 2049986938 -224341348 -200459631 -1568306499 -1532932063 -629594613
REM
CELL 1.54180   50.00000   50.00000   50.00000   90.00000   90.00000   90.00000
LATT -1
SFAC C  
C      1  0.4932890000000  0.4658950000000  0.5124390000000 1.0
C      1  0.5662870000000  0.4102340000000  0.4565440000000 1.0
C      1  0.5179840000000  0.4608230000000  0.5625790000000 1.0
C      1  0.5338030000000  0.5884090000000  0.4924770000000 1.0
C      1  0.4312420000000  0.4968540000000  0.4753910000000 1.0
C      1  0.5245050000000  0.3926840000000  0.5138000000000 1.0
C      1  0.5561620000000  0.4604960000000  0.6051370000000 1.0
C      1  0.5677100000000  0.5010700000000  0.5715080000000 1.0
C      1  0.5139620000000  0.5752280000000  0.3970570000000 1.0
C      1  0.4228470000000  0.5547930000000  0.5398970000000 1.0
C      1  0.5926460000000  0.4845160000000  0.5710590000000 1.0
C      1  0.4797610000000  0.5565880000000  0.3901650000000 1.0
C      1  0.5791730000000  0.4304050000000  0.4916530000000 1.0
C      1  0.5495380000000  0.5799260000000  0.4407880000000 1.0
C      1  0.5021170000000  0.4506350000000  0.4445410000000 1.0
C      1  0.4930850000000  0.5544620000000  0.5781660000000 1.0
C      1  0.5426350000000  0.4130270000000  0.4701000000000 1.0
C      1  0.5240100000000  0.5427780000000  0.4644640000000 1.0
C      1  0.4391140000000  0.5255960000000  0.4231960000000 1.0
C      1  0.4676140000000  0.4227990000000  0.5898740000000 1.0
C      1  0.5496920000000  0.5612610000000  0.5386150000000 1.0
C      1  0.5067930000000  0.5451890000000  0.6172470000000 1.0
C      1  0.3876990000000  0.5424260000000  0.4348900000000 1.0
C      1  0.4284560000000  0.5693390000000  0.4480960000000 1.0
C      1  0.4612980000000  0.5137660000000  0.5918700000000 1.0
C      1  0.4762870000000  0.4493840000000  0.5976750000000 1.0
C      1  0.4241660000000  0.5505020000000  0.5699140000000 1.0
C      1  0.4693570000000  0.4120730000000  0.4482480000000 1.0
C      1  0.5078940000000  0.4941070000000  0.5980940000000 1.0
C      1  0.6005990000000  0.5507700000000  0.4779710000000 1.0
C      1  0.5196310000000  0.5259960000000  0.6017790000000 1.0
C      1  0.4057090000000  0.4908700000000  0.4451980000000 1.0
C      1  0.5041650000000  0.4633640000000  0.5938550000000 1.0
C      1  0.4772140000000  0.4028500000000  0.5284530000000 1.0
C      1  0.4320240000000  0.5294610000000  0.4765170000000 1.0
C      1  0.4362120000000  0.5256730000000  0.5867330000000 1.0
C      1  0.4855460000000  0.4721300000000  0.3977450000000 1.0
C      1  0.4491400000000  0.5542100000000  0.4305670000000 1.0
C      1  0.5904290000000  0.5215570000000  0.4419050000000 1.0
C      1  0.5479900000000  0.4866790000000  0.5577490000000 1.0
C      1  0.5610630000000  0.5828710000000  0.4726630000000 1.0
C      1  0.5828270000000  0.5230700000000  0.5254470000000 1.0
C      1  0.6099760000000  0.4684820000000  0.4885050000000 1.0
C      1  0.5164020000000  0.4591650000000  0.4699180000000 1.0
C      1  0.5336890000000  0.4908630000000  0.5081460000000 1.0
C      1  0.4868990000000  0.5941590000000  0.5359750000000 1.0
C      1  0.5834240000000  0.5642330000000  0.4556600000000 1.0
C      1  0.5543830000000  0.4837840000000  0.6213810000000 1.0
C      1  0.4619570000000  0.4829540000000  0.5816000000000 1.0
C      1  0.4019890000000  0.5501300000000  0.4927790000000 1.0
C      1  0.5159820000000  0.4597300000000  0.4062670000000 1.0
C      1  0.5857260000000  0.4716710000000  0.5123760000000 1.0
C      1  0.6066460000000  0.5035230000000  0.5236650000000 1.0
C      1  0.4240180000000  0.4510080000000  0.5230690000000 1.0
C      1  0.5960580000000  0.5538210000000  0.5319400000000 1.0
C      1  0.4347700000000  0.5179300000000  0.5088290000000 1.0
C      1  0.5551020000000  0.4277300000000  0.5432130000000 1.0
C      1  0.4771090000000  0.4968870000000  0.5571370000000 1.0
C      1  0.3997540000000  0.5485590000000  0.5247050000000 1.0
C      1  0.4824570000000  0.5320180000000  0.5883810000000 1.0
C      1  0.5023810000000  0.5047170000000  0.5103360000000 1.0
C      1  0.5797470000000  0.5469330000000  0.4347910000000 1.0
C      1  0.4401630000000  0.4750700000000  0.4578750000000 1.0
C      1  0.4864830000000  0.5899160000000  0.4319810000000 1.0
C      1  0.5058830000000  0.3925830000000  0.4922080000000 1.0
C      1  0.5450350000000  0.4700100000000  0.4604410000000 1.0
C      1  0.5230300000000  0.5500090000000  0.5521190000000 1.0
C      1  0.5536780000000  0.5524730000000  0.4195050000000 1.0
C      1  0.5814330000000  0.4847760000000  0.4544150000000 1.0
C      1  0.4785950000000  0.5526280000000  0.4440490000000 1.0
C      1  0.5052930000000  0.4907610000000  0.3772370000000 1.0
C      1  0.5265190000000  0.4158930000000  0.5566870000000 1.0
C      1  0.4710450000000  0.4986510000000  0.5176810000000 1.0
C      1  0.4028180000000  0.4833220000000  0.5083400000000 1.0
C      1  0.5470760000000  0.4309520000000  0.4957450000000 1.0
C      1  0.4026540000000  0.5075160000000  0.5482300000000 1.0
C      1  0.3592070000000  0.5210650000000  0.5294930000000 1.0
C      1  0.4329220000000  0.5765080000000  0.5078990000000 1.0
C      1  0.4484220000000  0.5846190000000  0.5339920000000 1.0
C      1  0.4056720000000  0.5395460000000  0.4614800000000 1.0
C      1  0.5314830000000  0.4463000000000  0.6024340000000 1.0
C      1  0.5282330000000  0.5560700000000  0.4391860000000 1.0
C      1  0.4715100000000  0.5209350000000  0.4129730000000 1.0
C      1  0.5191840000000  0.5953990000000  0.4408190000000 1.0
C      1  0.5251070000000  0.5009480000000  0.5519750000000 1.0
C      1  0.3976710000000  0.4941180000000  0.4762580000000 1.0
C      1  0.5599610000000  0.4481190000000  0.4457240000000 1.0
C      1  0.4464540000000  0.4867870000000  0.5024270000000 1.0
C      1  0.5003960000000  0.5921880000000  0.4692970000000 1.0
C      1  0.4721670000000  0.4429240000000  0.4420460000000 1.0
C      1  0.4498970000000  0.4131770000000  0.5414700000000 1.0
C      1  0.4786860000000  0.3962050000000  0.5003380000000 1.0
C      1  0.4461350000000  0.4462550000000  0.5411110000000 1.0
C      1  0.6110420000000  0.4998460000000  0.4948660000000 1.0
C      1  0.5246920000000  0.5066440000000  0.3796370000000 1.0
C      1  0.5711000000000  0.5422440000000  0.5488840000000 1.0
C      1  0.4482230000000  0.4223440000000  0.5093230000000 1.0
C      1  0.4487630000000  0.5921060000000  0.4819750000000 1.0
C      1  0.5439070000000  0.5210930000000  0.4731760000000 1.0
C      1  0.5104910000000  0.5419280000000  0.3911100000000 1.0
C      1  0.5099120000000  0.4891590000000  0.4636060000000 1.0
C      1  0.5673550000000  0.4966690000000  0.5105640000000 1.0
C      1  0.4938430000000  0.4375020000000  0.5637610000000 1.0
C      1  0.4829790000000  0.4670150000000  0.4902710000000 1.0
C      1  0.5858570000000  0.4364020000000  0.4605210000000 1.0
C      1  0.5329020000000  0.4591970000000  0.4968600000000 1.0
C      1  0.5614370000000  0.5283050000000  0.5726430000000 1.0
C      1  0.5637390000000  0.5883860000000  0.5315450000000 1.0
C      1  0.4281800000000  0.4455370000000  0.5768450000000 1.0
C      1  0.5036650000000  0.5623590000000  0.4247600000000 1.0
C      1  0.4916490000000  0.5104790000000  0.4801550000000 1.0
C      1  0.5162330000000  0.4025330000000  0.4671110000000 1.0
C      1  0.4991480000000  0.4104010000000  0.5437830000000 1.0
C      1  0.4491950000000  0.5439610000000  0.5260510000000 1.0
C      1  0.4618030000000  0.4576200000000  0.4668250000000 1.0
C      1  0.4771030000000  0.4934810000000  0.4550500000000 1.0
C      1  0.5332380000000  0.5584720000000  0.5098100000000 1.0
C      1  0.5401600000000  0.4138470000000  0.5193410000000 1.0
C      1  0.4027990000000  0.5168830000000  0.5005270000000 1.0
C      1  0.4087290000000  0.4570630000000  0.5593880000000 1.0
C      1  0.4951830000000  0.5384550000000  0.4704250000000 1.0
C      1  0.5187720000000  0.4327160000000  0.4242740000000 1.0
C      1  0.4563850000000  0.4375550000000  0.4922330000000 1.0
C      1  0.4941220000000  0.4712910000000  0.5425050000000 1.0
C      1  0.5339010000000  0.5356260000000  0.5773160000000 1.0
C      1  0.4997040000000  0.5838730000000  0.4995310000000 1.0
C      1  0.4685280000000  0.5945050000000  0.5079720000000 1.0
C      1  0.5407130000000  0.6027200000000  0.5216780000000 1.0
C      1  0.4962610000000  0.5175140000000  0.4055570000000 1.0
C      1  0.4248050000000  0.4618840000000  0.4936390000000 1.0
C      1  0.3972410000000  0.4415650000000  0.5337320000000 1.0
C      1  0.4385870000000  0.4170080000000  0.4630780000000 1.0
C      1  0.4701510000000  0.5896050000000  0.4592450000000 1.0
C      1  0.4675450000000  0.5713990000000  0.4106380000000 1.0
C      1  0.5184020000000  0.6018680000000  0.5395430000000 1.0
C      1  0.4323110000000  0.4691870000000  0.6215000000000 1.0
C      1  0.4494380000000  0.5512050000000  0.4922610000000 1.0
C      1  0.4720480000000  0.5601610000000  0.4762300000000 1.0
C      1  0.4289560000000  0.5187280000000  0.5559470000000 1.0
C      1  0.5615500000000  0.4939680000000  0.4785200000000 1.0
C      1  0.4447760000000  0.4623580000000  0.5977080000000 1.0
C      1  0.6061480000000  0.4835730000000  0.5451870000000 1.0
C      1  0.3852240000000  0.5262070000000  0.5352250000000 1.0
C      1  0.4579210000000  0.5149730000000  0.5417210000000 1.0
C      1  0.4445760000000  0.4217370000000  0.5723380000000 1.0
C      1  0.4905440000000  0.4767170000000  0.4312190000000 1.0
C      1  0.5360610000000  0.5250060000000  0.5038870000000 1.0
C      1  0.4114660000000  0.5203560000000  0.4342850000000 1.0
C      1  0.5485290000000  0.4304640000000  0.4270010000000 1.0
C      1  0.4639040000000  0.4521280000000  0.4148300000000 1.0
C      1  0.5450890000000  0.5046300000000  0.4192870000000 1.0
C      1  0.5749840000000  0.4990160000000  0.4295590000000 1.0
C      1  0.6080390000000  0.4398320000000  0.5060120000000 1.0
C      1  0.5343860000000  0.5011010000000  0.6174370000000 1.0
C      1  0.5810430000000  0.4307920000000  0.5258330000000 1.0
C      1  0.5356010000000  0.5004680000000  0.4491930000000 1.0
C      1  0.5041950000000  0.5050250000000  0.5684300000000 1.0
C      1  0.5491750000000  0.4544040000000  0.5575040000000 1.0
C      1  0.5406770000000  0.5299130000000  0.3990650000000 1.0
C      1  0.5266120000000  0.6126580000000  0.4692160000000 1.0
C      1  0.5625210000000  0.4111080000000  0.4131590000000 1.0
C      1  0.4577200000000  0.4994920000000  0.4317730000000 1.0
C      1  0.4737860000000  0.5626860000000  0.5366470000000 1.0
C      1  0.4612380000000  0.4002730000000  0.4786600000000 1.0
C      1  0.4234850000000  0.4408610000000  0.4693180000000 1.0
C      1  0.5005530000000  0.5597160000000  0.5205190000000 1.0
C      1  0.4205390000000  0.5735600000000  0.4762550000000 1.0
C      1  0.5992100000000  0.4638440000000  0.4612240000000 1.0
C      1  0.5123760000000  0.5300650000000  0.5278980000000 1.0
C      1  0.5151490000000  0.4925980000000  0.4157980000000 1.0
C      1  0.6040130000000  0.5202250000000  0.4730790000000 1.0
C      1  0.4678240000000  0.4582270000000  0.5587980000000 1.0
C      1  0.4138770000000  0.4577410000000  0.4433830000000 1.0
C      1  0.4323100000000  0.4805250000000  0.4258380000000 1.0
C      1  0.5199500000000  0.4271380000000  0.5837970000000 1.0
C      1  0.5883790000000  0.5770650000000  0.4921700000000 1.0
C      1  0.4023920000000  0.4807660000000  0.5391150000000 1.0
C      1  0.6034180000000  0.4541840000000  0.5357480000000 1.0
C      1  0.5015820000000  0.4108310000000  0.4439280000000 1.0
C      1  0.5709570000000  0.4623360000000  0.5803270000000 1.0
C      1  0.5054900000000  0.5756720000000  0.5572600000000 1.0
C      1  0.5885710000000  0.5786340000000  0.5199780000000 1.0
END
