TITL C-2778426-5645-5 -0.00668571759742717 125000 -242.497847173354 0 0 44 (C1) n - 1
REM
REM in /home/nfs/bkarasulu/CARBON/AIRSS/Generating-Clusters/REBO/Only-C1/SD-CG/HFTN-CG
REM
REM
REM
REM
REM
REM ./C.cell (11c1c37f851c82e70ff6c80c92926a4b)
REM
REM compiler GCC version 9.2.1 20190827 (Red Hat 9.2.1-1)
REM options -cpp -mtune=generic -march=x86-64 -g -O0 -fpre-include=/usr/include/finclude/math-vector-fortran.h
REM seed -1858782076 -654963607 1686794514 -2099791663 -1459815149 1279194372 64204011 -791322769 -1069740304 1719498013 197180535 -1986022698 104372745 1502443542 -564760975 -2092144942 800297578 161495482 -1631968029 -826241580 1457850010 -1874098899 -2067615724 -779254986 707642280 1763315292 -497639995 460449184 -845070653 1822569121 988638057 -1790388862 -408262356
REM
CELL 1.54180   50.00000   50.00000   50.00000   90.00000   90.00000   90.00000
LATT -1
SFAC C  
C      1  0.5444560000000  0.5053230000000  0.5122580000000 1.0
C      1  0.5265040000000  0.4979240000000  0.4881750000000 1.0
C      1  0.5014800000000  0.4547610000000  0.5264610000000 1.0
C      1  0.4611210000000  0.5425450000000  0.4740930000000 1.0
C      1  0.5287270000000  0.4423680000000  0.4885870000000 1.0
C      1  0.4879490000000  0.5338910000000  0.4921480000000 1.0
C      1  0.4936540000000  0.4902990000000  0.4555920000000 1.0
C      1  0.4330170000000  0.4594160000000  0.4264420000000 1.0
C      1  0.5140930000000  0.5451960000000  0.4640840000000 1.0
C      1  0.4658820000000  0.4527970000000  0.4635400000000 1.0
C      1  0.4939680000000  0.5198080000000  0.5290480000000 1.0
C      1  0.5127340000000  0.5642020000000  0.4846600000000 1.0
C      1  0.4935840000000  0.5338200000000  0.5664130000000 1.0
C      1  0.4532680000000  0.4995290000000  0.5410420000000 1.0
C      1  0.4977450000000  0.5547970000000  0.5479660000000 1.0
C      1  0.5267920000000  0.4500380000000  0.5389630000000 1.0
C      1  0.4549020000000  0.4665450000000  0.4406080000000 1.0
C      1  0.4527550000000  0.5323030000000  0.5020790000000 1.0
C      1  0.5479720000000  0.5385170000000  0.5133520000000 1.0
C      1  0.4798930000000  0.4595260000000  0.5460170000000 1.0
C      1  0.4684170000000  0.5078100000000  0.4159820000000 1.0
C      1  0.4417010000000  0.4568200000000  0.5197100000000 1.0
C      1  0.5208370000000  0.5723620000000  0.5414560000000 1.0
C      1  0.4718960000000  0.4895560000000  0.4356800000000 1.0
C      1  0.5201230000000  0.5231610000000  0.5263250000000 1.0
C      1  0.5458600000000  0.4568170000000  0.4726280000000 1.0
C      1  0.4733460000000  0.4860710000000  0.5566890000000 1.0
C      1  0.5109960000000  0.5129950000000  0.4545790000000 1.0
C      1  0.5318420000000  0.5647190000000  0.5123160000000 1.0
C      1  0.4990580000000  0.5058490000000  0.4920160000000 1.0
C      1  0.5037850000000  0.4542670000000  0.4971170000000 1.0
C      1  0.5393770000000  0.4838900000000  0.4665770000000 1.0
C      1  0.4898160000000  0.4661380000000  0.4736480000000 1.0
C      1  0.5601210000000  0.4841190000000  0.5267590000000 1.0
C      1  0.5398370000000  0.5262350000000  0.4632960000000 1.0
C      1  0.4654990000000  0.5193830000000  0.5248980000000 1.0
C      1  0.5514420000000  0.4614060000000  0.5385400000000 1.0
C      1  0.4616280000000  0.4724030000000  0.5128620000000 1.0
C      1  0.4970780000000  0.5565490000000  0.5138750000000 1.0
C      1  0.5587390000000  0.5295190000000  0.4838940000000 1.0
C      1  0.4819060000000  0.4882610000000  0.5058930000000 1.0
C      1  0.4638800000000  0.4384450000000  0.5529510000000 1.0
C      1  0.5429790000000  0.4930640000000  0.4412150000000 1.0
C      1  0.4893400000000  0.5065580000000  0.5695670000000 1.0
END
