TITL C-2778436-5916-909 0.00177723157367865 125000 -1153.53669875354 0 0 193 (C1) n - 1
REM
REM in /home/nfs/bkarasulu/CARBON/AIRSS/Generating-Clusters/REBO/Only-C1/SD-CG/HFTN-CG
REM
REM
REM
REM
REM
REM ./C.cell (11c1c37f851c82e70ff6c80c92926a4b)
REM
REM compiler GCC version 9.2.1 20190827 (Red Hat 9.2.1-1)
REM options -cpp -mtune=generic -march=x86-64 -g -O0 -fpre-include=/usr/include/finclude/math-vector-fortran.h
REM seed -1980993561 -871242319 -2110894604 -1851874651 -1382942244 -1943252022 229431993 -434400567 3949181 -458920935 -300951136 866611929 -1547185043 -1544062567 539056178 1405357334 1047026325 68490691 -809292031 1663734756 1246936170 1307001669 -907276481 -2086992854 -1333285683 628864577 -809596162 -1909042661 1533101223 701811847 -1602323669 968933550 -1820902066
REM
CELL 1.54180   50.00000   50.00000   50.00000   90.00000   90.00000   90.00000
LATT -1
SFAC C  
C      1  0.5861730000000  0.5489090000000  0.4295570000000 1.0
C      1  0.5050840000000  0.5564710000000  0.5900030000000 1.0
C      1  0.5188760000000  0.4428150000000  0.4440950000000 1.0
C      1  0.5031920000000  0.5605160000000  0.5353010000000 1.0
C      1  0.4833940000000  0.4428340000000  0.5735940000000 1.0
C      1  0.4865560000000  0.5366980000000  0.5263390000000 1.0
C      1  0.4655340000000  0.5714070000000  0.4924650000000 1.0
C      1  0.5498300000000  0.4526150000000  0.5058920000000 1.0
C      1  0.4138140000000  0.4294910000000  0.5469060000000 1.0
C      1  0.5065300000000  0.4729240000000  0.3864830000000 1.0
C      1  0.4591160000000  0.5418020000000  0.3945970000000 1.0
C      1  0.5932300000000  0.5529070000000  0.4978740000000 1.0
C      1  0.3886980000000  0.4565780000000  0.4666640000000 1.0
C      1  0.5219970000000  0.5372590000000  0.4806100000000 1.0
C      1  0.4669490000000  0.4553820000000  0.5978340000000 1.0
C      1  0.5048460000000  0.5134400000000  0.4128890000000 1.0
C      1  0.5491030000000  0.5213690000000  0.3969610000000 1.0
C      1  0.5503980000000  0.5984840000000  0.4727970000000 1.0
C      1  0.5086970000000  0.4264990000000  0.5791210000000 1.0
C      1  0.4783400000000  0.6101720000000  0.5252850000000 1.0
C      1  0.5364840000000  0.5931240000000  0.5214640000000 1.0
C      1  0.5578760000000  0.5462820000000  0.4486910000000 1.0
C      1  0.4790090000000  0.4717390000000  0.5425430000000 1.0
C      1  0.4391730000000  0.5385410000000  0.4148000000000 1.0
C      1  0.5446120000000  0.4986200000000  0.4964580000000 1.0
C      1  0.4660550000000  0.4011120000000  0.4741100000000 1.0
C      1  0.5519730000000  0.4913930000000  0.3845370000000 1.0
C      1  0.5040000000000  0.4690150000000  0.4961810000000 1.0
C      1  0.5860530000000  0.5809230000000  0.5145370000000 1.0
C      1  0.4776050000000  0.4917900000000  0.5664410000000 1.0
C      1  0.4878750000000  0.4784470000000  0.4378080000000 1.0
C      1  0.5562720000000  0.6050000000000  0.4453050000000 1.0
C      1  0.5395870000000  0.5882880000000  0.4284600000000 1.0
C      1  0.4412180000000  0.5463410000000  0.4607810000000 1.0
C      1  0.4071320000000  0.5801180000000  0.4734060000000 1.0
C      1  0.5972830000000  0.4565290000000  0.5185030000000 1.0
C      1  0.4572900000000  0.4854600000000  0.5895600000000 1.0
C      1  0.5159850000000  0.3976550000000  0.4634080000000 1.0
C      1  0.4619890000000  0.4549260000000  0.5222110000000 1.0
C      1  0.5017500000000  0.4296230000000  0.4105070000000 1.0
C      1  0.4543390000000  0.4415710000000  0.5625500000000 1.0
C      1  0.6037560000000  0.5239410000000  0.4332220000000 1.0
C      1  0.3873110000000  0.4861210000000  0.4934240000000 1.0
C      1  0.4499290000000  0.6083160000000  0.5282360000000 1.0
C      1  0.5145750000000  0.5776440000000  0.5127530000000 1.0
C      1  0.5485470000000  0.5895000000000  0.5473760000000 1.0
C      1  0.5960130000000  0.4490900000000  0.4391660000000 1.0
C      1  0.3997670000000  0.4976780000000  0.5358970000000 1.0
C      1  0.4433340000000  0.4518590000000  0.4028460000000 1.0
C      1  0.4894460000000  0.4606300000000  0.4109060000000 1.0
C      1  0.3946840000000  0.4517960000000  0.5538550000000 1.0
C      1  0.5100150000000  0.4315690000000  0.5290250000000 1.0
C      1  0.4275310000000  0.4902510000000  0.5787810000000 1.0
C      1  0.5201150000000  0.4689330000000  0.6119020000000 1.0
C      1  0.5680650000000  0.4990110000000  0.4113860000000 1.0
C      1  0.5215340000000  0.5357070000000  0.5601830000000 1.0
C      1  0.4127920000000  0.4455060000000  0.5166520000000 1.0
C      1  0.5158330000000  0.4905160000000  0.5789450000000 1.0
C      1  0.5607110000000  0.4141220000000  0.5291120000000 1.0
C      1  0.5474620000000  0.4779960000000  0.4624760000000 1.0
C      1  0.4624270000000  0.4985500000000  0.6191430000000 1.0
C      1  0.4511400000000  0.5506560000000  0.5142540000000 1.0
C      1  0.5670620000000  0.5602420000000  0.4774320000000 1.0
C      1  0.5417800000000  0.4291770000000  0.4867970000000 1.0
C      1  0.4951230000000  0.5318180000000  0.4503180000000 1.0
C      1  0.5364490000000  0.5524880000000  0.5345170000000 1.0
C      1  0.5923870000000  0.5646780000000  0.4567570000000 1.0
C      1  0.4174470000000  0.5135030000000  0.4898640000000 1.0
C      1  0.4642080000000  0.5764270000000  0.4312260000000 1.0
C      1  0.3862070000000  0.5002910000000  0.4687770000000 1.0
C      1  0.4405480000000  0.4042660000000  0.4962010000000 1.0
C      1  0.4436810000000  0.4372870000000  0.6007930000000 1.0
C      1  0.4899920000000  0.3911520000000  0.4585900000000 1.0
C      1  0.4917230000000  0.5081310000000  0.4706310000000 1.0
C      1  0.4868830000000  0.6124530000000  0.4977640000000 1.0
C      1  0.5320100000000  0.4701100000000  0.4351650000000 1.0
C      1  0.4479970000000  0.5169990000000  0.5572970000000 1.0
C      1  0.3861480000000  0.4539340000000  0.4972740000000 1.0
C      1  0.5766190000000  0.5183090000000  0.5720590000000 1.0
C      1  0.4467160000000  0.5208800000000  0.5021970000000 1.0
C      1  0.4065670000000  0.5197320000000  0.5214940000000 1.0
C      1  0.4762240000000  0.4274310000000  0.4285470000000 1.0
C      1  0.6129370000000  0.4826750000000  0.5097350000000 1.0
C      1  0.5640910000000  0.4344360000000  0.5523380000000 1.0
C      1  0.5782440000000  0.5177040000000  0.4868490000000 1.0
C      1  0.5597340000000  0.5922980000000  0.5000790000000 1.0
C      1  0.5257550000000  0.4534920000000  0.4065470000000 1.0
C      1  0.4673150000000  0.5254010000000  0.6211610000000 1.0
C      1  0.5393300000000  0.4947370000000  0.6020080000000 1.0
C      1  0.5750560000000  0.4164070000000  0.5049320000000 1.0
C      1  0.6089150000000  0.5285250000000  0.4855470000000 1.0
C      1  0.5736330000000  0.5781400000000  0.5460170000000 1.0
C      1  0.4297650000000  0.4230720000000  0.5765840000000 1.0
C      1  0.5530680000000  0.5591630000000  0.5084420000000 1.0
C      1  0.5837850000000  0.5014930000000  0.4363590000000 1.0
C      1  0.4087350000000  0.5444160000000  0.5369280000000 1.0
C      1  0.4193730000000  0.4635490000000  0.4561380000000 1.0
C      1  0.4373670000000  0.4771420000000  0.4126120000000 1.0
C      1  0.5930490000000  0.4775210000000  0.4532550000000 1.0
C      1  0.4810400000000  0.5887920000000  0.4502330000000 1.0
C      1  0.3942580000000  0.4817470000000  0.4440610000000 1.0
C      1  0.5298780000000  0.4929810000000  0.5332150000000 1.0
C      1  0.5339980000000  0.5450620000000  0.5882380000000 1.0
C      1  0.4491100000000  0.4335870000000  0.4233920000000 1.0
C      1  0.5346120000000  0.5221260000000  0.4543500000000 1.0
C      1  0.4063330000000  0.4783650000000  0.5567730000000 1.0
C      1  0.4793350000000  0.5643290000000  0.4056780000000 1.0
C      1  0.4287320000000  0.5692860000000  0.5727480000000 1.0
C      1  0.3980600000000  0.5278430000000  0.4695110000000 1.0
C      1  0.5503340000000  0.5626040000000  0.4221640000000 1.0
C      1  0.4171740000000  0.4769780000000  0.5060320000000 1.0
C      1  0.4610210000000  0.5661320000000  0.5624380000000 1.0
C      1  0.5302670000000  0.3911620000000  0.4914780000000 1.0
C      1  0.4250960000000  0.5219750000000  0.5758980000000 1.0
C      1  0.4124960000000  0.5457630000000  0.5666760000000 1.0
C      1  0.5332920000000  0.3994510000000  0.5245850000000 1.0
C      1  0.5420780000000  0.4214070000000  0.5731640000000 1.0
C      1  0.4338220000000  0.5134630000000  0.4265700000000 1.0
C      1  0.6256490000000  0.5125780000000  0.5042950000000 1.0
C      1  0.5815690000000  0.4291450000000  0.4421780000000 1.0
C      1  0.5109440000000  0.5838110000000  0.4420310000000 1.0
C      1  0.4577220000000  0.4912300000000  0.4363150000000 1.0
C      1  0.6148880000000  0.5063200000000  0.5341470000000 1.0
C      1  0.4892810000000  0.4466530000000  0.4502190000000 1.0
C      1  0.5630090000000  0.4788050000000  0.5017400000000 1.0
C      1  0.5150130000000  0.4994440000000  0.4381960000000 1.0
C      1  0.5265930000000  0.5834290000000  0.4680770000000 1.0
C      1  0.4265820000000  0.5641640000000  0.5267000000000 1.0
C      1  0.4943300000000  0.5981010000000  0.5457130000000 1.0
C      1  0.4886040000000  0.4862690000000  0.5169720000000 1.0
C      1  0.5045210000000  0.5121400000000  0.5233250000000 1.0
C      1  0.3994960000000  0.5551940000000  0.4666140000000 1.0
C      1  0.4791210000000  0.4133850000000  0.5014640000000 1.0
C      1  0.4453720000000  0.4932790000000  0.5431120000000 1.0
C      1  0.5510810000000  0.4599220000000  0.5707370000000 1.0
C      1  0.5297900000000  0.4185460000000  0.4501500000000 1.0
C      1  0.5031100000000  0.3977520000000  0.5093100000000 1.0
C      1  0.5850790000000  0.5505300000000  0.5305540000000 1.0
C      1  0.6027790000000  0.5146680000000  0.5560880000000 1.0
C      1  0.4486050000000  0.4105540000000  0.5519210000000 1.0
C      1  0.5528740000000  0.5236930000000  0.5951770000000 1.0
C      1  0.5590570000000  0.4179840000000  0.4563550000000 1.0
C      1  0.5004980000000  0.5162550000000  0.5659100000000 1.0
C      1  0.4419600000000  0.5585530000000  0.4354220000000 1.0
C      1  0.5248830000000  0.4722360000000  0.5573460000000 1.0
C      1  0.4187570000000  0.6004580000000  0.4866610000000 1.0
C      1  0.5098730000000  0.5509970000000  0.4011300000000 1.0
C      1  0.5387710000000  0.5463470000000  0.4023550000000 1.0
C      1  0.4890220000000  0.5392060000000  0.6056670000000 1.0
C      1  0.4786870000000  0.5245820000000  0.4954700000000 1.0
C      1  0.5639010000000  0.5065130000000  0.4616840000000 1.0
C      1  0.5182130000000  0.4889920000000  0.4765170000000 1.0
C      1  0.4982590000000  0.5551260000000  0.4327790000000 1.0
C      1  0.5310970000000  0.4460220000000  0.5942240000000 1.0
C      1  0.5117980000000  0.4359440000000  0.4978450000000 1.0
C      1  0.4639030000000  0.5463850000000  0.4769030000000 1.0
C      1  0.5723480000000  0.4561380000000  0.4705760000000 1.0
C      1  0.4109040000000  0.4929750000000  0.4206290000000 1.0
C      1  0.5914270000000  0.4800070000000  0.4869250000000 1.0
C      1  0.4921440000000  0.5711240000000  0.5647580000000 1.0
C      1  0.5574210000000  0.5050800000000  0.5346050000000 1.0
C      1  0.5868500000000  0.4406540000000  0.4972110000000 1.0
C      1  0.4609920000000  0.5406060000000  0.5444340000000 1.0
C      1  0.4361540000000  0.4384880000000  0.4969250000000 1.0
C      1  0.4397760000000  0.4945740000000  0.5168230000000 1.0
C      1  0.4618020000000  0.4238470000000  0.5237850000000 1.0
C      1  0.5744790000000  0.4849200000000  0.5504380000000 1.0
C      1  0.5662950000000  0.5279860000000  0.5137750000000 1.0
C      1  0.5030170000000  0.4532240000000  0.5499360000000 1.0
C      1  0.4301430000000  0.4104800000000  0.5249500000000 1.0
C      1  0.4639340000000  0.4883350000000  0.4696610000000 1.0
C      1  0.4610370000000  0.4608620000000  0.4896730000000 1.0
C      1  0.4318840000000  0.4851190000000  0.4770350000000 1.0
C      1  0.5250240000000  0.5192220000000  0.5017770000000 1.0
C      1  0.6128220000000  0.5404450000000  0.4577230000000 1.0
C      1  0.4885270000000  0.4772410000000  0.6128000000000 1.0
C      1  0.5538480000000  0.5313520000000  0.5525950000000 1.0
C      1  0.5194090000000  0.4094950000000  0.5518350000000 1.0
C      1  0.4404450000000  0.4218660000000  0.4683700000000 1.0
C      1  0.5603950000000  0.4006380000000  0.4828980000000 1.0
C      1  0.5820580000000  0.4587560000000  0.5419650000000 1.0
C      1  0.4415660000000  0.4670840000000  0.5579160000000 1.0
C      1  0.4880900000000  0.5296230000000  0.3881000000000 1.0
C      1  0.5654790000000  0.4879200000000  0.5825230000000 1.0
C      1  0.4951060000000  0.5076050000000  0.5986050000000 1.0
C      1  0.4340480000000  0.4389030000000  0.4464820000000 1.0
C      1  0.5274110000000  0.4664490000000  0.5178810000000 1.0
C      1  0.5179780000000  0.5648320000000  0.4872860000000 1.0
C      1  0.4773810000000  0.5929130000000  0.4790710000000 1.0
C      1  0.4336700000000  0.6128260000000  0.5055490000000 1.0
C      1  0.4394770000000  0.5868710000000  0.5459730000000 1.0
C      1  0.5029010000000  0.4999250000000  0.3842380000000 1.0
C      1  0.4833000000000  0.4394090000000  0.4794700000000 1.0
END
