TITL C-2778433-5640-699 0.413428824934171 125000 -605.485849857786 0 0 104 (C1) n - 1
REM
REM in /home/nfs/bkarasulu/CARBON/AIRSS/Generating-Clusters/REBO/Only-C1/SD-CG/HFTN-CG
REM
REM
REM
REM
REM
REM ./C.cell (11c1c37f851c82e70ff6c80c92926a4b)
REM
REM compiler GCC version 9.2.1 20190827 (Red Hat 9.2.1-1)
REM options -cpp -mtune=generic -march=x86-64 -g -O0 -fpre-include=/usr/include/finclude/math-vector-fortran.h
REM seed 2027949462 798522519 -978416233 -1203015226 115194485 -828202739 2074424260 -133781611 -1997333993 -342624748 1268452373 2091874611 1297303566 -1146394326 1612742154 -1444638714 1478358372 -606986791 -759942276 -1965545648 19488496 -113463458 435053463 1305687596 -2124341914 40396430 -1136513365 -1868969181 454622745 93724683 -177340875 1273137070 1994664592
REM
CELL 1.54180   50.00000   50.00000   50.00000   90.00000   90.00000   90.00000
LATT -1
SFAC C  
C      1  0.4738810000000  0.4440780000000  0.5480760000000 1.0
C      1  0.4706050000000  0.5152640000000  0.4053600000000 1.0
C      1  0.4965830000000  0.5119630000000  0.4142620000000 1.0
C      1  0.4301700000000  0.4760970000000  0.5388100000000 1.0
C      1  0.4674900000000  0.5074450000000  0.5005340000000 1.0
C      1  0.4633520000000  0.4837300000000  0.4686280000000 1.0
C      1  0.4778300000000  0.5207290000000  0.4771550000000 1.0
C      1  0.4613140000000  0.4459970000000  0.4319710000000 1.0
C      1  0.4462840000000  0.5234630000000  0.5665350000000 1.0
C      1  0.4845480000000  0.4470110000000  0.4176750000000 1.0
C      1  0.4608970000000  0.4977780000000  0.5515290000000 1.0
C      1  0.5719940000000  0.4532100000000  0.4804600000000 1.0
C      1  0.5175080000000  0.5034610000000  0.4962490000000 1.0
C      1  0.4403340000000  0.5029890000000  0.4700620000000 1.0
C      1  0.4546830000000  0.5489340000000  0.4611120000000 1.0
C      1  0.5542690000000  0.5595840000000  0.5225320000000 1.0
C      1  0.5738650000000  0.4860470000000  0.4766510000000 1.0
C      1  0.5230770000000  0.5351320000000  0.5391190000000 1.0
C      1  0.5048930000000  0.5874100000000  0.5347680000000 1.0
C      1  0.4875220000000  0.4943430000000  0.5354640000000 1.0
C      1  0.4524670000000  0.4545770000000  0.4574370000000 1.0
C      1  0.5010490000000  0.5368100000000  0.4822770000000 1.0
C      1  0.4462830000000  0.5052050000000  0.4270090000000 1.0
C      1  0.4536590000000  0.4833960000000  0.5073000000000 1.0
C      1  0.5215910000000  0.4612290000000  0.5868490000000 1.0
C      1  0.4547190000000  0.5480800000000  0.5722620000000 1.0
C      1  0.5425700000000  0.4387820000000  0.5185090000000 1.0
C      1  0.5302450000000  0.4709440000000  0.4149710000000 1.0
C      1  0.5497950000000  0.5493030000000  0.5549100000000 1.0
C      1  0.5208640000000  0.4305530000000  0.4473700000000 1.0
C      1  0.5704670000000  0.4663890000000  0.5111660000000 1.0
C      1  0.4990580000000  0.4957710000000  0.5749380000000 1.0
C      1  0.4911850000000  0.4932810000000  0.4515360000000 1.0
C      1  0.5227220000000  0.5424810000000  0.4604730000000 1.0
C      1  0.5340920000000  0.5590060000000  0.4950700000000 1.0
C      1  0.4899010000000  0.4569530000000  0.5752650000000 1.0
C      1  0.4778630000000  0.4368060000000  0.4826810000000 1.0
C      1  0.4669770000000  0.5243100000000  0.4450000000000 1.0
C      1  0.4753070000000  0.5236080000000  0.5246700000000 1.0
C      1  0.5445250000000  0.4689880000000  0.5732690000000 1.0
C      1  0.4716960000000  0.4823730000000  0.5867870000000 1.0
C      1  0.5018350000000  0.4221410000000  0.4980720000000 1.0
C      1  0.5278820000000  0.5489270000000  0.4138640000000 1.0
C      1  0.5386240000000  0.4724350000000  0.5221830000000 1.0
C      1  0.4117100000000  0.4875630000000  0.4756190000000 1.0
C      1  0.5140450000000  0.5800450000000  0.4864600000000 1.0
C      1  0.5230070000000  0.4992150000000  0.4088950000000 1.0
C      1  0.5505720000000  0.4988720000000  0.4572780000000 1.0
C      1  0.4390880000000  0.5320440000000  0.4785780000000 1.0
C      1  0.4724470000000  0.4841740000000  0.4299070000000 1.0
C      1  0.5284980000000  0.4661840000000  0.4635880000000 1.0
C      1  0.4473900000000  0.5010720000000  0.6327270000000 1.0
C      1  0.5201300000000  0.5176830000000  0.5897390000000 1.0
C      1  0.5564680000000  0.4662340000000  0.4268600000000 1.0
C      1  0.5869240000000  0.5155960000000  0.4876420000000 1.0
C      1  0.4513830000000  0.4546370000000  0.5247460000000 1.0
C      1  0.4148620000000  0.5220450000000  0.5188680000000 1.0
C      1  0.5413160000000  0.5225170000000  0.4144170000000 1.0
C      1  0.5485990000000  0.5034650000000  0.4912570000000 1.0
C      1  0.5767710000000  0.4481250000000  0.5368720000000 1.0
C      1  0.5579590000000  0.5214320000000  0.5142650000000 1.0
C      1  0.5056400000000  0.4782720000000  0.5117400000000 1.0
C      1  0.5075360000000  0.4718850000000  0.5511280000000 1.0
C      1  0.4537960000000  0.4676940000000  0.5621540000000 1.0
C      1  0.5194760000000  0.5081870000000  0.5511230000000 1.0
C      1  0.4207630000000  0.4748880000000  0.5060190000000 1.0
C      1  0.5190180000000  0.4957590000000  0.4656380000000 1.0
C      1  0.4964950000000  0.5873180000000  0.5078480000000 1.0
C      1  0.5009890000000  0.5244070000000  0.4443270000000 1.0
C      1  0.4300870000000  0.5092330000000  0.5413340000000 1.0
C      1  0.5743670000000  0.5307050000000  0.4598520000000 1.0
C      1  0.5261200000000  0.4444900000000  0.5478950000000 1.0
C      1  0.4203790000000  0.4966240000000  0.4439090000000 1.0
C      1  0.5605050000000  0.5178000000000  0.4349920000000 1.0
C      1  0.5375420000000  0.5329280000000  0.5803470000000 1.0
C      1  0.5177930000000  0.5337760000000  0.5096260000000 1.0
C      1  0.5093750000000  0.4453250000000  0.5197240000000 1.0
C      1  0.4383040000000  0.5669700000000  0.5107440000000 1.0
C      1  0.4988600000000  0.5744020000000  0.4615790000000 1.0
C      1  0.5125130000000  0.4482250000000  0.4226490000000 1.0
C      1  0.4762100000000  0.4241250000000  0.5205660000000 1.0
C      1  0.5860610000000  0.4937360000000  0.5136690000000 1.0
C      1  0.4690960000000  0.5732350000000  0.5022460000000 1.0
C      1  0.5273790000000  0.4204700000000  0.4772780000000 1.0
C      1  0.5678940000000  0.5051890000000  0.5377200000000 1.0
C      1  0.5269840000000  0.5694790000000  0.5404610000000 1.0
C      1  0.4586200000000  0.4924330000000  0.6115030000000 1.0
C      1  0.4468460000000  0.4331480000000  0.4777610000000 1.0
C      1  0.5434770000000  0.4892170000000  0.5487670000000 1.0
C      1  0.4718490000000  0.5683270000000  0.4710730000000 1.0
C      1  0.5516940000000  0.5498390000000  0.4702700000000 1.0
C      1  0.4474100000000  0.4284920000000  0.5069980000000 1.0
C      1  0.4842070000000  0.5867650000000  0.5542390000000 1.0
C      1  0.4848970000000  0.4689500000000  0.4869360000000 1.0
C      1  0.5713400000000  0.5447730000000  0.4970140000000 1.0
C      1  0.4683340000000  0.5633600000000  0.5530190000000 1.0
C      1  0.4009060000000  0.5015020000000  0.5038440000000 1.0
C      1  0.5509810000000  0.4309030000000  0.4911080000000 1.0
C      1  0.4707210000000  0.5506230000000  0.5272100000000 1.0
C      1  0.5139170000000  0.5613480000000  0.4362240000000 1.0
C      1  0.4283070000000  0.5414920000000  0.5029270000000 1.0
C      1  0.5027550000000  0.4499160000000  0.4668420000000 1.0
C      1  0.5582830000000  0.4466110000000  0.5568760000000 1.0
C      1  0.5546290000000  0.4592610000000  0.4542820000000 1.0
END
