TITL C-2778430-5657-309 6.92851760102658e-05 125000 -270.85725784342 0 0 48 (C1) n - 1
REM
REM in /home/nfs/bkarasulu/CARBON/AIRSS/Generating-Clusters/REBO/Only-C1/SD-CG/HFTN-CG
REM
REM
REM
REM
REM
REM ./C.cell (11c1c37f851c82e70ff6c80c92926a4b)
REM
REM compiler GCC version 9.2.1 20190827 (Red Hat 9.2.1-1)
REM options -cpp -mtune=generic -march=x86-64 -g -O0 -fpre-include=/usr/include/finclude/math-vector-fortran.h
REM seed -728410281 -1510959902 -1246007582 1003682713 1340468372 1277012943 2033442536 -1210173636 -1168979429 436018818 -1836994107 -673341896 -775935056 -1566150525 -2138210724 -48030633 2031697952 1077781643 -758944313 -131232948 1972509164 -360674566 1739409490 1439828970 -1213016186 -299495878 -62967473 1645915580 -482551065 277359312 -844378546 1730331316 122453225
REM
CELL 1.54180   50.00000   50.00000   50.00000   90.00000   90.00000   90.00000
LATT -1
SFAC C  
C      1  0.5555980000000  0.5280690000000  0.5120030000000 1.0
C      1  0.5321340000000  0.5349620000000  0.5561670000000 1.0
C      1  0.5281650000000  0.5161110000000  0.4769760000000 1.0
C      1  0.5652190000000  0.4820550000000  0.4918850000000 1.0
C      1  0.4614770000000  0.5518870000000  0.5178040000000 1.0
C      1  0.4368990000000  0.5302360000000  0.5220600000000 1.0
C      1  0.4830190000000  0.5149230000000  0.5707350000000 1.0
C      1  0.4850130000000  0.5676240000000  0.5158130000000 1.0
C      1  0.4999310000000  0.5359060000000  0.4970230000000 1.0
C      1  0.5028680000000  0.5245650000000  0.5503650000000 1.0
C      1  0.4891850000000  0.5031690000000  0.4739740000000 1.0
C      1  0.5007420000000  0.4680260000000  0.4452220000000 1.0
C      1  0.4852070000000  0.4335080000000  0.5326370000000 1.0
C      1  0.4771270000000  0.5322980000000  0.4720700000000 1.0
C      1  0.5501620000000  0.5534430000000  0.4624380000000 1.0
C      1  0.5432060000000  0.5450930000000  0.5311500000000 1.0
C      1  0.5300220000000  0.4731870000000  0.4958450000000 1.0
C      1  0.5010780000000  0.5545420000000  0.4683910000000 1.0
C      1  0.5444030000000  0.4738010000000  0.4669700000000 1.0
C      1  0.4914840000000  0.5773490000000  0.4902680000000 1.0
C      1  0.5540580000000  0.4992480000000  0.5159990000000 1.0
C      1  0.5919790000000  0.4774000000000  0.4894800000000 1.0
C      1  0.4881590000000  0.4627080000000  0.5436300000000 1.0
C      1  0.4461320000000  0.4653670000000  0.5181320000000 1.0
C      1  0.4453750000000  0.4973040000000  0.5236230000000 1.0
C      1  0.4655380000000  0.4970780000000  0.5701080000000 1.0
C      1  0.5120130000000  0.4753990000000  0.5413400000000 1.0
C      1  0.4929910000000  0.4431710000000  0.4571760000000 1.0
C      1  0.4774650000000  0.4139520000000  0.5510890000000 1.0
C      1  0.4682840000000  0.5191280000000  0.5151290000000 1.0
C      1  0.4659020000000  0.4389910000000  0.5104370000000 1.0
C      1  0.5267560000000  0.4823550000000  0.4460240000000 1.0
C      1  0.5240320000000  0.5452340000000  0.4500130000000 1.0
C      1  0.5264080000000  0.4472340000000  0.5087700000000 1.0
C      1  0.5114500000000  0.4976240000000  0.4965350000000 1.0
C      1  0.4742910000000  0.4390450000000  0.4774140000000 1.0
C      1  0.4810170000000  0.4883490000000  0.4511150000000 1.0
C      1  0.5134770000000  0.4300960000000  0.5207470000000 1.0
C      1  0.4977590000000  0.5123870000000  0.5212420000000 1.0
C      1  0.5234910000000  0.5127130000000  0.4468220000000 1.0
C      1  0.5491470000000  0.5340670000000  0.4847150000000 1.0
C      1  0.4550940000000  0.5302190000000  0.4519510000000 1.0
C      1  0.5346600000000  0.4875470000000  0.5328700000000 1.0
C      1  0.4348500000000  0.5203370000000  0.4286300000000 1.0
C      1  0.4462620000000  0.4533230000000  0.4865940000000 1.0
C      1  0.5100400000000  0.5498010000000  0.5265080000000 1.0
C      1  0.4609780000000  0.4779630000000  0.5460890000000 1.0
C      1  0.4594520000000  0.5012080000000  0.4380250000000 1.0
END
