TITL C-2778423-5760-535 -0.00129065777915091 125000 -549.945854143347 0 0 95 (C1) n - 1
REM
REM in /home/nfs/bkarasulu/CARBON/AIRSS/Generating-Clusters/REBO/Only-C1/SD-CG/HFTN-CG
REM
REM
REM
REM
REM
REM ./C.cell (11c1c37f851c82e70ff6c80c92926a4b)
REM
REM compiler GCC version 9.2.1 20190827 (Red Hat 9.2.1-1)
REM options -cpp -mtune=generic -march=x86-64 -g -O0 -fpre-include=/usr/include/finclude/math-vector-fortran.h
REM seed -1353219301 -1131468235 455705473 525326418 -927736114 1074799600 2115429116 -1947274797 69016056 1367136385 337257102 1177516966 2085962194 1494083728 2036811086 -903781523 1286928404 -2098349175 1397780302 551590796 -1833027955 128494411 -234848498 727777959 1973399686 17654963 -1285205178 -1918386419 765545526 1399146935 1492551296 -181322179 71394970
REM
CELL 1.54180   50.00000   50.00000   50.00000   90.00000   90.00000   90.00000
LATT -1
SFAC C  
C      1  0.4533120000000  0.4891990000000  0.4322170000000 1.0
C      1  0.5057000000000  0.4627270000000  0.5575070000000 1.0
C      1  0.4266630000000  0.5049340000000  0.5209710000000 1.0
C      1  0.5530720000000  0.5363560000000  0.5220310000000 1.0
C      1  0.5272850000000  0.5139500000000  0.5248290000000 1.0
C      1  0.5239380000000  0.5021360000000  0.4361440000000 1.0
C      1  0.4373150000000  0.4558900000000  0.4661950000000 1.0
C      1  0.4867440000000  0.4790900000000  0.4708930000000 1.0
C      1  0.4786590000000  0.5089100000000  0.5595090000000 1.0
C      1  0.4876410000000  0.5067000000000  0.5902760000000 1.0
C      1  0.5492890000000  0.4510550000000  0.4523150000000 1.0
C      1  0.5312620000000  0.4591570000000  0.5732010000000 1.0
C      1  0.4795030000000  0.5100470000000  0.4254070000000 1.0
C      1  0.4872480000000  0.4500510000000  0.4530060000000 1.0
C      1  0.4564060000000  0.5289980000000  0.5553570000000 1.0
C      1  0.5411350000000  0.5416800000000  0.5521490000000 1.0
C      1  0.4877800000000  0.4333410000000  0.5569690000000 1.0
C      1  0.4546220000000  0.5020930000000  0.5026420000000 1.0
C      1  0.5450630000000  0.4225920000000  0.5057630000000 1.0
C      1  0.5324490000000  0.5091180000000  0.5729140000000 1.0
C      1  0.5114930000000  0.4842510000000  0.5313790000000 1.0
C      1  0.4208940000000  0.5382640000000  0.5190510000000 1.0
C      1  0.4681600000000  0.5765590000000  0.4895850000000 1.0
C      1  0.5241470000000  0.5754950000000  0.4768810000000 1.0
C      1  0.5280360000000  0.5271550000000  0.4928780000000 1.0
C      1  0.5032260000000  0.5414600000000  0.5089010000000 1.0
C      1  0.5086460000000  0.5177660000000  0.5530200000000 1.0
C      1  0.5779550000000  0.5057100000000  0.5264810000000 1.0
C      1  0.4456890000000  0.4625900000000  0.5516470000000 1.0
C      1  0.4194040000000  0.5512280000000  0.4694160000000 1.0
C      1  0.4983090000000  0.5698630000000  0.4970570000000 1.0
C      1  0.4650750000000  0.4600000000000  0.4213890000000 1.0
C      1  0.5031350000000  0.4905520000000  0.4983110000000 1.0
C      1  0.4142150000000  0.5285440000000  0.4887490000000 1.0
C      1  0.4299050000000  0.5219770000000  0.5477070000000 1.0
C      1  0.4777070000000  0.4140130000000  0.5121100000000 1.0
C      1  0.5488570000000  0.4827050000000  0.5631560000000 1.0
C      1  0.5067050000000  0.5232730000000  0.4277450000000 1.0
C      1  0.5343310000000  0.4279230000000  0.4547540000000 1.0
C      1  0.4667920000000  0.4312420000000  0.4910610000000 1.0
C      1  0.5623330000000  0.4486550000000  0.5073610000000 1.0
C      1  0.5215770000000  0.4761840000000  0.4181980000000 1.0
C      1  0.4397150000000  0.4502750000000  0.4998200000000 1.0
C      1  0.5011010000000  0.4267980000000  0.5283700000000 1.0
C      1  0.5497820000000  0.5803490000000  0.4989200000000 1.0
C      1  0.5855810000000  0.5043550000000  0.4924520000000 1.0
C      1  0.5053780000000  0.4304490000000  0.4710520000000 1.0
C      1  0.5672830000000  0.4937110000000  0.4433810000000 1.0
C      1  0.5567370000000  0.4632130000000  0.4791620000000 1.0
C      1  0.4611690000000  0.5911540000000  0.5171030000000 1.0
C      1  0.5451930000000  0.5418800000000  0.4459020000000 1.0
C      1  0.4420460000000  0.4407160000000  0.5326670000000 1.0
C      1  0.5748160000000  0.4880910000000  0.4716460000000 1.0
C      1  0.4630910000000  0.5532660000000  0.5440130000000 1.0
C      1  0.4911800000000  0.4528970000000  0.4923080000000 1.0
C      1  0.4446590000000  0.5613340000000  0.5180120000000 1.0
C      1  0.5121890000000  0.5070050000000  0.5963610000000 1.0
C      1  0.5444690000000  0.4657320000000  0.5360650000000 1.0
C      1  0.4468640000000  0.5511060000000  0.4855450000000 1.0
C      1  0.4792890000000  0.5572570000000  0.4642830000000 1.0
C      1  0.4681110000000  0.5272040000000  0.4746280000000 1.0
C      1  0.5617790000000  0.5209100000000  0.4372710000000 1.0
C      1  0.4870920000000  0.4637230000000  0.5225220000000 1.0
C      1  0.4341590000000  0.4835840000000  0.4577280000000 1.0
C      1  0.5328770000000  0.5029360000000  0.4614170000000 1.0
C      1  0.4629730000000  0.4212040000000  0.5377750000000 1.0
C      1  0.4823850000000  0.5926730000000  0.5352040000000 1.0
C      1  0.4726200000000  0.4825850000000  0.5470850000000 1.0
C      1  0.4613050000000  0.4736990000000  0.5084270000000 1.0
C      1  0.5099910000000  0.5469700000000  0.5391840000000 1.0
C      1  0.4986280000000  0.4534940000000  0.4239120000000 1.0
C      1  0.5603680000000  0.5132880000000  0.5536510000000 1.0
C      1  0.5322470000000  0.4129870000000  0.4825620000000 1.0
C      1  0.4711960000000  0.5025060000000  0.4572280000000 1.0
C      1  0.5710550000000  0.5567900000000  0.4896990000000 1.0
C      1  0.5201040000000  0.5859390000000  0.5148840000000 1.0
C      1  0.4842150000000  0.5176570000000  0.5006140000000 1.0
C      1  0.4279780000000  0.5020030000000  0.4813810000000 1.0
C      1  0.4081510000000  0.5640520000000  0.4484210000000 1.0
C      1  0.5500060000000  0.4720060000000  0.4331180000000 1.0
C      1  0.4197760000000  0.4776500000000  0.5038100000000 1.0
C      1  0.4879470000000  0.5667190000000  0.5462010000000 1.0
C      1  0.5809390000000  0.5334280000000  0.5069790000000 1.0
C      1  0.4739990000000  0.4592940000000  0.5703460000000 1.0
C      1  0.5434430000000  0.5486370000000  0.4756650000000 1.0
C      1  0.5280470000000  0.4670810000000  0.4982270000000 1.0
C      1  0.5433700000000  0.5673800000000  0.5297820000000 1.0
C      1  0.4558830000000  0.4425940000000  0.4489040000000 1.0
C      1  0.5610440000000  0.4821160000000  0.5141230000000 1.0
C      1  0.5184860000000  0.5472740000000  0.4360270000000 1.0
C      1  0.4885130000000  0.4828170000000  0.4111550000000 1.0
C      1  0.5374000000000  0.4409070000000  0.5909170000000 1.0
C      1  0.5415950000000  0.4976520000000  0.4916060000000 1.0
C      1  0.5046220000000  0.5643220000000  0.4539960000000 1.0
C      1  0.5254740000000  0.4429000000000  0.5213560000000 1.0
END
