TITL C-2778424-3986-105 -5.94130977689798e-06 125000 -143.652700294299 0 0 25 (Cs) n - 1
REM
REM in /home/nfs/bkarasulu/CARBON/AIRSS/Generating-Clusters/REBO/Only-C1/SD-CG/HFTN-CG
REM
REM
REM
REM
REM
REM ./C.cell (11c1c37f851c82e70ff6c80c92926a4b)
REM
REM compiler GCC version 9.2.1 20190827 (Red Hat 9.2.1-1)
REM options -cpp -mtune=generic -march=x86-64 -g -O0 -fpre-include=/usr/include/finclude/math-vector-fortran.h
REM seed 337287756 -1825650225 358490107 -21677154 -113015736 -1033516357 1010341664 381685423 1296203266 -1361172224 738212185 -1854014548 80842671 -1132511175 1630484106 -1360737853 -448670774 -147096695 -1480785035 -1680434941 -460141629 -1250874657 -416013364 -543938348 -2078283686 -1937180236 -232605159 -819372452 2042773672 814682330 -254360834 2132436240 -622429596
REM
CELL 1.54180   50.00000   50.00000   50.00000   90.00000   90.00000   90.00000
LATT -1
SFAC C  
C      1  0.5051830000000  0.3087600000000  0.4826020000000 1.0
C      1  0.5044930000000  0.4415340000000  0.4926380000000 1.0
C      1  0.4998140000000  0.6886140000000  0.5136990000000 1.0
C      1  0.4995450000000  0.7413010000000  0.5176780000000 1.0
C      1  0.5443220000000  0.4759150000000  0.4671340000000 1.0
C      1  0.5002220000000  0.6089490000000  0.5076820000000 1.0
C      1  0.5049070000000  0.3618700000000  0.4866170000000 1.0
C      1  0.5043480000000  0.4692940000000  0.4947370000000 1.0
C      1  0.4810220000000  0.5114690000000  0.5141560000000 1.0
C      1  0.5050450000000  0.3353150000000  0.4846100000000 1.0
C      1  0.4999500000000  0.6620590000000  0.5116930000000 1.0
C      1  0.5000860000000  0.6355040000000  0.5096870000000 1.0
C      1  0.4848200000000  0.4837090000000  0.5094920000000 1.0
C      1  0.4601890000000  0.5216960000000  0.5295260000000 1.0
C      1  0.5003570000000  0.5823940000000  0.5056760000000 1.0
C      1  0.5046310000000  0.4149790000000  0.4906310000000 1.0
C      1  0.5006350000000  0.5280830000000  0.5015740000000 1.0
C      1  0.5201460000000  0.5136380000000  0.4868300000000 1.0
C      1  0.5239950000000  0.4858800000000  0.4821290000000 1.0
C      1  0.5004930000000  0.5558400000000  0.5036700000000 1.0
C      1  0.4996780000000  0.7151690000000  0.5157040000000 1.0
C      1  0.5053210000000  0.2822060000000  0.4805950000000 1.0
C      1  0.5047690000000  0.3884250000000  0.4886240000000 1.0
C      1  0.4405750000000  0.5313240000000  0.5439970000000 1.0
C      1  0.5054570000000  0.2560730000000  0.4786200000000 1.0
END
