TITL C-2778424-3986-1483 0.00475557687468538 125000 -1104.12828239082 0 0 190 (C1) n - 1
REM
REM in /home/nfs/bkarasulu/CARBON/AIRSS/Generating-Clusters/REBO/Only-C1/SD-CG/HFTN-CG
REM
REM
REM
REM
REM
REM ./C.cell (11c1c37f851c82e70ff6c80c92926a4b)
REM
REM compiler GCC version 9.2.1 20190827 (Red Hat 9.2.1-1)
REM options -cpp -mtune=generic -march=x86-64 -g -O0 -fpre-include=/usr/include/finclude/math-vector-fortran.h
REM seed -2127185442 -850164630 794919807 1827400207 697112542 -1336268530 -216906390 875963101 1148599892 418102815 -1628557659 252356179 -747161255 -2010717135 2039788863 -847801649 856549098 -1600467059 4970482 988816619 -1862079115 -1293727020 -2057750283 1991601931 -999648471 -1791633351 -360089917 1937874811 -596589344 6553841 824371686 1596658920 1427858697
REM
CELL 1.54180   50.00000   50.00000   50.00000   90.00000   90.00000   90.00000
LATT -1
SFAC C  
C      1  0.3881450000000  0.5099250000000  0.4655280000000 1.0
C      1  0.4154980000000  0.4392050000000  0.4897800000000 1.0
C      1  0.5398790000000  0.5089490000000  0.5493290000000 1.0
C      1  0.4994370000000  0.4682300000000  0.5192350000000 1.0
C      1  0.4781880000000  0.4428380000000  0.4634700000000 1.0
C      1  0.5404950000000  0.4185320000000  0.5121140000000 1.0
C      1  0.4946580000000  0.4873520000000  0.6079000000000 1.0
C      1  0.5311960000000  0.5170360000000  0.4022250000000 1.0
C      1  0.4961350000000  0.5125520000000  0.4832650000000 1.0
C      1  0.4943820000000  0.5059420000000  0.5568740000000 1.0
C      1  0.5213490000000  0.4084000000000  0.5375790000000 1.0
C      1  0.4300360000000  0.5095190000000  0.5242440000000 1.0
C      1  0.4350220000000  0.5424710000000  0.4923130000000 1.0
C      1  0.4140200000000  0.5223170000000  0.4206130000000 1.0
C      1  0.4794130000000  0.4417450000000  0.5927960000000 1.0
C      1  0.5585930000000  0.4999780000000  0.4135560000000 1.0
C      1  0.3939030000000  0.4261790000000  0.4773080000000 1.0
C      1  0.5544850000000  0.5474470000000  0.5069990000000 1.0
C      1  0.4339300000000  0.5002750000000  0.4092620000000 1.0
C      1  0.4712210000000  0.5518030000000  0.3878720000000 1.0
C      1  0.4066490000000  0.4558520000000  0.5173110000000 1.0
C      1  0.3932030000000  0.5679190000000  0.4933170000000 1.0
C      1  0.5171800000000  0.5029180000000  0.5991800000000 1.0
C      1  0.4628490000000  0.5287800000000  0.3753990000000 1.0
C      1  0.4663500000000  0.4992040000000  0.6109180000000 1.0
C      1  0.4473470000000  0.5089530000000  0.3858040000000 1.0
C      1  0.5471990000000  0.4269520000000  0.5503440000000 1.0
C      1  0.4703400000000  0.4550780000000  0.5168710000000 1.0
C      1  0.4425090000000  0.5893640000000  0.5201920000000 1.0
C      1  0.4444200000000  0.5377020000000  0.4255350000000 1.0
C      1  0.4705060000000  0.5201110000000  0.5678120000000 1.0
C      1  0.4660450000000  0.4353740000000  0.5390860000000 1.0
C      1  0.6143130000000  0.4673120000000  0.5203100000000 1.0
C      1  0.4381010000000  0.4192930000000  0.5321080000000 1.0
C      1  0.5035920000000  0.5907970000000  0.4492890000000 1.0
C      1  0.5870040000000  0.5095850000000  0.5147270000000 1.0
C      1  0.5470020000000  0.4846220000000  0.4482620000000 1.0
C      1  0.5183350000000  0.5728050000000  0.4314750000000 1.0
C      1  0.5101510000000  0.5661470000000  0.4891610000000 1.0
C      1  0.4425420000000  0.4722170000000  0.5207850000000 1.0
C      1  0.5688970000000  0.4955830000000  0.5828130000000 1.0
C      1  0.6134520000000  0.4935830000000  0.4501540000000 1.0
C      1  0.6071640000000  0.4803740000000  0.4737770000000 1.0
C      1  0.5285280000000  0.4466470000000  0.4698690000000 1.0
C      1  0.4857370000000  0.4824330000000  0.3908110000000 1.0
C      1  0.5012860000000  0.4103230000000  0.4234000000000 1.0
C      1  0.5551000000000  0.4954620000000  0.4759550000000 1.0
C      1  0.5961290000000  0.5152510000000  0.5466030000000 1.0
C      1  0.4646260000000  0.5485480000000  0.5528010000000 1.0
C      1  0.4635380000000  0.5356710000000  0.5037300000000 1.0
C      1  0.5056390000000  0.5574290000000  0.5274420000000 1.0
C      1  0.5190490000000  0.5361930000000  0.5486670000000 1.0
C      1  0.5164430000000  0.3982780000000  0.5054100000000 1.0
C      1  0.4387220000000  0.4205020000000  0.4991410000000 1.0
C      1  0.4636180000000  0.4872640000000  0.5399280000000 1.0
C      1  0.5267360000000  0.6100470000000  0.5046970000000 1.0
C      1  0.5861770000000  0.5576510000000  0.5144980000000 1.0
C      1  0.4898570000000  0.5990180000000  0.5555020000000 1.0
C      1  0.4796910000000  0.5737180000000  0.4957290000000 1.0
C      1  0.5717870000000  0.4079670000000  0.5110380000000 1.0
C      1  0.5729040000000  0.5272830000000  0.4279560000000 1.0
C      1  0.5005650000000  0.5352390000000  0.4351670000000 1.0
C      1  0.5327680000000  0.4077020000000  0.4276840000000 1.0
C      1  0.4228660000000  0.5661350000000  0.5342270000000 1.0
C      1  0.5949000000000  0.5480030000000  0.5432120000000 1.0
C      1  0.4787750000000  0.4692740000000  0.5558540000000 1.0
C      1  0.4676150000000  0.4936800000000  0.4864570000000 1.0
C      1  0.4574280000000  0.4060090000000  0.4452990000000 1.0
C      1  0.5051160000000  0.4449060000000  0.4948000000000 1.0
C      1  0.5919000000000  0.4914720000000  0.5627900000000 1.0
C      1  0.4342540000000  0.4990810000000  0.4559450000000 1.0
C      1  0.5178970000000  0.5032320000000  0.5711850000000 1.0
C      1  0.5598710000000  0.4207210000000  0.4438020000000 1.0
C      1  0.4658580000000  0.4681190000000  0.4030380000000 1.0
C      1  0.4344990000000  0.5516380000000  0.5548900000000 1.0
C      1  0.5152640000000  0.4777610000000  0.4731720000000 1.0
C      1  0.5674390000000  0.4693990000000  0.4269360000000 1.0
C      1  0.4025490000000  0.5520600000000  0.5196110000000 1.0
C      1  0.6174310000000  0.4962050000000  0.5188700000000 1.0
C      1  0.4841590000000  0.4729450000000  0.4674710000000 1.0
C      1  0.5470870000000  0.5463450000000  0.5373980000000 1.0
C      1  0.5897380000000  0.5320030000000  0.4964210000000 1.0
C      1  0.4361700000000  0.4423010000000  0.5646470000000 1.0
C      1  0.4671910000000  0.6007390000000  0.5348990000000 1.0
C      1  0.4902480000000  0.4153710000000  0.5027940000000 1.0
C      1  0.4072620000000  0.4800330000000  0.4477670000000 1.0
C      1  0.5233700000000  0.4303700000000  0.5708840000000 1.0
C      1  0.5089430000000  0.4964790000000  0.3970800000000 1.0
C      1  0.4741080000000  0.5563690000000  0.5241170000000 1.0
C      1  0.5711830000000  0.4545710000000  0.4995610000000 1.0
C      1  0.5378350000000  0.5226630000000  0.6065760000000 1.0
C      1  0.4635270000000  0.5574560000000  0.4143260000000 1.0
C      1  0.5562470000000  0.4388730000000  0.4800900000000 1.0
C      1  0.4988420000000  0.4494380000000  0.5569010000000 1.0
C      1  0.5515150000000  0.5758720000000  0.5523360000000 1.0
C      1  0.4625570000000  0.5226260000000  0.5968850000000 1.0
C      1  0.5216650000000  0.5425270000000  0.4153410000000 1.0
C      1  0.4968840000000  0.5475510000000  0.4641740000000 1.0
C      1  0.4384710000000  0.4555760000000  0.4426980000000 1.0
C      1  0.4811270000000  0.3908060000000  0.4319190000000 1.0
C      1  0.5241580000000  0.5921320000000  0.5569570000000 1.0
C      1  0.4706370000000  0.5760740000000  0.4323640000000 1.0
C      1  0.5595700000000  0.5232570000000  0.5861850000000 1.0
C      1  0.4667510000000  0.4343860000000  0.4915180000000 1.0
C      1  0.5538320000000  0.4660410000000  0.5842220000000 1.0
C      1  0.5781110000000  0.5832890000000  0.4942370000000 1.0
C      1  0.3989010000000  0.4530950000000  0.4376710000000 1.0
C      1  0.5769390000000  0.4428880000000  0.4460970000000 1.0
C      1  0.5977570000000  0.5140390000000  0.4431670000000 1.0
C      1  0.5165980000000  0.6095500000000  0.4663910000000 1.0
C      1  0.5454690000000  0.6014920000000  0.4788930000000 1.0
C      1  0.4522770000000  0.5900750000000  0.4873230000000 1.0
C      1  0.5707470000000  0.4481340000000  0.5607000000000 1.0
C      1  0.5944960000000  0.4429450000000  0.4691120000000 1.0
C      1  0.4257960000000  0.5732550000000  0.4951000000000 1.0
C      1  0.5336000000000  0.4491310000000  0.5119150000000 1.0
C      1  0.5214900000000  0.4857510000000  0.4250170000000 1.0
C      1  0.4430770000000  0.4746890000000  0.4198160000000 1.0
C      1  0.5122270000000  0.4031330000000  0.5796640000000 1.0
C      1  0.5714820000000  0.4372430000000  0.5284030000000 1.0
C      1  0.4184290000000  0.5233110000000  0.4740720000000 1.0
C      1  0.4866340000000  0.4089190000000  0.4628310000000 1.0
C      1  0.4557890000000  0.5229470000000  0.4488770000000 1.0
C      1  0.4429890000000  0.4693960000000  0.5743080000000 1.0
C      1  0.4321500000000  0.4586010000000  0.4703530000000 1.0
C      1  0.4263200000000  0.4785180000000  0.5502330000000 1.0
C      1  0.4672180000000  0.4705020000000  0.5941090000000 1.0
C      1  0.3923080000000  0.5058880000000  0.4337760000000 1.0
C      1  0.4991540000000  0.4992260000000  0.5264300000000 1.0
C      1  0.5431200000000  0.4764760000000  0.5557240000000 1.0
C      1  0.5094540000000  0.5344980000000  0.5024030000000 1.0
C      1  0.5693630000000  0.5550880000000  0.4436750000000 1.0
C      1  0.4192460000000  0.5273300000000  0.5637630000000 1.0
C      1  0.4428690000000  0.4280070000000  0.4367480000000 1.0
C      1  0.4424960000000  0.5687530000000  0.6160580000000 1.0
C      1  0.5244760000000  0.4595120000000  0.5408990000000 1.0
C      1  0.5414780000000  0.5594890000000  0.4456470000000 1.0
C      1  0.4927130000000  0.4372240000000  0.4355100000000 1.0
C      1  0.4061770000000  0.4861950000000  0.4812160000000 1.0
C      1  0.5155640000000  0.5065990000000  0.4583200000000 1.0
C      1  0.5578480000000  0.4972970000000  0.5156090000000 1.0
C      1  0.5761230000000  0.6103960000000  0.4769940000000 1.0
C      1  0.5796210000000  0.4793330000000  0.4874730000000 1.0
C      1  0.4386190000000  0.5567300000000  0.4610690000000 1.0
C      1  0.5043640000000  0.4410940000000  0.6042710000000 1.0
C      1  0.5392620000000  0.5737310000000  0.4949080000000 1.0
C      1  0.4628890000000  0.4239850000000  0.5711560000000 1.0
C      1  0.4681670000000  0.5421350000000  0.4705980000000 1.0
C      1  0.3879790000000  0.5398010000000  0.4762470000000 1.0
C      1  0.5578000000000  0.5843240000000  0.5216060000000 1.0
C      1  0.4171940000000  0.5528240000000  0.4344910000000 1.0
C      1  0.6109460000000  0.4554480000000  0.4936870000000 1.0
C      1  0.5128150000000  0.3988760000000  0.4743350000000 1.0
C      1  0.5685250000000  0.4825360000000  0.5402910000000 1.0
C      1  0.4087340000000  0.5000600000000  0.5566580000000 1.0
C      1  0.5365440000000  0.4584940000000  0.4211120000000 1.0
C      1  0.4751010000000  0.5834320000000  0.4632010000000 1.0
C      1  0.5676940000000  0.5476430000000  0.5637700000000 1.0
C      1  0.4035360000000  0.5239580000000  0.5170380000000 1.0
C      1  0.6193690000000  0.5290700000000  0.5276640000000 1.0
C      1  0.5429710000000  0.5158070000000  0.4401240000000 1.0
C      1  0.5371590000000  0.5382900000000  0.6287030000000 1.0
C      1  0.5379700000000  0.4765910000000  0.4973650000000 1.0
C      1  0.5149160000000  0.5874540000000  0.5265190000000 1.0
C      1  0.5279400000000  0.5126270000000  0.5177040000000 1.0
C      1  0.4170250000000  0.4409830000000  0.5406810000000 1.0
C      1  0.4938950000000  0.5035010000000  0.4339490000000 1.0
C      1  0.4941200000000  0.4177140000000  0.5471010000000 1.0
C      1  0.4897870000000  0.6064340000000  0.5163190000000 1.0
C      1  0.4992190000000  0.6209640000000  0.4903590000000 1.0
C      1  0.4712290000000  0.5081360000000  0.5139810000000 1.0
C      1  0.4459410000000  0.5132930000000  0.5503480000000 1.0
C      1  0.4955630000000  0.5506430000000  0.5655200000000 1.0
C      1  0.5831220000000  0.5578950000000  0.4746660000000 1.0
C      1  0.4054400000000  0.5641350000000  0.4619640000000 1.0
C      1  0.5303310000000  0.5425360000000  0.4657240000000 1.0
C      1  0.5317260000000  0.4483890000000  0.5961490000000 1.0
C      1  0.5372370000000  0.4007670000000  0.4595360000000 1.0
C      1  0.5964240000000  0.4635110000000  0.5447580000000 1.0
C      1  0.4666700000000  0.4924050000000  0.4467360000000 1.0
C      1  0.4633340000000  0.4030190000000  0.5160380000000 1.0
C      1  0.5656580000000  0.4113520000000  0.4820110000000 1.0
C      1  0.4522630000000  0.5462960000000  0.6067240000000 1.0
C      1  0.5810990000000  0.5247920000000  0.4667070000000 1.0
C      1  0.4056220000000  0.4895880000000  0.5130160000000 1.0
C      1  0.5014320000000  0.5767960000000  0.5746210000000 1.0
C      1  0.4385100000000  0.4819760000000  0.4915920000000 1.0
C      1  0.4668300000000  0.3975530000000  0.5496180000000 1.0
C      1  0.5243610000000  0.4384200000000  0.4397160000000 1.0
C      1  0.5513900000000  0.5274310000000  0.4825740000000 1.0
END
