TITL C-2778427-5640-632 0.00115318338550264 125000 -386.243055865231 0 0 69 (C1) n - 1
REM
REM in /home/nfs/bkarasulu/CARBON/AIRSS/Generating-Clusters/REBO/Only-C1/SD-CG/HFTN-CG
REM
REM
REM
REM
REM
REM ./C.cell (11c1c37f851c82e70ff6c80c92926a4b)
REM
REM compiler GCC version 9.2.1 20190827 (Red Hat 9.2.1-1)
REM options -cpp -mtune=generic -march=x86-64 -g -O0 -fpre-include=/usr/include/finclude/math-vector-fortran.h
REM seed -2034104015 -2029415796 -559457122 -2120732936 -1630886689 -2030865721 -1642639044 1260068366 1244360120 -1544498570 -636978302 -1476837006 1572586434 32036266 -440062744 246320328 2055230265 -359605161 1252356450 -835912235 2098898959 -1830729413 1410800446 -1784026608 -666732405 67763478 1300088863 422672423 -20466076 728543103 -1626868496 924993422 -538561738
REM
CELL 1.54180   50.00000   50.00000   50.00000   90.00000   90.00000   90.00000
LATT -1
SFAC C  
C      1  0.4968200000000  0.5020460000000  0.5597490000000 1.0
C      1  0.4850280000000  0.5003710000000  0.4947090000000 1.0
C      1  0.4575390000000  0.4895560000000  0.5002730000000 1.0
C      1  0.5015800000000  0.4490430000000  0.4398110000000 1.0
C      1  0.4782090000000  0.4176310000000  0.5355280000000 1.0
C      1  0.5413670000000  0.4967380000000  0.4765340000000 1.0
C      1  0.4956310000000  0.5102610000000  0.4638080000000 1.0
C      1  0.4526890000000  0.5043060000000  0.5380110000000 1.0
C      1  0.5365920000000  0.5473630000000  0.4645050000000 1.0
C      1  0.4880060000000  0.4642270000000  0.5232630000000 1.0
C      1  0.5397000000000  0.5293670000000  0.5411730000000 1.0
C      1  0.4817520000000  0.5249360000000  0.5709910000000 1.0
C      1  0.4714280000000  0.5783500000000  0.5069030000000 1.0
C      1  0.4865320000000  0.5293260000000  0.5054140000000 1.0
C      1  0.5458250000000  0.4449420000000  0.4698780000000 1.0
C      1  0.4599610000000  0.4431630000000  0.5424130000000 1.0
C      1  0.5826370000000  0.4839870000000  0.4898260000000 1.0
C      1  0.4521890000000  0.5249050000000  0.5622700000000 1.0
C      1  0.5730060000000  0.5084620000000  0.4999800000000 1.0
C      1  0.4832260000000  0.4130700000000  0.5066940000000 1.0
C      1  0.4388140000000  0.4584640000000  0.4841970000000 1.0
C      1  0.5527110000000  0.5044980000000  0.5222670000000 1.0
C      1  0.5141600000000  0.4732550000000  0.4596070000000 1.0
C      1  0.4893140000000  0.5009690000000  0.4246450000000 1.0
C      1  0.4808930000000  0.4795060000000  0.4609200000000 1.0
C      1  0.5483560000000  0.5601210000000  0.5287730000000 1.0
C      1  0.4994610000000  0.4401120000000  0.5392080000000 1.0
C      1  0.4583890000000  0.5314930000000  0.4613190000000 1.0
C      1  0.4690490000000  0.5519630000000  0.4868070000000 1.0
C      1  0.4591300000000  0.5338750000000  0.5240490000000 1.0
C      1  0.4627240000000  0.4856210000000  0.4336090000000 1.0
C      1  0.4629450000000  0.5531660000000  0.5500950000000 1.0
C      1  0.5166130000000  0.5356790000000  0.5093480000000 1.0
C      1  0.4912830000000  0.5659580000000  0.4652770000000 1.0
C      1  0.5106280000000  0.4248630000000  0.4950420000000 1.0
C      1  0.5684130000000  0.5018670000000  0.4572480000000 1.0
C      1  0.5121440000000  0.4861310000000  0.4293270000000 1.0
C      1  0.5610400000000  0.4986390000000  0.5547090000000 1.0
C      1  0.5292920000000  0.5010140000000  0.5572710000000 1.0
C      1  0.4871590000000  0.5549640000000  0.4394270000000 1.0
C      1  0.4473010000000  0.4614240000000  0.5164510000000 1.0
C      1  0.4254200000000  0.4808080000000  0.4732130000000 1.0
C      1  0.5400030000000  0.4549210000000  0.5191700000000 1.0
C      1  0.5636350000000  0.5297920000000  0.4754920000000 1.0
C      1  0.4494270000000  0.4744600000000  0.5477520000000 1.0
C      1  0.5287900000000  0.4380310000000  0.4478750000000 1.0
C      1  0.5113470000000  0.4718580000000  0.5602240000000 1.0
C      1  0.4782630000000  0.4638850000000  0.5627210000000 1.0
C      1  0.4455530000000  0.5038890000000  0.4534920000000 1.0
C      1  0.5225260000000  0.5220620000000  0.4785710000000 1.0
C      1  0.5347460000000  0.5707630000000  0.4987040000000 1.0
C      1  0.5612650000000  0.4703060000000  0.4685180000000 1.0
C      1  0.5185320000000  0.5775470000000  0.5260770000000 1.0
C      1  0.4400880000000  0.5372570000000  0.4981330000000 1.0
C      1  0.4829580000000  0.4901110000000  0.5332190000000 1.0
C      1  0.5359210000000  0.4373170000000  0.4957200000000 1.0
C      1  0.4898880000000  0.5275590000000  0.4370050000000 1.0
C      1  0.5124530000000  0.4852810000000  0.4900840000000 1.0
C      1  0.5342990000000  0.4822260000000  0.5128760000000 1.0
C      1  0.4845880000000  0.4456980000000  0.4979080000000 1.0
C      1  0.4770700000000  0.4551170000000  0.4295020000000 1.0
C      1  0.5494840000000  0.5405950000000  0.5015280000000 1.0
C      1  0.4918100000000  0.5513310000000  0.5609000000000 1.0
C      1  0.4905000000000  0.5886170000000  0.5193780000000 1.0
C      1  0.4677490000000  0.4580000000000  0.4775180000000 1.0
C      1  0.5124240000000  0.5490450000000  0.5404840000000 1.0
C      1  0.4356560000000  0.5097900000000  0.4859570000000 1.0
C      1  0.5277730000000  0.4477510000000  0.5444390000000 1.0
C      1  0.5182950000000  0.5703540000000  0.4722110000000 1.0
END
