TITL C-2778423-5760-62 0.00117381551468001 125000 -912.876584962815 0 0 158 (C1) n - 1
REM
REM in /home/nfs/bkarasulu/CARBON/AIRSS/Generating-Clusters/REBO/Only-C1/SD-CG/HFTN-CG
REM
REM
REM
REM
REM
REM ./C.cell (11c1c37f851c82e70ff6c80c92926a4b)
REM
REM compiler GCC version 9.2.1 20190827 (Red Hat 9.2.1-1)
REM options -cpp -mtune=generic -march=x86-64 -g -O0 -fpre-include=/usr/include/finclude/math-vector-fortran.h
REM seed -1434248681 1039088209 -409202428 -1465443261 -729337141 -1034464762 -1669351575 -776974621 -2027037102 -380938535 -1392115241 -23624029 1791850678 -310830205 418507217 -960010229 -396924630 610786415 981780985 -411660378 2039816989 1747227418 -1416135114 -1327670361 -417241365 -2112553600 1344314687 2127120031 -1249530479 -1115890666 -1714695984 -2095958411 709627371
REM
CELL 1.54180   50.00000   50.00000   50.00000   90.00000   90.00000   90.00000
LATT -1
SFAC C  
C      1  0.5640950000000  0.5132340000000  0.5797880000000 1.0
C      1  0.3871260000000  0.4678980000000  0.5188250000000 1.0
C      1  0.4483860000000  0.5628930000000  0.5195450000000 1.0
C      1  0.3941130000000  0.4898850000000  0.4741260000000 1.0
C      1  0.4491720000000  0.5444090000000  0.4151900000000 1.0
C      1  0.4759090000000  0.5979190000000  0.5202460000000 1.0
C      1  0.4734080000000  0.4686620000000  0.5176590000000 1.0
C      1  0.5240500000000  0.5865060000000  0.4179920000000 1.0
C      1  0.4912790000000  0.5407980000000  0.4123200000000 1.0
C      1  0.5218380000000  0.4967000000000  0.4538320000000 1.0
C      1  0.4370910000000  0.4847810000000  0.5153610000000 1.0
C      1  0.5371000000000  0.5216050000000  0.5839920000000 1.0
C      1  0.5748750000000  0.5621570000000  0.4634860000000 1.0
C      1  0.5176480000000  0.4225070000000  0.5043790000000 1.0
C      1  0.5891350000000  0.4862070000000  0.4454750000000 1.0
C      1  0.5669640000000  0.4834130000000  0.5782540000000 1.0
C      1  0.4397080000000  0.5402250000000  0.5694350000000 1.0
C      1  0.4271370000000  0.4467190000000  0.4936910000000 1.0
C      1  0.4485360000000  0.4707990000000  0.4864470000000 1.0
C      1  0.4625750000000  0.4063860000000  0.5415260000000 1.0
C      1  0.4580430000000  0.5110620000000  0.4467900000000 1.0
C      1  0.5231180000000  0.4611690000000  0.4157290000000 1.0
C      1  0.4734750000000  0.4666260000000  0.4704920000000 1.0
C      1  0.5047000000000  0.4697920000000  0.4778940000000 1.0
C      1  0.4384670000000  0.4541090000000  0.5795080000000 1.0
C      1  0.4601340000000  0.5666710000000  0.5717200000000 1.0
C      1  0.5782900000000  0.4573290000000  0.5730260000000 1.0
C      1  0.5107600000000  0.5685290000000  0.5668550000000 1.0
C      1  0.5979120000000  0.4667190000000  0.4646240000000 1.0
C      1  0.4665970000000  0.5438940000000  0.4435660000000 1.0
C      1  0.5047480000000  0.4614950000000  0.5272610000000 1.0
C      1  0.5575090000000  0.4353130000000  0.5748630000000 1.0
C      1  0.4477140000000  0.4463670000000  0.5179730000000 1.0
C      1  0.4581370000000  0.4180470000000  0.5174080000000 1.0
C      1  0.4887910000000  0.5176600000000  0.5877860000000 1.0
C      1  0.3954340000000  0.5609300000000  0.5058640000000 1.0
C      1  0.4448660000000  0.5409660000000  0.4693750000000 1.0
C      1  0.4778490000000  0.5795270000000  0.5471050000000 1.0
C      1  0.4361670000000  0.4835130000000  0.5706800000000 1.0
C      1  0.4701690000000  0.4527680000000  0.4424530000000 1.0
C      1  0.4871940000000  0.5345800000000  0.4957170000000 1.0
C      1  0.4920180000000  0.5203460000000  0.4655910000000 1.0
C      1  0.5149660000000  0.5057490000000  0.5933850000000 1.0
C      1  0.4910400000000  0.4717260000000  0.5707850000000 1.0
C      1  0.4046190000000  0.5128090000000  0.5370710000000 1.0
C      1  0.5383560000000  0.4119490000000  0.5214740000000 1.0
C      1  0.5538810000000  0.4435870000000  0.4584500000000 1.0
C      1  0.4826350000000  0.4910840000000  0.4507510000000 1.0
C      1  0.5106240000000  0.5211590000000  0.3967820000000 1.0
C      1  0.4895490000000  0.4821460000000  0.4197860000000 1.0
C      1  0.5169680000000  0.4744480000000  0.5926180000000 1.0
C      1  0.5483400000000  0.5213640000000  0.5354710000000 1.0
C      1  0.4291390000000  0.5698940000000  0.5605450000000 1.0
C      1  0.5681870000000  0.4536300000000  0.5411930000000 1.0
C      1  0.5919320000000  0.5365050000000  0.5080940000000 1.0
C      1  0.5794990000000  0.4986740000000  0.5043980000000 1.0
C      1  0.4014530000000  0.5205130000000  0.4776680000000 1.0
C      1  0.4875340000000  0.3996110000000  0.5519060000000 1.0
C      1  0.5553600000000  0.5263640000000  0.4188390000000 1.0
C      1  0.5068570000000  0.5217810000000  0.4364010000000 1.0
C      1  0.5160780000000  0.4644670000000  0.4488650000000 1.0
C      1  0.5473840000000  0.4868190000000  0.5550990000000 1.0
C      1  0.6022800000000  0.4766930000000  0.4919690000000 1.0
C      1  0.5346080000000  0.3811400000000  0.5224320000000 1.0
C      1  0.4261740000000  0.5074510000000  0.4583130000000 1.0
C      1  0.5170160000000  0.4523090000000  0.5002830000000 1.0
C      1  0.4903130000000  0.4080140000000  0.4626830000000 1.0
C      1  0.5932640000000  0.5135000000000  0.4514510000000 1.0
C      1  0.5077710000000  0.6053720000000  0.5118180000000 1.0
C      1  0.3900480000000  0.5499410000000  0.4786790000000 1.0
C      1  0.5860930000000  0.4412670000000  0.4633980000000 1.0
C      1  0.4587970000000  0.5974750000000  0.4678240000000 1.0
C      1  0.4532000000000  0.5165380000000  0.4860370000000 1.0
C      1  0.4560190000000  0.4884880000000  0.4212250000000 1.0
C      1  0.5358510000000  0.5825330000000  0.4434210000000 1.0
C      1  0.5301720000000  0.5377590000000  0.4167580000000 1.0
C      1  0.4986120000000  0.4889040000000  0.5450010000000 1.0
C      1  0.5006390000000  0.4979690000000  0.4885740000000 1.0
C      1  0.4458590000000  0.5701340000000  0.4810460000000 1.0
C      1  0.4706660000000  0.4683290000000  0.5984000000000 1.0
C      1  0.5383210000000  0.5943080000000  0.5005240000000 1.0
C      1  0.4277260000000  0.5356620000000  0.4400970000000 1.0
C      1  0.5529660000000  0.5600540000000  0.4868770000000 1.0
C      1  0.5052310000000  0.3919590000000  0.5312660000000 1.0
C      1  0.5443470000000  0.4310020000000  0.5440890000000 1.0
C      1  0.5711960000000  0.5501840000000  0.5201500000000 1.0
C      1  0.5975320000000  0.5136550000000  0.5298870000000 1.0
C      1  0.5074830000000  0.5940390000000  0.5442610000000 1.0
C      1  0.4358220000000  0.5141150000000  0.4140750000000 1.0
C      1  0.4642490000000  0.5326640000000  0.5219890000000 1.0
C      1  0.4928520000000  0.4490250000000  0.4180610000000 1.0
C      1  0.5706410000000  0.5349160000000  0.4435700000000 1.0
C      1  0.5399920000000  0.5032680000000  0.5079720000000 1.0
C      1  0.5518900000000  0.4989530000000  0.4134190000000 1.0
C      1  0.4977930000000  0.4282150000000  0.5748090000000 1.0
C      1  0.5508910000000  0.4565260000000  0.4312730000000 1.0
C      1  0.4000730000000  0.4632100000000  0.4923380000000 1.0
C      1  0.5275770000000  0.4457100000000  0.5777820000000 1.0
C      1  0.5775380000000  0.5234480000000  0.5526170000000 1.0
C      1  0.4715520000000  0.4559800000000  0.5487600000000 1.0
C      1  0.5174220000000  0.4000790000000  0.4713870000000 1.0
C      1  0.5393460000000  0.5989480000000  0.5343030000000 1.0
C      1  0.4236020000000  0.4768800000000  0.4678810000000 1.0
C      1  0.5226450000000  0.5498490000000  0.4831040000000 1.0
C      1  0.4874490000000  0.5487690000000  0.5412040000000 1.0
C      1  0.4813610000000  0.4223120000000  0.4357170000000 1.0
C      1  0.5413300000000  0.4923960000000  0.4779920000000 1.0
C      1  0.4972070000000  0.4484570000000  0.6024450000000 1.0
C      1  0.5401420000000  0.5637980000000  0.5162190000000 1.0
C      1  0.4345860000000  0.5158300000000  0.5209810000000 1.0
C      1  0.5582330000000  0.5512970000000  0.5495310000000 1.0
C      1  0.5136570000000  0.4417240000000  0.5478700000000 1.0
C      1  0.5895280000000  0.4584640000000  0.5177080000000 1.0
C      1  0.4652550000000  0.4113600000000  0.4852010000000 1.0
C      1  0.5199050000000  0.5560750000000  0.4515410000000 1.0
C      1  0.5406880000000  0.5744990000000  0.5546910000000 1.0
C      1  0.5039520000000  0.5705170000000  0.4941070000000 1.0
C      1  0.5179370000000  0.5462230000000  0.5281590000000 1.0
C      1  0.5223430000000  0.5380490000000  0.5604630000000 1.0
C      1  0.5003390000000  0.5703270000000  0.4142280000000 1.0
C      1  0.3774850000000  0.5624840000000  0.4577070000000 1.0
C      1  0.4393660000000  0.4275400000000  0.4717860000000 1.0
C      1  0.5193270000000  0.4324150000000  0.4428870000000 1.0
C      1  0.4237370000000  0.5126110000000  0.5612170000000 1.0
C      1  0.4287050000000  0.5741700000000  0.5336230000000 1.0
C      1  0.4742950000000  0.5630820000000  0.4983410000000 1.0
C      1  0.4638830000000  0.4968950000000  0.5858420000000 1.0
C      1  0.4421490000000  0.4688100000000  0.5425220000000 1.0
C      1  0.4718880000000  0.4986440000000  0.5024760000000 1.0
C      1  0.4886940000000  0.5645520000000  0.4442370000000 1.0
C      1  0.5174410000000  0.3808050000000  0.4953020000000 1.0
C      1  0.4578580000000  0.5146110000000  0.5588860000000 1.0
C      1  0.4756300000000  0.5042400000000  0.5355070000000 1.0
C      1  0.4416150000000  0.4599920000000  0.4300210000000 1.0
C      1  0.4849940000000  0.5927990000000  0.4583650000000 1.0
C      1  0.5591420000000  0.4828600000000  0.5261690000000 1.0
C      1  0.4917240000000  0.4022660000000  0.5019450000000 1.0
C      1  0.5670170000000  0.4795720000000  0.4275220000000 1.0
C      1  0.4553200000000  0.5979480000000  0.4998690000000 1.0
C      1  0.3877680000000  0.4875180000000  0.5340910000000 1.0
C      1  0.4863230000000  0.5462020000000  0.5752020000000 1.0
C      1  0.6105350000000  0.4844900000000  0.5241070000000 1.0
C      1  0.4338910000000  0.4365590000000  0.4462770000000 1.0
C      1  0.5711880000000  0.4183280000000  0.4834400000000 1.0
C      1  0.4669050000000  0.4408800000000  0.5781380000000 1.0
C      1  0.5417670000000  0.5316710000000  0.4614500000000 1.0
C      1  0.5677950000000  0.4453210000000  0.4984260000000 1.0
C      1  0.5427450000000  0.4129450000000  0.4685370000000 1.0
C      1  0.5223940000000  0.5053980000000  0.5506400000000 1.0
C      1  0.5530970000000  0.5881500000000  0.4702040000000 1.0
C      1  0.4077830000000  0.5302650000000  0.5084870000000 1.0
C      1  0.5121660000000  0.4102750000000  0.4293340000000 1.0
C      1  0.5140450000000  0.5213000000000  0.5096180000000 1.0
C      1  0.5192560000000  0.4921730000000  0.4060630000000 1.0
C      1  0.5047800000000  0.5970370000000  0.4789420000000 1.0
C      1  0.5435140000000  0.4621570000000  0.4846150000000 1.0
C      1  0.5917740000000  0.5358840000000  0.4771360000000 1.0
C      1  0.5653840000000  0.5152000000000  0.4797810000000 1.0
END
