TITL C-2778426-5645-93 -0.000240678297115085 125000 -539.404038856633 0 0 93 (C1) n - 1
REM
REM in /home/nfs/bkarasulu/CARBON/AIRSS/Generating-Clusters/REBO/Only-C1/SD-CG/HFTN-CG
REM
REM
REM
REM
REM
REM ./C.cell (11c1c37f851c82e70ff6c80c92926a4b)
REM
REM compiler GCC version 9.2.1 20190827 (Red Hat 9.2.1-1)
REM options -cpp -mtune=generic -march=x86-64 -g -O0 -fpre-include=/usr/include/finclude/math-vector-fortran.h
REM seed 1453225381 634830422 548765281 -450137293 414227853 -1480737967 -1430545362 -1860428346 1890517414 -359782255 -1270738132 -736976167 854006391 -360117379 704078294 1492028289 2118782037 -220250922 659323499 914727321 -1897105206 -1446059890 1647813702 -1951783826 -1921162887 1388550882 1272734997 -1841761098 828559982 -1042696517 588310579 -2055879621 -1051901813
REM
CELL 1.54180   50.00000   50.00000   50.00000   90.00000   90.00000   90.00000
LATT -1
SFAC C  
C      1  0.4806440000000  0.4661200000000  0.4096640000000 1.0
C      1  0.5255030000000  0.4911480000000  0.4202180000000 1.0
C      1  0.5701880000000  0.5108310000000  0.4456350000000 1.0
C      1  0.5834050000000  0.5559710000000  0.5694950000000 1.0
C      1  0.5604950000000  0.4623270000000  0.5004940000000 1.0
C      1  0.5379630000000  0.5058530000000  0.4628350000000 1.0
C      1  0.4727560000000  0.4911410000000  0.3988060000000 1.0
C      1  0.5096350000000  0.5721260000000  0.5490460000000 1.0
C      1  0.4784050000000  0.5674570000000  0.5616910000000 1.0
C      1  0.4453780000000  0.5299700000000  0.4516850000000 1.0
C      1  0.4794310000000  0.4346860000000  0.5108590000000 1.0
C      1  0.5060020000000  0.4879470000000  0.5011320000000 1.0
C      1  0.5279910000000  0.5097960000000  0.5012220000000 1.0
C      1  0.4968260000000  0.4466290000000  0.4400800000000 1.0
C      1  0.5016860000000  0.4801750000000  0.5328390000000 1.0
C      1  0.5646530000000  0.4985280000000  0.5510240000000 1.0
C      1  0.4314350000000  0.5555550000000  0.4753320000000 1.0
C      1  0.4349460000000  0.4735960000000  0.4750630000000 1.0
C      1  0.5780250000000  0.4450640000000  0.4471960000000 1.0
C      1  0.4007620000000  0.5136570000000  0.4748680000000 1.0
C      1  0.5146410000000  0.4659000000000  0.4801070000000 1.0
C      1  0.4745870000000  0.4644190000000  0.5074860000000 1.0
C      1  0.4128920000000  0.5705540000000  0.5295940000000 1.0
C      1  0.5437150000000  0.5295710000000  0.4404270000000 1.0
C      1  0.5686530000000  0.4570540000000  0.5290930000000 1.0
C      1  0.5193400000000  0.5456320000000  0.4366460000000 1.0
C      1  0.5326540000000  0.4530420000000  0.4565680000000 1.0
C      1  0.5584710000000  0.5501260000000  0.5603280000000 1.0
C      1  0.4941540000000  0.4515950000000  0.5597400000000 1.0
C      1  0.4598210000000  0.4333170000000  0.4873780000000 1.0
C      1  0.5211610000000  0.4344300000000  0.4899670000000 1.0
C      1  0.4606260000000  0.5591550000000  0.5155720000000 1.0
C      1  0.4731610000000  0.4322380000000  0.4606310000000 1.0
C      1  0.4787230000000  0.4894180000000  0.5878800000000 1.0
C      1  0.5063010000000  0.5318620000000  0.5154330000000 1.0
C      1  0.5871530000000  0.5063640000000  0.4708420000000 1.0
C      1  0.5065420000000  0.4282530000000  0.5150890000000 1.0
C      1  0.4293380000000  0.5553650000000  0.5150760000000 1.0
C      1  0.5103210000000  0.4667860000000  0.4187030000000 1.0
C      1  0.4639450000000  0.4550630000000  0.4371340000000 1.0
C      1  0.5573910000000  0.5553930000000  0.4965930000000 1.0
C      1  0.4191620000000  0.5325380000000  0.4963980000000 1.0
C      1  0.5116440000000  0.5760300000000  0.5179400000000 1.0
C      1  0.4879340000000  0.5653470000000  0.4753480000000 1.0
C      1  0.5516840000000  0.4380840000000  0.4883620000000 1.0
C      1  0.5172670000000  0.4961480000000  0.5797650000000 1.0
C      1  0.4745710000000  0.4755860000000  0.4799950000000 1.0
C      1  0.5664410000000  0.4251270000000  0.4650360000000 1.0
C      1  0.5203820000000  0.4949180000000  0.6057580000000 1.0
C      1  0.5372840000000  0.5710190000000  0.5069090000000 1.0
C      1  0.4654520000000  0.4546220000000  0.5467240000000 1.0
C      1  0.5525720000000  0.4925050000000  0.5003480000000 1.0
C      1  0.4138500000000  0.5342010000000  0.4568370000000 1.0
C      1  0.5086070000000  0.5031330000000  0.4543200000000 1.0
C      1  0.4880390000000  0.5728860000000  0.5030900000000 1.0
C      1  0.5911410000000  0.5004410000000  0.4947940000000 1.0
C      1  0.5523430000000  0.4391560000000  0.5416080000000 1.0
C      1  0.4482220000000  0.4774580000000  0.4499840000000 1.0
C      1  0.4435800000000  0.4804400000000  0.5515590000000 1.0
C      1  0.3967390000000  0.5854720000000  0.5438540000000 1.0
C      1  0.5366240000000  0.4196110000000  0.4564070000000 1.0
C      1  0.4598230000000  0.5067350000000  0.4422650000000 1.0
C      1  0.4353270000000  0.5126760000000  0.5590880000000 1.0
C      1  0.5269430000000  0.4612690000000  0.5628090000000 1.0
C      1  0.4654960000000  0.5015890000000  0.5633370000000 1.0
C      1  0.5371010000000  0.5687260000000  0.5619060000000 1.0
C      1  0.5139450000000  0.4974690000000  0.5520550000000 1.0
C      1  0.5256350000000  0.5203720000000  0.5396940000000 1.0
C      1  0.5061290000000  0.5176810000000  0.4246950000000 1.0
C      1  0.4625790000000  0.5486810000000  0.4714560000000 1.0
C      1  0.4935880000000  0.5435880000000  0.5437890000000 1.0
C      1  0.5560250000000  0.5295300000000  0.4807740000000 1.0
C      1  0.5054430000000  0.4245040000000  0.4626200000000 1.0
C      1  0.5106850000000  0.5537240000000  0.4633060000000 1.0
C      1  0.5563650000000  0.4634600000000  0.4417480000000 1.0
C      1  0.4778540000000  0.5040720000000  0.5114410000000 1.0
C      1  0.5772040000000  0.4897760000000  0.5239190000000 1.0
C      1  0.5481670000000  0.4776530000000  0.5624570000000 1.0
C      1  0.4266330000000  0.4998010000000  0.4910370000000 1.0
C      1  0.5244910000000  0.5378760000000  0.4823670000000 1.0
C      1  0.4802490000000  0.5156860000000  0.5409660000000 1.0
C      1  0.4500280000000  0.4882100000000  0.5089340000000 1.0
C      1  0.4540930000000  0.5583570000000  0.5463470000000 1.0
C      1  0.5523450000000  0.4887500000000  0.4298150000000 1.0
C      1  0.4394650000000  0.4602800000000  0.5252980000000 1.0
C      1  0.4907430000000  0.4672460000000  0.5874720000000 1.0
C      1  0.4393450000000  0.4521850000000  0.4931530000000 1.0
C      1  0.4763750000000  0.5118640000000  0.4166200000000 1.0
C      1  0.4345730000000  0.5394040000000  0.5548360000000 1.0
C      1  0.4769830000000  0.5348000000000  0.4989610000000 1.0
C      1  0.4826760000000  0.4942240000000  0.4613980000000 1.0
C      1  0.5184450000000  0.4363690000000  0.5413530000000 1.0
C      1  0.5519910000000  0.5246050000000  0.5495770000000 1.0
END
