TITL C-2778430-5657-421 0.00829393750085508 125000 -937.718553234417 0 0 160 (C1) n - 1
REM
REM in /home/nfs/bkarasulu/CARBON/AIRSS/Generating-Clusters/REBO/Only-C1/SD-CG/HFTN-CG
REM
REM
REM
REM
REM
REM ./C.cell (11c1c37f851c82e70ff6c80c92926a4b)
REM
REM compiler GCC version 9.2.1 20190827 (Red Hat 9.2.1-1)
REM options -cpp -mtune=generic -march=x86-64 -g -O0 -fpre-include=/usr/include/finclude/math-vector-fortran.h
REM seed 799703132 1887620007 -994104146 1590138534 1503015437 -416986128 58358241 -164117711 -771074932 -940790898 -1075067304 112903457 649599049 2087080396 1272492891 2024114216 894734359 1203912890 -1286209919 -1554332836 487933793 1505487026 -1886684343 -664737285 1074166226 389651284 1595976572 1925358395 279562556 -730506676 -1318235274 1610862979 1576870839
REM
CELL 1.54180   50.00000   50.00000   50.00000   90.00000   90.00000   90.00000
LATT -1
SFAC C  
C      1  0.4681130000000  0.4837620000000  0.5294550000000 1.0
C      1  0.5151020000000  0.4796260000000  0.4101050000000 1.0
C      1  0.5877850000000  0.5402580000000  0.4351230000000 1.0
C      1  0.3863490000000  0.5126090000000  0.4919120000000 1.0
C      1  0.4974120000000  0.4704650000000  0.4941530000000 1.0
C      1  0.5146590000000  0.5251150000000  0.5450850000000 1.0
C      1  0.4962680000000  0.4935460000000  0.5685690000000 1.0
C      1  0.5387760000000  0.4678690000000  0.5809940000000 1.0
C      1  0.5115610000000  0.4501160000000  0.5371560000000 1.0
C      1  0.5738260000000  0.5643340000000  0.4525570000000 1.0
C      1  0.6028940000000  0.4707220000000  0.5305040000000 1.0
C      1  0.5980500000000  0.4737950000000  0.4725450000000 1.0
C      1  0.5120390000000  0.5587670000000  0.4584180000000 1.0
C      1  0.4449760000000  0.5778160000000  0.5126190000000 1.0
C      1  0.5468820000000  0.4776840000000  0.4729420000000 1.0
C      1  0.4188330000000  0.5479890000000  0.4831990000000 1.0
C      1  0.4781420000000  0.4495970000000  0.5865260000000 1.0
C      1  0.5326670000000  0.4741020000000  0.6102990000000 1.0
C      1  0.4328390000000  0.5472740000000  0.5599250000000 1.0
C      1  0.4993410000000  0.5513780000000  0.5345470000000 1.0
C      1  0.5782310000000  0.5243450000000  0.4851360000000 1.0
C      1  0.4476870000000  0.5788080000000  0.4522500000000 1.0
C      1  0.4941870000000  0.5348390000000  0.5713410000000 1.0
C      1  0.5343200000000  0.5913160000000  0.4921730000000 1.0
C      1  0.4657880000000  0.4517890000000  0.5339660000000 1.0
C      1  0.4475170000000  0.5058970000000  0.4609750000000 1.0
C      1  0.5690870000000  0.5128580000000  0.4275160000000 1.0
C      1  0.4561150000000  0.4753010000000  0.4923890000000 1.0
C      1  0.4840980000000  0.4649500000000  0.4658000000000 1.0
C      1  0.4380670000000  0.5234940000000  0.5080190000000 1.0
C      1  0.5139290000000  0.5314600000000  0.4044140000000 1.0
C      1  0.5156260000000  0.5122610000000  0.4328760000000 1.0
C      1  0.5458550000000  0.4946900000000  0.4099300000000 1.0
C      1  0.5293880000000  0.5639820000000  0.4306050000000 1.0
C      1  0.4977360000000  0.5303690000000  0.4530960000000 1.0
C      1  0.5921370000000  0.5552060000000  0.5048000000000 1.0
C      1  0.5827850000000  0.5800190000000  0.5148080000000 1.0
C      1  0.5683380000000  0.4507130000000  0.5500390000000 1.0
C      1  0.4156300000000  0.5125760000000  0.4518920000000 1.0
C      1  0.5126960000000  0.5624320000000  0.5090270000000 1.0
C      1  0.4758360000000  0.4010620000000  0.4966330000000 1.0
C      1  0.4976440000000  0.5064870000000  0.5992580000000 1.0
C      1  0.4542240000000  0.4627540000000  0.4120870000000 1.0
C      1  0.4576270000000  0.4902130000000  0.5590830000000 1.0
C      1  0.4418940000000  0.4293410000000  0.5628920000000 1.0
C      1  0.5402470000000  0.5583030000000  0.5276980000000 1.0
C      1  0.4944090000000  0.5725650000000  0.5581610000000 1.0
C      1  0.5421740000000  0.5183890000000  0.5599240000000 1.0
C      1  0.4699750000000  0.5157640000000  0.6102240000000 1.0
C      1  0.4336940000000  0.4832230000000  0.4164690000000 1.0
C      1  0.5068100000000  0.5620290000000  0.4081810000000 1.0
C      1  0.4234370000000  0.5236740000000  0.5811170000000 1.0
C      1  0.4844270000000  0.4260610000000  0.4380670000000 1.0
C      1  0.4688010000000  0.5939540000000  0.4693600000000 1.0
C      1  0.4606550000000  0.4369000000000  0.4247310000000 1.0
C      1  0.5993190000000  0.4397880000000  0.5275890000000 1.0
C      1  0.5443950000000  0.5404030000000  0.5834300000000 1.0
C      1  0.4748420000000  0.5853910000000  0.5005090000000 1.0
C      1  0.5829140000000  0.5222890000000  0.5427260000000 1.0
C      1  0.4928350000000  0.5903900000000  0.5292130000000 1.0
C      1  0.5574340000000  0.4448560000000  0.4408530000000 1.0
C      1  0.5679180000000  0.5534070000000  0.4803590000000 1.0
C      1  0.4442450000000  0.4962950000000  0.5120120000000 1.0
C      1  0.4927800000000  0.5994980000000  0.4547370000000 1.0
C      1  0.4771900000000  0.4045290000000  0.4628140000000 1.0
C      1  0.4469400000000  0.5341960000000  0.4769560000000 1.0
C      1  0.5516550000000  0.5316690000000  0.5315070000000 1.0
C      1  0.5131120000000  0.4876000000000  0.6180680000000 1.0
C      1  0.5203800000000  0.5287490000000  0.4893140000000 1.0
C      1  0.4335360000000  0.4510020000000  0.5423210000000 1.0
C      1  0.4234430000000  0.5608790000000  0.5081310000000 1.0
C      1  0.4611800000000  0.5806890000000  0.5375740000000 1.0
C      1  0.5855550000000  0.4899850000000  0.5532310000000 1.0
C      1  0.5086500000000  0.4201400000000  0.4922940000000 1.0
C      1  0.4085250000000  0.4691030000000  0.4310800000000 1.0
C      1  0.6041110000000  0.4897150000000  0.5019870000000 1.0
C      1  0.4388720000000  0.4276430000000  0.4442270000000 1.0
C      1  0.4478090000000  0.5340920000000  0.4221540000000 1.0
C      1  0.5271660000000  0.4508150000000  0.4248990000000 1.0
C      1  0.4787820000000  0.5287280000000  0.5245930000000 1.0
C      1  0.5038200000000  0.4479110000000  0.4455960000000 1.0
C      1  0.5561050000000  0.4212230000000  0.4629270000000 1.0
C      1  0.5169600000000  0.5320910000000  0.5937850000000 1.0
C      1  0.5338870000000  0.4078860000000  0.4740910000000 1.0
C      1  0.4096890000000  0.4659400000000  0.5234320000000 1.0
C      1  0.5932500000000  0.4933650000000  0.4527160000000 1.0
C      1  0.4751580000000  0.4267470000000  0.5193880000000 1.0
C      1  0.5822190000000  0.4507480000000  0.4637300000000 1.0
C      1  0.4939340000000  0.5823110000000  0.4309220000000 1.0
C      1  0.5227160000000  0.5820530000000  0.5446150000000 1.0
C      1  0.4514220000000  0.4402670000000  0.5873960000000 1.0
C      1  0.5546610000000  0.4570960000000  0.5275330000000 1.0
C      1  0.4375820000000  0.5604070000000  0.4304060000000 1.0
C      1  0.4130680000000  0.4741400000000  0.5548060000000 1.0
C      1  0.4582570000000  0.4094050000000  0.5510860000000 1.0
C      1  0.5512640000000  0.4170920000000  0.5263980000000 1.0
C      1  0.4758390000000  0.5599690000000  0.5792450000000 1.0
C      1  0.4366260000000  0.4589210000000  0.4477720000000 1.0
C      1  0.4621570000000  0.4794550000000  0.4488780000000 1.0
C      1  0.4433700000000  0.4890210000000  0.5814990000000 1.0
C      1  0.5751730000000  0.4304280000000  0.4868390000000 1.0
C      1  0.4767970000000  0.5152840000000  0.5522030000000 1.0
C      1  0.4538100000000  0.5657510000000  0.5605700000000 1.0
C      1  0.4456370000000  0.4110110000000  0.4662930000000 1.0
C      1  0.5712120000000  0.5456770000000  0.5631620000000 1.0
C      1  0.4452630000000  0.5119790000000  0.6003230000000 1.0
C      1  0.5566020000000  0.5505870000000  0.4263310000000 1.0
C      1  0.4574710000000  0.4483460000000  0.4908200000000 1.0
C      1  0.4871060000000  0.4120370000000  0.5566680000000 1.0
C      1  0.5469910000000  0.4743820000000  0.4331580000000 1.0
C      1  0.4731170000000  0.5007450000000  0.4808830000000 1.0
C      1  0.5599630000000  0.4574410000000  0.4962770000000 1.0
C      1  0.4795950000000  0.5270870000000  0.4239940000000 1.0
C      1  0.4650320000000  0.5543940000000  0.4652610000000 1.0
C      1  0.5207890000000  0.4759050000000  0.4552790000000 1.0
C      1  0.5032270000000  0.4113960000000  0.5308920000000 1.0
C      1  0.4064390000000  0.4669530000000  0.4908400000000 1.0
C      1  0.5775820000000  0.4259810000000  0.5172920000000 1.0
C      1  0.4862650000000  0.5269310000000  0.4940150000000 1.0
C      1  0.5980440000000  0.5222670000000  0.5122790000000 1.0
C      1  0.5388690000000  0.5574620000000  0.4879300000000 1.0
C      1  0.4021980000000  0.5258990000000  0.5530110000000 1.0
C      1  0.4100470000000  0.4658920000000  0.4645970000000 1.0
C      1  0.5256050000000  0.4399020000000  0.5730390000000 1.0
C      1  0.3850460000000  0.4658340000000  0.4176340000000 1.0
C      1  0.5771700000000  0.4894690000000  0.5209060000000 1.0
C      1  0.5306200000000  0.5869520000000  0.4526570000000 1.0
C      1  0.4311440000000  0.5110390000000  0.4249960000000 1.0
C      1  0.4424270000000  0.4225850000000  0.4929060000000 1.0
C      1  0.5955920000000  0.5218320000000  0.4593520000000 1.0
C      1  0.3919860000000  0.4895370000000  0.5063900000000 1.0
C      1  0.5684750000000  0.4701500000000  0.5712010000000 1.0
C      1  0.5271340000000  0.4903490000000  0.5604260000000 1.0
C      1  0.5015770000000  0.5005680000000  0.4681620000000 1.0
C      1  0.5326250000000  0.5134190000000  0.4623200000000 1.0
C      1  0.4928760000000  0.5047630000000  0.4017250000000 1.0
C      1  0.4934530000000  0.4907170000000  0.5137770000000 1.0
C      1  0.5466050000000  0.5691780000000  0.5652200000000 1.0
C      1  0.4876520000000  0.4631650000000  0.5576300000000 1.0
C      1  0.5616510000000  0.5908060000000  0.4517270000000 1.0
C      1  0.5068500000000  0.4473850000000  0.5068670000000 1.0
C      1  0.4987250000000  0.4301080000000  0.5771250000000 1.0
C      1  0.5291160000000  0.4767560000000  0.5329390000000 1.0
C      1  0.5545140000000  0.5833220000000  0.5140370000000 1.0
C      1  0.4770000000000  0.5582050000000  0.4347400000000 1.0
C      1  0.4506150000000  0.4032350000000  0.5194730000000 1.0
C      1  0.5611630000000  0.5020320000000  0.4571680000000 1.0
C      1  0.5596380000000  0.5116570000000  0.5088850000000 1.0
C      1  0.5355200000000  0.4281080000000  0.5472820000000 1.0
C      1  0.4016050000000  0.5270810000000  0.4725660000000 1.0
C      1  0.5414330000000  0.4859650000000  0.5039320000000 1.0
C      1  0.4073140000000  0.4978230000000  0.5666340000000 1.0
C      1  0.5137280000000  0.5108140000000  0.5175260000000 1.0
C      1  0.4835980000000  0.4343410000000  0.4771650000000 1.0
C      1  0.5351650000000  0.4050190000000  0.5058730000000 1.0
C      1  0.4901240000000  0.4888340000000  0.4317940000000 1.0
C      1  0.5167290000000  0.6063740000000  0.4731770000000 1.0
C      1  0.4906010000000  0.5595130000000  0.4842710000000 1.0
C      1  0.5441600000000  0.5266290000000  0.4086600000000 1.0
C      1  0.4203810000000  0.5399530000000  0.5305310000000 1.0
END
