TITL C-2778428-5639-519 0.00789435049125422 125000 -655.727711469527 0 0 113 (C1) n - 1
REM
REM in /home/nfs/bkarasulu/CARBON/AIRSS/Generating-Clusters/REBO/Only-C1/SD-CG/HFTN-CG
REM
REM
REM
REM
REM
REM ./C.cell (11c1c37f851c82e70ff6c80c92926a4b)
REM
REM compiler GCC version 9.2.1 20190827 (Red Hat 9.2.1-1)
REM options -cpp -mtune=generic -march=x86-64 -g -O0 -fpre-include=/usr/include/finclude/math-vector-fortran.h
REM seed 1536197378 458694627 834353342 -1291888235 -1766909655 1760581747 525944373 2021849290 -1048531946 -1520959542 33043167 981116833 -280909002 1463656250 -1732914585 1036916943 795957378 -321212185 -1208915801 912956427 -1678335585 1594383324 1469323676 -1935574998 971072440 -1607003894 -1978935096 48470708 554770745 -1267073266 -501771067 1184577140 1499391581
REM
CELL 1.54180   50.00000   50.00000   50.00000   90.00000   90.00000   90.00000
LATT -1
SFAC C  
C      1  0.4665280000000  0.5838480000000  0.5566350000000 1.0
C      1  0.5546450000000  0.5356750000000  0.5318110000000 1.0
C      1  0.5424170000000  0.3988220000000  0.4753960000000 1.0
C      1  0.5099490000000  0.5121440000000  0.4874730000000 1.0
C      1  0.5643200000000  0.5529980000000  0.4681860000000 1.0
C      1  0.4818670000000  0.5695140000000  0.5713510000000 1.0
C      1  0.4124080000000  0.4500680000000  0.4793070000000 1.0
C      1  0.5159330000000  0.4475900000000  0.5019760000000 1.0
C      1  0.4152260000000  0.4733080000000  0.5672260000000 1.0
C      1  0.4340880000000  0.4506500000000  0.5278180000000 1.0
C      1  0.4158670000000  0.5167370000000  0.4540590000000 1.0
C      1  0.4715240000000  0.5986490000000  0.4804930000000 1.0
C      1  0.4232550000000  0.5223810000000  0.5211220000000 1.0
C      1  0.5305060000000  0.4977250000000  0.5855200000000 1.0
C      1  0.5014590000000  0.4759450000000  0.4470240000000 1.0
C      1  0.4839440000000  0.5236640000000  0.4755350000000 1.0
C      1  0.5506900000000  0.4990080000000  0.4573180000000 1.0
C      1  0.4941790000000  0.4022260000000  0.4815420000000 1.0
C      1  0.5056490000000  0.5610820000000  0.4992290000000 1.0
C      1  0.5370840000000  0.5706080000000  0.5457660000000 1.0
C      1  0.5256270000000  0.5386390000000  0.4923760000000 1.0
C      1  0.4609920000000  0.5719720000000  0.4776300000000 1.0
C      1  0.4564270000000  0.5907320000000  0.5277410000000 1.0
C      1  0.5212450000000  0.4521790000000  0.5511020000000 1.0
C      1  0.5515470000000  0.5653830000000  0.4156220000000 1.0
C      1  0.5027950000000  0.5967920000000  0.4815530000000 1.0
C      1  0.4759450000000  0.6044380000000  0.5099800000000 1.0
C      1  0.5611410000000  0.5011770000000  0.5864310000000 1.0
C      1  0.4916510000000  0.4799980000000  0.5618480000000 1.0
C      1  0.4260840000000  0.4950810000000  0.4330430000000 1.0
C      1  0.4567480000000  0.4638840000000  0.4546770000000 1.0
C      1  0.5373230000000  0.5603320000000  0.4749050000000 1.0
C      1  0.4473360000000  0.5201510000000  0.4551860000000 1.0
C      1  0.4572580000000  0.5538640000000  0.5319010000000 1.0
C      1  0.6009840000000  0.4895460000000  0.5594080000000 1.0
C      1  0.5598320000000  0.5578840000000  0.5155030000000 1.0
C      1  0.4923270000000  0.4517510000000  0.5774890000000 1.0
C      1  0.5494090000000  0.4364370000000  0.4107160000000 1.0
C      1  0.5290700000000  0.4787730000000  0.4304880000000 1.0
C      1  0.5778410000000  0.5559550000000  0.4932590000000 1.0
C      1  0.5536080000000  0.4793580000000  0.5443960000000 1.0
C      1  0.4925010000000  0.5146790000000  0.4176960000000 1.0
C      1  0.5214490000000  0.5583180000000  0.4197760000000 1.0
C      1  0.5798780000000  0.5174660000000  0.4773590000000 1.0
C      1  0.5077190000000  0.5505790000000  0.5657500000000 1.0
C      1  0.4772050000000  0.4625390000000  0.5086710000000 1.0
C      1  0.4600700000000  0.4866420000000  0.5498030000000 1.0
C      1  0.5681800000000  0.4758480000000  0.4584420000000 1.0
C      1  0.4619030000000  0.5013250000000  0.4749280000000 1.0
C      1  0.5288870000000  0.4606240000000  0.4801920000000 1.0
C      1  0.5048040000000  0.5651260000000  0.4417270000000 1.0
C      1  0.5223450000000  0.4648460000000  0.5823620000000 1.0
C      1  0.5299330000000  0.4910320000000  0.5147730000000 1.0
C      1  0.4421260000000  0.4333410000000  0.4753260000000 1.0
C      1  0.4196410000000  0.5431580000000  0.4723230000000 1.0
C      1  0.4941620000000  0.4270640000000  0.5029630000000 1.0
C      1  0.4208670000000  0.5449690000000  0.5014680000000 1.0
C      1  0.5059220000000  0.5772130000000  0.5405230000000 1.0
C      1  0.4541250000000  0.4353080000000  0.4433850000000 1.0
C      1  0.5223330000000  0.4910070000000  0.4688630000000 1.0
C      1  0.5136290000000  0.4232190000000  0.4429190000000 1.0
C      1  0.4064590000000  0.4795780000000  0.4951800000000 1.0
C      1  0.5335680000000  0.5759440000000  0.5121650000000 1.0
C      1  0.5410880000000  0.4344760000000  0.4356930000000 1.0
C      1  0.5087260000000  0.5215850000000  0.5779040000000 1.0
C      1  0.4434010000000  0.5298760000000  0.5403280000000 1.0
C      1  0.4408040000000  0.5599580000000  0.4601250000000 1.0
C      1  0.5535190000000  0.5353540000000  0.4219100000000 1.0
C      1  0.5436610000000  0.4214030000000  0.5388680000000 1.0
C      1  0.5072860000000  0.5976060000000  0.5151680000000 1.0
C      1  0.4371430000000  0.5677930000000  0.5117130000000 1.0
C      1  0.5018940000000  0.5294530000000  0.5393630000000 1.0
C      1  0.5381100000000  0.4986970000000  0.4182860000000 1.0
C      1  0.4787870000000  0.4342100000000  0.5285470000000 1.0
C      1  0.5782580000000  0.5052290000000  0.4987380000000 1.0
C      1  0.5227810000000  0.4918490000000  0.5537180000000 1.0
C      1  0.5543630000000  0.5642700000000  0.5638430000000 1.0
C      1  0.5172480000000  0.5786880000000  0.4643810000000 1.0
C      1  0.4933680000000  0.4480350000000  0.4541030000000 1.0
C      1  0.5222240000000  0.4624070000000  0.5251750000000 1.0
C      1  0.4809030000000  0.4245360000000  0.4330740000000 1.0
C      1  0.5015860000000  0.5062610000000  0.5197160000000 1.0
C      1  0.5176480000000  0.3843490000000  0.5587140000000 1.0
C      1  0.5570190000000  0.4290010000000  0.5102150000000 1.0
C      1  0.5216050000000  0.5261090000000  0.4138920000000 1.0
C      1  0.4304560000000  0.4763970000000  0.5435860000000 1.0
C      1  0.4792700000000  0.4863120000000  0.5246650000000 1.0
C      1  0.5385670000000  0.5152140000000  0.5355280000000 1.0
C      1  0.4155310000000  0.4948770000000  0.5219590000000 1.0
C      1  0.4366190000000  0.5164310000000  0.5866230000000 1.0
C      1  0.4584960000000  0.5435570000000  0.4417070000000 1.0
C      1  0.4753980000000  0.4295900000000  0.4763520000000 1.0
C      1  0.5605350000000  0.4618800000000  0.4878470000000 1.0
C      1  0.4497560000000  0.4300100000000  0.5368550000000 1.0
C      1  0.5613910000000  0.4821720000000  0.5110510000000 1.0
C      1  0.5581560000000  0.4432660000000  0.4593360000000 1.0
C      1  0.4714420000000  0.4690390000000  0.4813370000000 1.0
C      1  0.5564550000000  0.4223300000000  0.4834910000000 1.0
C      1  0.5165850000000  0.4009430000000  0.4638430000000 1.0
C      1  0.4381950000000  0.4560760000000  0.4992950000000 1.0
C      1  0.4864130000000  0.5448540000000  0.4491300000000 1.0
C      1  0.4807140000000  0.5536300000000  0.4877030000000 1.0
C      1  0.4966480000000  0.4303840000000  0.5527810000000 1.0
C      1  0.5208040000000  0.4105070000000  0.5504730000000 1.0
C      1  0.4535640000000  0.5148270000000  0.5643780000000 1.0
C      1  0.4808070000000  0.4944930000000  0.4316490000000 1.0
C      1  0.5638650000000  0.5272140000000  0.4489430000000 1.0
C      1  0.4538530000000  0.4857520000000  0.4359790000000 1.0
C      1  0.4379500000000  0.4880250000000  0.4901810000000 1.0
C      1  0.5586440000000  0.4496190000000  0.5351860000000 1.0
C      1  0.4860560000000  0.5547980000000  0.5334880000000 1.0
C      1  0.4840500000000  0.5092330000000  0.5721320000000 1.0
C      1  0.5739270000000  0.4906360000000  0.5643940000000 1.0
END
