TITL C-2778436-5916-451 -0.112283726711419 125000 -475.833433148124 0 0 84 (C1) n - 1
REM
REM in /home/nfs/bkarasulu/CARBON/AIRSS/Generating-Clusters/REBO/Only-C1/SD-CG/HFTN-CG
REM
REM
REM
REM
REM
REM ./C.cell (11c1c37f851c82e70ff6c80c92926a4b)
REM
REM compiler GCC version 9.2.1 20190827 (Red Hat 9.2.1-1)
REM options -cpp -mtune=generic -march=x86-64 -g -O0 -fpre-include=/usr/include/finclude/math-vector-fortran.h
REM seed -108976330 1794112341 1022406197 1958181300 320423892 -680044034 159760422 -690558629 -2070234709 -248796427 -276156438 -585107505 1502023327 72483151 -1009839488 696308136 944336709 -908158842 1651691016 -1062946024 -1416842497 -235927996 245389483 -43021797 -1955600729 -1924010650 -344311668 -355892060 -1226750507 1692192878 1815722910 1263449485 -712286410
REM
CELL 1.54180   50.00000   50.00000   50.00000   90.00000   90.00000   90.00000
LATT -1
SFAC C  
C      1  0.5407630000000  0.5612050000000  0.4886490000000 1.0
C      1  0.5689820000000  0.5237100000000  0.4460630000000 1.0
C      1  0.5020820000000  0.4617130000000  0.4285140000000 1.0
C      1  0.5006370000000  0.4837380000000  0.5564030000000 1.0
C      1  0.5042080000000  0.4924910000000  0.5017550000000 1.0
C      1  0.4419410000000  0.5377090000000  0.4902550000000 1.0
C      1  0.5379910000000  0.4362330000000  0.5356790000000 1.0
C      1  0.5075470000000  0.4531840000000  0.5169540000000 1.0
C      1  0.5502480000000  0.4685700000000  0.4477940000000 1.0
C      1  0.4179790000000  0.5097210000000  0.4524460000000 1.0
C      1  0.4796450000000  0.5568680000000  0.5616530000000 1.0
C      1  0.5742080000000  0.4701450000000  0.5268410000000 1.0
C      1  0.4845880000000  0.5894200000000  0.4955510000000 1.0
C      1  0.4907150000000  0.4920160000000  0.4392300000000 1.0
C      1  0.4861040000000  0.4309650000000  0.4916940000000 1.0
C      1  0.5042170000000  0.5367180000000  0.5661630000000 1.0
C      1  0.4295890000000  0.4776800000000  0.4584410000000 1.0
C      1  0.4943160000000  0.5871700000000  0.4691730000000 1.0
C      1  0.5356090000000  0.5241610000000  0.5714880000000 1.0
C      1  0.4719240000000  0.5314840000000  0.4584290000000 1.0
C      1  0.5756470000000  0.5065750000000  0.4898520000000 1.0
C      1  0.5181790000000  0.4285000000000  0.4806530000000 1.0
C      1  0.5086230000000  0.5069400000000  0.5798890000000 1.0
C      1  0.5086810000000  0.4239430000000  0.5272080000000 1.0
C      1  0.4191630000000  0.4608220000000  0.5091930000000 1.0
C      1  0.5588920000000  0.5041820000000  0.5683390000000 1.0
C      1  0.4482560000000  0.5065040000000  0.4783110000000 1.0
C      1  0.4483490000000  0.3746030000000  0.5341440000000 1.0
C      1  0.5009420000000  0.4661610000000  0.4800570000000 1.0
C      1  0.4410430000000  0.4990770000000  0.4344120000000 1.0
C      1  0.4654130000000  0.3929720000000  0.5265140000000 1.0
C      1  0.4945610000000  0.5326610000000  0.5337290000000 1.0
C      1  0.4721310000000  0.4917320000000  0.5508020000000 1.0
C      1  0.4488140000000  0.4816940000000  0.5394930000000 1.0
C      1  0.5541860000000  0.5315980000000  0.4990990000000 1.0
C      1  0.5362580000000  0.5360550000000  0.5424710000000 1.0
C      1  0.5785130000000  0.4732330000000  0.4963770000000 1.0
C      1  0.5485320000000  0.4772440000000  0.5695290000000 1.0
C      1  0.5709830000000  0.4433570000000  0.4818200000000 1.0
C      1  0.4499190000000  0.5418350000000  0.5544700000000 1.0
C      1  0.5394360000000  0.5623920000000  0.5380220000000 1.0
C      1  0.5503810000000  0.4774450000000  0.4802270000000 1.0
C      1  0.4223860000000  0.5354970000000  0.4629280000000 1.0
C      1  0.4402040000000  0.5036930000000  0.5170530000000 1.0
C      1  0.4775190000000  0.5196040000000  0.4897760000000 1.0
C      1  0.5311960000000  0.5162160000000  0.5188210000000 1.0
C      1  0.4788620000000  0.4618180000000  0.5048470000000 1.0
C      1  0.5272350000000  0.4777830000000  0.4314580000000 1.0
C      1  0.5218220000000  0.4766070000000  0.5812400000000 1.0
C      1  0.5214800000000  0.4860850000000  0.5304250000000 1.0
C      1  0.4996450000000  0.5564030000000  0.4442840000000 1.0
C      1  0.4721670000000  0.5196400000000  0.5497580000000 1.0
C      1  0.4712360000000  0.5648770000000  0.5069360000000 1.0
C      1  0.4416840000000  0.5372650000000  0.5215950000000 1.0
C      1  0.5022910000000  0.5863620000000  0.5199010000000 1.0
C      1  0.4749570000000  0.5729070000000  0.4504060000000 1.0
C      1  0.4882580000000  0.4552410000000  0.4547140000000 1.0
C      1  0.4681030000000  0.4860850000000  0.4639820000000 1.0
C      1  0.5464970000000  0.4403150000000  0.4661940000000 1.0
C      1  0.4831220000000  0.4120360000000  0.5185970000000 1.0
C      1  0.4331990000000  0.4587430000000  0.5330460000000 1.0
C      1  0.4846780000000  0.5793050000000  0.5416780000000 1.0
C      1  0.5762920000000  0.5113630000000  0.5470470000000 1.0
C      1  0.5383640000000  0.5184160000000  0.4602620000000 1.0
C      1  0.4255910000000  0.4864870000000  0.4911880000000 1.0
C      1  0.5559820000000  0.5474820000000  0.4629470000000 1.0
C      1  0.4642080000000  0.4275280000000  0.4702750000000 1.0
C      1  0.4866480000000  0.5409500000000  0.5081780000000 1.0
C      1  0.4501340000000  0.5553710000000  0.4619850000000 1.0
C      1  0.4545330000000  0.4043670000000  0.4623160000000 1.0
C      1  0.5762240000000  0.5184380000000  0.5214710000000 1.0
C      1  0.5304260000000  0.4635730000000  0.4944160000000 1.0
C      1  0.4707520000000  0.4923930000000  0.5079370000000 1.0
C      1  0.5700510000000  0.4941790000000  0.4586410000000 1.0
C      1  0.4544650000000  0.4554770000000  0.4587210000000 1.0
C      1  0.5187860000000  0.5178770000000  0.4870570000000 1.0
C      1  0.5398710000000  0.4333470000000  0.5047810000000 1.0
C      1  0.5283230000000  0.5747770000000  0.5153510000000 1.0
C      1  0.5466590000000  0.4656140000000  0.5408470000000 1.0
C      1  0.5037720000000  0.5365250000000  0.4652370000000 1.0
C      1  0.4664780000000  0.5123220000000  0.4347240000000 1.0
C      1  0.4535440000000  0.5674450000000  0.5333880000000 1.0
C      1  0.5219190000000  0.5792720000000  0.4683600000000 1.0
C      1  0.5202410000000  0.5058920000000  0.4394510000000 1.0
END
