TITL C-2778430-5657-1340 0.00140526600104598 125000 -1108.16121508905 0 0 190 (C1) n - 1
REM
REM in /home/nfs/bkarasulu/CARBON/AIRSS/Generating-Clusters/REBO/Only-C1/SD-CG/HFTN-CG
REM
REM
REM
REM
REM
REM ./C.cell (11c1c37f851c82e70ff6c80c92926a4b)
REM
REM compiler GCC version 9.2.1 20190827 (Red Hat 9.2.1-1)
REM options -cpp -mtune=generic -march=x86-64 -g -O0 -fpre-include=/usr/include/finclude/math-vector-fortran.h
REM seed 700688738 1388312825 -1543479889 1677992110 -1398698728 -740750555 -1638877191 -389932561 -138197857 1894104271 310286858 -1262020555 -1374989765 -1178635542 154752915 1152615193 1354404609 1103944320 -1158247502 514552210 -1684568679 760023037 -1473920912 -1411505408 1516249869 607246614 1715197308 -569578921 1402016741 347504778 -1027264934 854405425 1800380110
REM
CELL 1.54180   50.00000   50.00000   50.00000   90.00000   90.00000   90.00000
LATT -1
SFAC C  
C      1  0.5656140000000  0.4942410000000  0.5558470000000 1.0
C      1  0.5033020000000  0.5544410000000  0.5787400000000 1.0
C      1  0.6103120000000  0.5347070000000  0.5064340000000 1.0
C      1  0.4644500000000  0.5525460000000  0.5472850000000 1.0
C      1  0.5637530000000  0.5082590000000  0.4712580000000 1.0
C      1  0.5262840000000  0.4356920000000  0.4985900000000 1.0
C      1  0.5172680000000  0.4493180000000  0.4170610000000 1.0
C      1  0.5317330000000  0.5099080000000  0.4009290000000 1.0
C      1  0.4724910000000  0.4861600000000  0.4246010000000 1.0
C      1  0.4892760000000  0.5577850000000  0.4247170000000 1.0
C      1  0.4579970000000  0.5225730000000  0.4644670000000 1.0
C      1  0.5734990000000  0.5738400000000  0.5050150000000 1.0
C      1  0.5710670000000  0.4264970000000  0.4669620000000 1.0
C      1  0.5238560000000  0.4766760000000  0.3979110000000 1.0
C      1  0.5941350000000  0.4776120000000  0.5505710000000 1.0
C      1  0.5594710000000  0.3924330000000  0.4999130000000 1.0
C      1  0.4786570000000  0.3983800000000  0.5265110000000 1.0
C      1  0.3963920000000  0.4875750000000  0.5094210000000 1.0
C      1  0.5464510000000  0.5201880000000  0.4242810000000 1.0
C      1  0.5371360000000  0.4089800000000  0.4225360000000 1.0
C      1  0.5132080000000  0.4585860000000  0.5375510000000 1.0
C      1  0.5661730000000  0.4202050000000  0.5427160000000 1.0
C      1  0.5640070000000  0.5168510000000  0.5816360000000 1.0
C      1  0.4079330000000  0.4842110000000  0.4590200000000 1.0
C      1  0.5220810000000  0.4900650000000  0.4445280000000 1.0
C      1  0.4835450000000  0.4833250000000  0.5554910000000 1.0
C      1  0.4848480000000  0.5724150000000  0.5599680000000 1.0
C      1  0.4033730000000  0.4627740000000  0.4920530000000 1.0
C      1  0.5698720000000  0.5625630000000  0.4787250000000 1.0
C      1  0.4840560000000  0.5411360000000  0.4539340000000 1.0
C      1  0.4816870000000  0.4415670000000  0.4012510000000 1.0
C      1  0.4740160000000  0.6095780000000  0.5514560000000 1.0
C      1  0.4149970000000  0.4099180000000  0.5076470000000 1.0
C      1  0.4973290000000  0.3964860000000  0.4971710000000 1.0
C      1  0.5247210000000  0.4354350000000  0.4664180000000 1.0
C      1  0.5275440000000  0.5998760000000  0.5410520000000 1.0
C      1  0.4815910000000  0.5359650000000  0.5945640000000 1.0
C      1  0.4989530000000  0.4834020000000  0.6048220000000 1.0
C      1  0.5710610000000  0.4553050000000  0.4821900000000 1.0
C      1  0.4235810000000  0.4028610000000  0.5303640000000 1.0
C      1  0.4520620000000  0.4102130000000  0.5445880000000 1.0
C      1  0.5418680000000  0.4257290000000  0.5617400000000 1.0
C      1  0.5037790000000  0.4523490000000  0.5984620000000 1.0
C      1  0.4952620000000  0.4764420000000  0.4990090000000 1.0
C      1  0.5177810000000  0.4032420000000  0.4707410000000 1.0
C      1  0.4513340000000  0.4106920000000  0.4671990000000 1.0
C      1  0.4104370000000  0.4437270000000  0.4688580000000 1.0
C      1  0.4120180000000  0.5593690000000  0.4540040000000 1.0
C      1  0.5333190000000  0.5033830000000  0.4696360000000 1.0
C      1  0.4982740000000  0.5042680000000  0.4291300000000 1.0
C      1  0.5803510000000  0.4606680000000  0.5714230000000 1.0
C      1  0.4953800000000  0.6283070000000  0.5425600000000 1.0
C      1  0.4813930000000  0.4563370000000  0.5614630000000 1.0
C      1  0.5783200000000  0.5880320000000  0.5345010000000 1.0
C      1  0.5228680000000  0.4864240000000  0.4943150000000 1.0
C      1  0.4905610000000  0.4255940000000  0.4265510000000 1.0
C      1  0.5138900000000  0.5794800000000  0.4235860000000 1.0
C      1  0.5003880000000  0.3990610000000  0.5494280000000 1.0
C      1  0.4441110000000  0.5497050000000  0.4100810000000 1.0
C      1  0.4951090000000  0.4741020000000  0.4550380000000 1.0
C      1  0.5458780000000  0.5848950000000  0.4341560000000 1.0
C      1  0.5190280000000  0.4281940000000  0.5848250000000 1.0
C      1  0.4102790000000  0.4737320000000  0.4327110000000 1.0
C      1  0.6015060000000  0.4625120000000  0.5215010000000 1.0
C      1  0.5223520000000  0.5533220000000  0.4028170000000 1.0
C      1  0.5420940000000  0.5626640000000  0.5764950000000 1.0
C      1  0.5378150000000  0.5340550000000  0.5951140000000 1.0
C      1  0.4150460000000  0.5184050000000  0.4193070000000 1.0
C      1  0.4057510000000  0.5300660000000  0.4465050000000 1.0
C      1  0.5415520000000  0.4797110000000  0.4247450000000 1.0
C      1  0.4508730000000  0.4588220000000  0.4799810000000 1.0
C      1  0.4825420000000  0.4690430000000  0.3996260000000 1.0
C      1  0.4072130000000  0.5126470000000  0.5492800000000 1.0
C      1  0.5247580000000  0.5384070000000  0.4868610000000 1.0
C      1  0.4484090000000  0.5017590000000  0.5634600000000 1.0
C      1  0.5590530000000  0.4687640000000  0.5338310000000 1.0
C      1  0.5594960000000  0.5333460000000  0.5151500000000 1.0
C      1  0.4542040000000  0.5864260000000  0.5653850000000 1.0
C      1  0.5142220000000  0.4944410000000  0.5783240000000 1.0
C      1  0.4632330000000  0.5172050000000  0.5121060000000 1.0
C      1  0.5507180000000  0.4056240000000  0.4776040000000 1.0
C      1  0.4518520000000  0.4304160000000  0.5684480000000 1.0
C      1  0.4058280000000  0.5187710000000  0.4993870000000 1.0
C      1  0.4759280000000  0.5199770000000  0.3896910000000 1.0
C      1  0.5005370000000  0.5941510000000  0.5041620000000 1.0
C      1  0.4955710000000  0.4453950000000  0.4969390000000 1.0
C      1  0.4338790000000  0.5539190000000  0.5544140000000 1.0
C      1  0.4490330000000  0.5524470000000  0.4651570000000 1.0
C      1  0.4863540000000  0.5121640000000  0.5702280000000 1.0
C      1  0.5778820000000  0.5426620000000  0.4328720000000 1.0
C      1  0.5875600000000  0.5232540000000  0.5246530000000 1.0
C      1  0.4640390000000  0.4670960000000  0.4518600000000 1.0
C      1  0.5143270000000  0.4510070000000  0.4461210000000 1.0
C      1  0.4416850000000  0.4969850000000  0.4185050000000 1.0
C      1  0.5081420000000  0.5314030000000  0.4247260000000 1.0
C      1  0.6198190000000  0.5069910000000  0.4640370000000 1.0
C      1  0.4318770000000  0.5827910000000  0.5393490000000 1.0
C      1  0.4331400000000  0.5026850000000  0.5104120000000 1.0
C      1  0.5371240000000  0.5930450000000  0.4846840000000 1.0
C      1  0.4377140000000  0.4551650000000  0.5693710000000 1.0
C      1  0.5062270000000  0.6238880000000  0.5173510000000 1.0
C      1  0.4316380000000  0.4691300000000  0.5060980000000 1.0
C      1  0.5659090000000  0.4925710000000  0.6024070000000 1.0
C      1  0.4815010000000  0.4863710000000  0.5251550000000 1.0
C      1  0.4492480000000  0.4883160000000  0.5357450000000 1.0
C      1  0.4049590000000  0.5670410000000  0.5254340000000 1.0
C      1  0.5676130000000  0.4771920000000  0.4217040000000 1.0
C      1  0.5143580000000  0.4097830000000  0.4375260000000 1.0
C      1  0.5335590000000  0.5142410000000  0.5086090000000 1.0
C      1  0.5624360000000  0.4185710000000  0.4196540000000 1.0
C      1  0.5559850000000  0.4695400000000  0.6016340000000 1.0
C      1  0.4848640000000  0.4470370000000  0.5289010000000 1.0
C      1  0.5341160000000  0.4920550000000  0.5320820000000 1.0
C      1  0.4249440000000  0.5599220000000  0.4854530000000 1.0
C      1  0.4667020000000  0.5670100000000  0.4072790000000 1.0
C      1  0.5797180000000  0.4874250000000  0.4897190000000 1.0
C      1  0.4381220000000  0.4891890000000  0.4726720000000 1.0
C      1  0.4577590000000  0.5592570000000  0.5859930000000 1.0
C      1  0.5989590000000  0.4269190000000  0.4836360000000 1.0
C      1  0.4682480000000  0.4865190000000  0.6054830000000 1.0
C      1  0.5093220000000  0.5251200000000  0.4642020000000 1.0
C      1  0.4508910000000  0.5233830000000  0.4024220000000 1.0
C      1  0.5586190000000  0.6094090000000  0.5334360000000 1.0
C      1  0.4690040000000  0.5216650000000  0.5447770000000 1.0
C      1  0.5448130000000  0.4684660000000  0.4853700000000 1.0
C      1  0.5467980000000  0.4556120000000  0.5735860000000 1.0
C      1  0.5390600000000  0.6036910000000  0.5088040000000 1.0
C      1  0.4395830000000  0.4642320000000  0.4290040000000 1.0
C      1  0.4460180000000  0.5852250000000  0.4870100000000 1.0
C      1  0.4036000000000  0.4861250000000  0.5377840000000 1.0
C      1  0.4023470000000  0.4926710000000  0.4130130000000 1.0
C      1  0.5884730000000  0.4936680000000  0.5209010000000 1.0
C      1  0.4251300000000  0.5194390000000  0.4723600000000 1.0
C      1  0.5254780000000  0.4071860000000  0.5390750000000 1.0
C      1  0.5788790000000  0.4440960000000  0.5352720000000 1.0
C      1  0.4220190000000  0.5321730000000  0.5350150000000 1.0
C      1  0.5427420000000  0.5186010000000  0.5480950000000 1.0
C      1  0.4370560000000  0.5153920000000  0.5910980000000 1.0
C      1  0.5243160000000  0.4081190000000  0.5105780000000 1.0
C      1  0.5662120000000  0.3980510000000  0.5256120000000 1.0
C      1  0.5085990000000  0.5275480000000  0.3852260000000 1.0
C      1  0.4490570000000  0.5924120000000  0.5141980000000 1.0
C      1  0.4705210000000  0.4279700000000  0.4477320000000 1.0
C      1  0.3897340000000  0.5055250000000  0.4607900000000 1.0
C      1  0.4376420000000  0.4369610000000  0.4492260000000 1.0
C      1  0.5518330000000  0.5595660000000  0.5279000000000 1.0
C      1  0.6064010000000  0.4785880000000  0.4728980000000 1.0
C      1  0.5134870000000  0.5632600000000  0.4963680000000 1.0
C      1  0.4979740000000  0.4947370000000  0.3862480000000 1.0
C      1  0.5253520000000  0.5350220000000  0.5643660000000 1.0
C      1  0.5269350000000  0.5746760000000  0.4605610000000 1.0
C      1  0.4608050000000  0.5147320000000  0.6103970000000 1.0
C      1  0.5878300000000  0.4595950000000  0.4335370000000 1.0
C      1  0.5260640000000  0.4753770000000  0.5605190000000 1.0
C      1  0.4904940000000  0.5652310000000  0.5197250000000 1.0
C      1  0.4796420000000  0.4331550000000  0.5835360000000 1.0
C      1  0.5568260000000  0.5353930000000  0.4840330000000 1.0
C      1  0.4164680000000  0.4644820000000  0.5519850000000 1.0
C      1  0.5779090000000  0.4333840000000  0.4379600000000 1.0
C      1  0.5095220000000  0.5165950000000  0.6029080000000 1.0
C      1  0.4656800000000  0.4055200000000  0.4952670000000 1.0
C      1  0.4343000000000  0.5444560000000  0.5104770000000 1.0
C      1  0.6044270000000  0.4547080000000  0.4933830000000 1.0
C      1  0.3946770000000  0.5486610000000  0.5111600000000 1.0
C      1  0.4667940000000  0.4937840000000  0.4907600000000 1.0
C      1  0.4515830000000  0.4769850000000  0.5834990000000 1.0
C      1  0.4526120000000  0.4269750000000  0.5171520000000 1.0
C      1  0.4641750000000  0.5817690000000  0.4581720000000 1.0
C      1  0.4825950000000  0.4351510000000  0.4744660000000 1.0
C      1  0.5984960000000  0.4906510000000  0.4429150000000 1.0
C      1  0.5170240000000  0.5824410000000  0.5647340000000 1.0
C      1  0.4974560000000  0.4076960000000  0.5759950000000 1.0
C      1  0.5538560000000  0.5581800000000  0.4149100000000 1.0
C      1  0.5740440000000  0.5111530000000  0.4420210000000 1.0
C      1  0.5675990000000  0.5645750000000  0.5567140000000 1.0
C      1  0.4656580000000  0.5489410000000  0.5157660000000 1.0
C      1  0.5732030000000  0.5330300000000  0.5527230000000 1.0
C      1  0.4346230000000  0.4297270000000  0.4883770000000 1.0
C      1  0.6209630000000  0.5264180000000  0.4826980000000 1.0
C      1  0.5336110000000  0.5476030000000  0.4406370000000 1.0
C      1  0.5699930000000  0.5672210000000  0.4503520000000 1.0
C      1  0.4403060000000  0.5679820000000  0.4372120000000 1.0
C      1  0.4954300000000  0.5846890000000  0.4522180000000 1.0
C      1  0.4858000000000  0.5033570000000  0.4667720000000 1.0
C      1  0.4075110000000  0.5191290000000  0.5771520000000 1.0
C      1  0.5235800000000  0.5709240000000  0.5270300000000 1.0
C      1  0.4736890000000  0.6014060000000  0.5224360000000 1.0
C      1  0.4538220000000  0.4569230000000  0.5269290000000 1.0
C      1  0.5341210000000  0.4537790000000  0.5209390000000 1.0
C      1  0.4275140000000  0.5458370000000  0.5843560000000 1.0
END
