TITL C-2778433-5640-548 0.146665496103005 125000 -632.559826250371 0 0 109 (C1) n - 1
REM
REM in /home/nfs/bkarasulu/CARBON/AIRSS/Generating-Clusters/REBO/Only-C1/SD-CG/HFTN-CG
REM
REM
REM
REM
REM
REM ./C.cell (11c1c37f851c82e70ff6c80c92926a4b)
REM
REM compiler GCC version 9.2.1 20190827 (Red Hat 9.2.1-1)
REM options -cpp -mtune=generic -march=x86-64 -g -O0 -fpre-include=/usr/include/finclude/math-vector-fortran.h
REM seed 826711316 -276206422 1579454337 -1845332026 6716210 -498149912 -1684593949 59067248 47070071 925272636 1233043139 -1035994268 1241561064 -2112523412 -2083321808 1392392311 -1296183202 -1569725412 -1941494549 591502353 -2780765 -843670657 -986073597 -1432026278 -1110753292 1415023710 1709998326 1440640001 -774441569 -680230418 -717498367 -1392206098 -704820271
REM
CELL 1.54180   50.00000   50.00000   50.00000   90.00000   90.00000   90.00000
LATT -1
SFAC C  
C      1  0.5158670000000  0.5162920000000  0.5081230000000 1.0
C      1  0.4114840000000  0.4670440000000  0.4678360000000 1.0
C      1  0.5467460000000  0.5411960000000  0.4373980000000 1.0
C      1  0.4316190000000  0.5271210000000  0.5537850000000 1.0
C      1  0.5283330000000  0.4796760000000  0.5355880000000 1.0
C      1  0.4401800000000  0.5061840000000  0.5714120000000 1.0
C      1  0.5578680000000  0.4540010000000  0.4291870000000 1.0
C      1  0.4700390000000  0.5104250000000  0.5782260000000 1.0
C      1  0.5395020000000  0.4473020000000  0.5884900000000 1.0
C      1  0.5886600000000  0.4927820000000  0.5328730000000 1.0
C      1  0.4642260000000  0.4608270000000  0.5703850000000 1.0
C      1  0.4433470000000  0.4839970000000  0.4930750000000 1.0
C      1  0.4710210000000  0.4798990000000  0.4399390000000 1.0
C      1  0.5154520000000  0.4259290000000  0.5482130000000 1.0
C      1  0.5754560000000  0.5490750000000  0.5248330000000 1.0
C      1  0.4871460000000  0.5443960000000  0.4278820000000 1.0
C      1  0.5232970000000  0.4596820000000  0.4785820000000 1.0
C      1  0.4800870000000  0.5509790000000  0.5216660000000 1.0
C      1  0.5076340000000  0.5320130000000  0.5719090000000 1.0
C      1  0.5271610000000  0.5599770000000  0.4510250000000 1.0
C      1  0.5218770000000  0.4574760000000  0.5542140000000 1.0
C      1  0.5634600000000  0.5728770000000  0.5154660000000 1.0
C      1  0.4435130000000  0.5764930000000  0.4471180000000 1.0
C      1  0.4394480000000  0.4453580000000  0.5526820000000 1.0
C      1  0.5604800000000  0.5025170000000  0.5422580000000 1.0
C      1  0.5493560000000  0.4284220000000  0.5136850000000 1.0
C      1  0.5698220000000  0.5360210000000  0.4554870000000 1.0
C      1  0.4841210000000  0.4813430000000  0.5839670000000 1.0
C      1  0.4405630000000  0.5479750000000  0.5209320000000 1.0
C      1  0.4642930000000  0.4478600000000  0.5325920000000 1.0
C      1  0.4189400000000  0.4636480000000  0.5344810000000 1.0
C      1  0.4796810000000  0.5027030000000  0.5480490000000 1.0
C      1  0.4763240000000  0.5485180000000  0.4763570000000 1.0
C      1  0.5992600000000  0.5048470000000  0.5131860000000 1.0
C      1  0.4782160000000  0.5418580000000  0.5736640000000 1.0
C      1  0.5546600000000  0.4291600000000  0.5413570000000 1.0
C      1  0.4641400000000  0.4433250000000  0.5023160000000 1.0
C      1  0.4540360000000  0.5519590000000  0.5519670000000 1.0
C      1  0.5034130000000  0.5398880000000  0.4641220000000 1.0
C      1  0.5783290000000  0.5505670000000  0.4774170000000 1.0
C      1  0.4350630000000  0.4471600000000  0.4728410000000 1.0
C      1  0.5849130000000  0.5311420000000  0.5011380000000 1.0
C      1  0.5088560000000  0.5026510000000  0.5450530000000 1.0
C      1  0.5022290000000  0.5866140000000  0.4667480000000 1.0
C      1  0.5789630000000  0.4835080000000  0.4752280000000 1.0
C      1  0.4647630000000  0.5795170000000  0.5196840000000 1.0
C      1  0.5130590000000  0.5711490000000  0.5307670000000 1.0
C      1  0.5169820000000  0.5121880000000  0.4742180000000 1.0
C      1  0.4769450000000  0.4501340000000  0.4446990000000 1.0
C      1  0.5662190000000  0.4366340000000  0.4560890000000 1.0
C      1  0.5335480000000  0.5119940000000  0.4320340000000 1.0
C      1  0.5166200000000  0.4295090000000  0.4702160000000 1.0
C      1  0.4985990000000  0.5691460000000  0.4375110000000 1.0
C      1  0.5403710000000  0.5589170000000  0.5424270000000 1.0
C      1  0.4956690000000  0.4729490000000  0.4850940000000 1.0
C      1  0.4382200000000  0.4840160000000  0.4317280000000 1.0
C      1  0.5189050000000  0.5326300000000  0.5392660000000 1.0
C      1  0.5538440000000  0.4081980000000  0.4690150000000 1.0
C      1  0.5358380000000  0.5797130000000  0.4741390000000 1.0
C      1  0.5514340000000  0.4058020000000  0.4960460000000 1.0
C      1  0.5672210000000  0.4797710000000  0.4485250000000 1.0
C      1  0.5376450000000  0.5074710000000  0.5638550000000 1.0
C      1  0.5477510000000  0.5110440000000  0.4632960000000 1.0
C      1  0.5448220000000  0.4991650000000  0.5138370000000 1.0
C      1  0.4593410000000  0.4366060000000  0.4632840000000 1.0
C      1  0.5251390000000  0.4572180000000  0.4225290000000 1.0
C      1  0.4897970000000  0.5001220000000  0.4564890000000 1.0
C      1  0.4715430000000  0.5774350000000  0.4656040000000 1.0
C      1  0.4414800000000  0.5843970000000  0.4780890000000 1.0
C      1  0.4344210000000  0.4891640000000  0.5235560000000 1.0
C      1  0.5625730000000  0.5730630000000  0.4865690000000 1.0
C      1  0.5074590000000  0.4191330000000  0.5163400000000 1.0
C      1  0.4571250000000  0.5083240000000  0.4259710000000 1.0
C      1  0.5150110000000  0.4682990000000  0.5849760000000 1.0
C      1  0.4168200000000  0.5137400000000  0.4605280000000 1.0
C      1  0.4155930000000  0.4876170000000  0.4487080000000 1.0
C      1  0.4834000000000  0.4233290000000  0.5387380000000 1.0
C      1  0.4857240000000  0.5655720000000  0.5504790000000 1.0
C      1  0.4645150000000  0.5237410000000  0.5259040000000 1.0
C      1  0.5050390000000  0.5201660000000  0.4369070000000 1.0
C      1  0.4394360000000  0.5780830000000  0.5048730000000 1.0
C      1  0.5053180000000  0.4387940000000  0.4401910000000 1.0
C      1  0.4843640000000  0.5033080000000  0.5084990000000 1.0
C      1  0.4747000000000  0.5147580000000  0.4798040000000 1.0
C      1  0.4730270000000  0.4201540000000  0.4853150000000 1.0
C      1  0.5343460000000  0.4863470000000  0.4154690000000 1.0
C      1  0.4692710000000  0.4684790000000  0.4897330000000 1.0
C      1  0.5650410000000  0.5060820000000  0.4918030000000 1.0
C      1  0.4412830000000  0.5563920000000  0.4277520000000 1.0
C      1  0.5518670000000  0.4347280000000  0.5676990000000 1.0
C      1  0.5116360000000  0.5013400000000  0.5847860000000 1.0
C      1  0.5477370000000  0.4529310000000  0.4982470000000 1.0
C      1  0.5705250000000  0.4557490000000  0.4803250000000 1.0
C      1  0.5059200000000  0.5487600000000  0.5051980000000 1.0
C      1  0.4657590000000  0.4815500000000  0.5273190000000 1.0
C      1  0.4606230000000  0.5358440000000  0.4237560000000 1.0
C      1  0.4430390000000  0.5100220000000  0.4791550000000 1.0
C      1  0.5135300000000  0.5794570000000  0.4976580000000 1.0
C      1  0.4907400000000  0.4458960000000  0.5624620000000 1.0
C      1  0.4471980000000  0.5418760000000  0.4897850000000 1.0
C      1  0.4207820000000  0.5415190000000  0.4695740000000 1.0
C      1  0.5632560000000  0.5338040000000  0.5485080000000 1.0
C      1  0.5005680000000  0.4148950000000  0.4898140000000 1.0
C      1  0.5402250000000  0.5408270000000  0.5716790000000 1.0
C      1  0.5362470000000  0.4241850000000  0.4446220000000 1.0
C      1  0.4352470000000  0.4773370000000  0.5621490000000 1.0
C      1  0.5355170000000  0.4704660000000  0.4521230000000 1.0
C      1  0.4193640000000  0.4605270000000  0.5005310000000 1.0
C      1  0.4209200000000  0.5153280000000  0.5313070000000 1.0
END
