TITL C-2778437-8639-234 0.00319537381351033 125000 -887.518898809127 0 0 154 (C1) n - 1
REM
REM in /home/nfs/bkarasulu/CARBON/AIRSS/Generating-Clusters/REBO/Only-C1/SD-CG/HFTN-CG
REM
REM
REM
REM
REM
REM ./C.cell (11c1c37f851c82e70ff6c80c92926a4b)
REM
REM compiler GCC version 9.2.1 20190827 (Red Hat 9.2.1-1)
REM options -cpp -mtune=generic -march=x86-64 -g -O0 -fpre-include=/usr/include/finclude/math-vector-fortran.h
REM seed 832774080 -717832995 2109355639 1544241457 1763036202 -2980426 -1519955488 -2009889743 1091802133 -1118980964 -608879081 1119866969 1036418937 -1082265540 -2107759098 1075922251 -20939419 252351581 -1550095321 -955109927 1894303213 1856470488 558392126 57809238 -206129510 -1432617861 -661327025 81703891 -1912414569 -1619307259 1612220781 -848517433 -2078313332
REM
CELL 1.54180   50.00000   50.00000   50.00000   90.00000   90.00000   90.00000
LATT -1
SFAC C  
C      1  0.5082460000000  0.4824090000000  0.5963540000000 1.0
C      1  0.4190580000000  0.4829320000000  0.4378130000000 1.0
C      1  0.5526450000000  0.4983730000000  0.5556440000000 1.0
C      1  0.4216810000000  0.5134150000000  0.5029560000000 1.0
C      1  0.4840070000000  0.4471980000000  0.4656800000000 1.0
C      1  0.5410790000000  0.5393080000000  0.4748810000000 1.0
C      1  0.4610830000000  0.5040480000000  0.4464080000000 1.0
C      1  0.5094750000000  0.4330550000000  0.5102900000000 1.0
C      1  0.5695580000000  0.5435300000000  0.5788340000000 1.0
C      1  0.5770960000000  0.5773340000000  0.4927490000000 1.0
C      1  0.5791470000000  0.5194310000000  0.5592260000000 1.0
C      1  0.6024640000000  0.4309640000000  0.5405890000000 1.0
C      1  0.4429730000000  0.4201870000000  0.5305390000000 1.0
C      1  0.4473240000000  0.5396620000000  0.5204590000000 1.0
C      1  0.4329550000000  0.5175070000000  0.5804790000000 1.0
C      1  0.5433440000000  0.5503380000000  0.5782840000000 1.0
C      1  0.5071220000000  0.4768180000000  0.5108720000000 1.0
C      1  0.5925380000000  0.5267810000000  0.5344350000000 1.0
C      1  0.5091870000000  0.5523780000000  0.5364700000000 1.0
C      1  0.5655540000000  0.4990960000000  0.4891060000000 1.0
C      1  0.4847480000000  0.6001680000000  0.5298170000000 1.0
C      1  0.4970790000000  0.3910670000000  0.5449160000000 1.0
C      1  0.5656180000000  0.5046990000000  0.5869070000000 1.0
C      1  0.5338400000000  0.6007070000000  0.5234790000000 1.0
C      1  0.5490250000000  0.5552360000000  0.5256840000000 1.0
C      1  0.4703890000000  0.5579460000000  0.4766290000000 1.0
C      1  0.4355370000000  0.4835890000000  0.5835070000000 1.0
C      1  0.4715140000000  0.4433940000000  0.5892740000000 1.0
C      1  0.4578960000000  0.4118240000000  0.4751870000000 1.0
C      1  0.5093110000000  0.5006420000000  0.4362480000000 1.0
C      1  0.5261400000000  0.4956290000000  0.4149150000000 1.0
C      1  0.5624900000000  0.5216900000000  0.4678860000000 1.0
C      1  0.5257460000000  0.5017520000000  0.4661970000000 1.0
C      1  0.5458160000000  0.4760350000000  0.4226260000000 1.0
C      1  0.5383170000000  0.5261090000000  0.5309370000000 1.0
C      1  0.5431060000000  0.4477610000000  0.5720710000000 1.0
C      1  0.5462420000000  0.4739000000000  0.4862590000000 1.0
C      1  0.5792080000000  0.5234790000000  0.5039360000000 1.0
C      1  0.6093290000000  0.5204210000000  0.4888800000000 1.0
C      1  0.4821620000000  0.5317210000000  0.3986450000000 1.0
C      1  0.5066840000000  0.3947720000000  0.4807480000000 1.0
C      1  0.4755170000000  0.5469560000000  0.5071730000000 1.0
C      1  0.4802300000000  0.4014540000000  0.4887010000000 1.0
C      1  0.5597510000000  0.4459610000000  0.4447050000000 1.0
C      1  0.4100600000000  0.4287160000000  0.4917520000000 1.0
C      1  0.5799110000000  0.5535840000000  0.5170270000000 1.0
C      1  0.5375000000000  0.4329980000000  0.4623660000000 1.0
C      1  0.4838560000000  0.5478520000000  0.5925370000000 1.0
C      1  0.4861390000000  0.5153050000000  0.5138470000000 1.0
C      1  0.4134090000000  0.5535950000000  0.4822960000000 1.0
C      1  0.4327480000000  0.5022920000000  0.5499310000000 1.0
C      1  0.4924660000000  0.4969860000000  0.5397550000000 1.0
C      1  0.5084580000000  0.6126790000000  0.5265310000000 1.0
C      1  0.5481620000000  0.5950640000000  0.4968220000000 1.0
C      1  0.5075930000000  0.4444360000000  0.4507000000000 1.0
C      1  0.4549370000000  0.4514920000000  0.5088730000000 1.0
C      1  0.4716220000000  0.5154720000000  0.4830690000000 1.0
C      1  0.5977940000000  0.4758970000000  0.5156050000000 1.0
C      1  0.4333560000000  0.4416920000000  0.5456360000000 1.0
C      1  0.4401820000000  0.4227370000000  0.4983040000000 1.0
C      1  0.5526600000000  0.4840490000000  0.4545420000000 1.0
C      1  0.5348880000000  0.4627650000000  0.5229430000000 1.0
C      1  0.4418690000000  0.4451570000000  0.4061900000000 1.0
C      1  0.4406980000000  0.4718050000000  0.5520000000000 1.0
C      1  0.5526720000000  0.5626930000000  0.4447440000000 1.0
C      1  0.4823340000000  0.4151900000000  0.5166320000000 1.0
C      1  0.5136540000000  0.5524900000000  0.4087420000000 1.0
C      1  0.5824560000000  0.4568710000000  0.4679200000000 1.0
C      1  0.5393540000000  0.4936470000000  0.5275390000000 1.0
C      1  0.4358070000000  0.5169950000000  0.4064510000000 1.0
C      1  0.4204810000000  0.5570380000000  0.5086450000000 1.0
C      1  0.4932430000000  0.4466160000000  0.5661790000000 1.0
C      1  0.4714320000000  0.5132770000000  0.5704540000000 1.0
C      1  0.4847230000000  0.4624310000000  0.4206660000000 1.0
C      1  0.4846380000000  0.4530340000000  0.4994220000000 1.0
C      1  0.4660530000000  0.5574540000000  0.5563290000000 1.0
C      1  0.4603840000000  0.5238910000000  0.5994730000000 1.0
C      1  0.4448000000000  0.5295810000000  0.4884090000000 1.0
C      1  0.4645080000000  0.6004460000000  0.4784310000000 1.0
C      1  0.4754050000000  0.4855490000000  0.4718560000000 1.0
C      1  0.5446920000000  0.5284080000000  0.4019580000000 1.0
C      1  0.6097000000000  0.5024340000000  0.5178100000000 1.0
C      1  0.4288490000000  0.4660180000000  0.5142580000000 1.0
C      1  0.4878140000000  0.5467490000000  0.4273960000000 1.0
C      1  0.5773070000000  0.5618130000000  0.4641630000000 1.0
C      1  0.4073720000000  0.4461350000000  0.5156510000000 1.0
C      1  0.4304260000000  0.4429230000000  0.4443900000000 1.0
C      1  0.4622780000000  0.4235780000000  0.5662110000000 1.0
C      1  0.4583280000000  0.5925210000000  0.5110550000000 1.0
C      1  0.5555960000000  0.5387960000000  0.4215910000000 1.0
C      1  0.5057590000000  0.4783350000000  0.4773360000000 1.0
C      1  0.5581420000000  0.4029080000000  0.5138920000000 1.0
C      1  0.5759680000000  0.4772360000000  0.4069490000000 1.0
C      1  0.4187670000000  0.4595150000000  0.4188040000000 1.0
C      1  0.5817820000000  0.4508020000000  0.5299100000000 1.0
C      1  0.4568870000000  0.5261650000000  0.3920040000000 1.0
C      1  0.5317820000000  0.5706760000000  0.4190930000000 1.0
C      1  0.5268190000000  0.5724390000000  0.5662060000000 1.0
C      1  0.4996070000000  0.5208930000000  0.5976020000000 1.0
C      1  0.4872650000000  0.5825460000000  0.4943780000000 1.0
C      1  0.4356770000000  0.5042310000000  0.4313320000000 1.0
C      1  0.5235950000000  0.4504850000000  0.4864250000000 1.0
C      1  0.4195830000000  0.5389250000000  0.5572770000000 1.0
C      1  0.5049630000000  0.4750380000000  0.5632360000000 1.0
C      1  0.4536000000000  0.4617520000000  0.4611370000000 1.0
C      1  0.4144510000000  0.5193330000000  0.5299670000000 1.0
C      1  0.4349520000000  0.5771960000000  0.5256440000000 1.0
C      1  0.5545490000000  0.4224250000000  0.4889520000000 1.0
C      1  0.5309710000000  0.4468990000000  0.4257420000000 1.0
C      1  0.4965150000000  0.5639820000000  0.5684110000000 1.0
C      1  0.5382450000000  0.5792780000000  0.5410490000000 1.0
C      1  0.4389870000000  0.5513690000000  0.4652010000000 1.0
C      1  0.4646020000000  0.4408760000000  0.4237520000000 1.0
C      1  0.5225450000000  0.3992820000000  0.5451780000000 1.0
C      1  0.5458660000000  0.4121260000000  0.5366960000000 1.0
C      1  0.5174880000000  0.5390620000000  0.5072060000000 1.0
C      1  0.4558990000000  0.5262190000000  0.5474660000000 1.0
C      1  0.4842890000000  0.4879150000000  0.4332020000000 1.0
C      1  0.5899430000000  0.5345580000000  0.4671160000000 1.0
C      1  0.4658280000000  0.5888250000000  0.4517050000000 1.0
C      1  0.4735160000000  0.4830140000000  0.5718450000000 1.0
C      1  0.4825970000000  0.5681420000000  0.5313140000000 1.0
C      1  0.5859600000000  0.4745050000000  0.4891870000000 1.0
C      1  0.5091600000000  0.5607300000000  0.4856090000000 1.0
C      1  0.4663700000000  0.4002130000000  0.5427220000000 1.0
C      1  0.4222040000000  0.4739130000000  0.4677150000000 1.0
C      1  0.4832190000000  0.5283330000000  0.4533790000000 1.0
C      1  0.5234240000000  0.5740280000000  0.4580020000000 1.0
C      1  0.3883350000000  0.5525260000000  0.4710420000000 1.0
C      1  0.5133610000000  0.4896710000000  0.3878100000000 1.0
C      1  0.5812180000000  0.4719350000000  0.4392230000000 1.0
C      1  0.4428940000000  0.5747800000000  0.4447430000000 1.0
C      1  0.5592580000000  0.4489600000000  0.5043850000000 1.0
C      1  0.5481710000000  0.5609600000000  0.4939090000000 1.0
C      1  0.5317340000000  0.5999920000000  0.4703940000000 1.0
C      1  0.4360430000000  0.5626170000000  0.5512100000000 1.0
C      1  0.4799830000000  0.4969220000000  0.6086630000000 1.0
C      1  0.5362850000000  0.4945900000000  0.5852530000000 1.0
C      1  0.4907370000000  0.5677240000000  0.4509570000000 1.0
C      1  0.4219170000000  0.4865400000000  0.4950150000000 1.0
C      1  0.5091970000000  0.4611980000000  0.4038700000000 1.0
C      1  0.5101450000000  0.5322060000000  0.4684570000000 1.0
C      1  0.4607740000000  0.4712800000000  0.5997890000000 1.0
C      1  0.4078350000000  0.4430730000000  0.4674440000000 1.0
C      1  0.4777130000000  0.4381050000000  0.5388640000000 1.0
C      1  0.5279880000000  0.4558430000000  0.5896630000000 1.0
C      1  0.5046520000000  0.5145360000000  0.5665700000000 1.0
C      1  0.4561800000000  0.4235940000000  0.4496100000000 1.0
C      1  0.5133770000000  0.5236990000000  0.3898870000000 1.0
C      1  0.5246880000000  0.5335090000000  0.5581920000000 1.0
C      1  0.5513840000000  0.4421040000000  0.5428580000000 1.0
C      1  0.5225870000000  0.5060630000000  0.5005310000000 1.0
C      1  0.4719070000000  0.4696010000000  0.5414760000000 1.0
C      1  0.5250210000000  0.4109780000000  0.4930460000000 1.0
END
