TITL C-2778436-5916-362 0.00147566358030044 125000 -289.172518713836 0 0 51 (C1) n - 1
REM
REM in /home/nfs/bkarasulu/CARBON/AIRSS/Generating-Clusters/REBO/Only-C1/SD-CG/HFTN-CG
REM
REM
REM
REM
REM
REM ./C.cell (11c1c37f851c82e70ff6c80c92926a4b)
REM
REM compiler GCC version 9.2.1 20190827 (Red Hat 9.2.1-1)
REM options -cpp -mtune=generic -march=x86-64 -g -O0 -fpre-include=/usr/include/finclude/math-vector-fortran.h
REM seed -90725370 154639965 -620328857 -560709674 1444168203 965529161 74213 1802520800 -262995346 31636253 1681337346 2089399881 2099820561 -390506824 257959314 1951258259 -1035134569 873959647 1712413655 567133929 1878586509 385828977 1945310987 -1627670691 -219658858 855908699 -482152095 92326923 -2040462189 -736755224 2008779183 -433294613 299829181
REM
CELL 1.54180   50.00000   50.00000   50.00000   90.00000   90.00000   90.00000
LATT -1
SFAC C  
C      1  0.4489280000000  0.4564510000000  0.4950050000000 1.0
C      1  0.4413210000000  0.5297750000000  0.4667490000000 1.0
C      1  0.5330040000000  0.5455790000000  0.5196820000000 1.0
C      1  0.5201770000000  0.5035420000000  0.5008140000000 1.0
C      1  0.5679680000000  0.4583350000000  0.5339760000000 1.0
C      1  0.5238230000000  0.4776440000000  0.4504800000000 1.0
C      1  0.5161050000000  0.5347980000000  0.4561160000000 1.0
C      1  0.4315160000000  0.4994100000000  0.4688460000000 1.0
C      1  0.5090870000000  0.5816180000000  0.5425580000000 1.0
C      1  0.5352940000000  0.4779840000000  0.5693410000000 1.0
C      1  0.5734740000000  0.5333110000000  0.4522210000000 1.0
C      1  0.5245260000000  0.5923540000000  0.4927770000000 1.0
C      1  0.4456560000000  0.4427550000000  0.4649630000000 1.0
C      1  0.5124120000000  0.4932320000000  0.5725330000000 1.0
C      1  0.5222540000000  0.4801440000000  0.5219630000000 1.0
C      1  0.5372940000000  0.5287690000000  0.5428810000000 1.0
C      1  0.4367510000000  0.4750590000000  0.4583820000000 1.0
C      1  0.5851260000000  0.4402150000000  0.5286360000000 1.0
C      1  0.5034580000000  0.4548010000000  0.5198390000000 1.0
C      1  0.4515760000000  0.4856620000000  0.5613940000000 1.0
C      1  0.4597090000000  0.4606350000000  0.4414370000000 1.0
C      1  0.5037440000000  0.4870760000000  0.4276090000000 1.0
C      1  0.5475390000000  0.4799090000000  0.5403330000000 1.0
C      1  0.4912400000000  0.5341730000000  0.4353570000000 1.0
C      1  0.5426610000000  0.5333270000000  0.4596470000000 1.0
C      1  0.4920760000000  0.5283160000000  0.4743260000000 1.0
C      1  0.5137930000000  0.5182960000000  0.5552340000000 1.0
C      1  0.4980940000000  0.5752970000000  0.4907260000000 1.0
C      1  0.4871450000000  0.4648630000000  0.4427010000000 1.0
C      1  0.4572490000000  0.4630920000000  0.5411560000000 1.0
C      1  0.4785780000000  0.5658860000000  0.4760550000000 1.0
C      1  0.5722790000000  0.5143510000000  0.5134090000000 1.0
C      1  0.5155210000000  0.4160510000000  0.4920140000000 1.0
C      1  0.4456110000000  0.5125470000000  0.5202070000000 1.0
C      1  0.4938670000000  0.5098070000000  0.4938850000000 1.0
C      1  0.5175490000000  0.5709260000000  0.5182760000000 1.0
C      1  0.4701120000000  0.4341520000000  0.4868620000000 1.0
C      1  0.5654620000000  0.5250870000000  0.4839780000000 1.0
C      1  0.4670130000000  0.5414080000000  0.4582980000000 1.0
C      1  0.4848160000000  0.4798340000000  0.5643230000000 1.0
C      1  0.5065200000000  0.4576540000000  0.4676150000000 1.0
C      1  0.5370940000000  0.5262560000000  0.4986010000000 1.0
C      1  0.4933030000000  0.5115990000000  0.4183470000000 1.0
C      1  0.4959810000000  0.4960860000000  0.5363940000000 1.0
C      1  0.5574330000000  0.5089350000000  0.5358590000000 1.0
C      1  0.5000060000000  0.4399200000000  0.4921780000000 1.0
C      1  0.4738660000000  0.4998180000000  0.5142490000000 1.0
C      1  0.4544620000000  0.4740210000000  0.5145390000000 1.0
C      1  0.4391350000000  0.5080290000000  0.5479850000000 1.0
C      1  0.4862620000000  0.4530230000000  0.5432280000000 1.0
C      1  0.4321290000000  0.5181930000000  0.4960120000000 1.0
END
