TITL C-2778432-5617-636 -0.00315883341229029 125000 -395.707826507896 0 0 68 (C1) n - 1
REM
REM in /home/nfs/bkarasulu/CARBON/AIRSS/Generating-Clusters/REBO/Only-C1/SD-CG/HFTN-CG
REM
REM
REM
REM
REM
REM ./C.cell (11c1c37f851c82e70ff6c80c92926a4b)
REM
REM compiler GCC version 9.2.1 20190827 (Red Hat 9.2.1-1)
REM options -cpp -mtune=generic -march=x86-64 -g -O0 -fpre-include=/usr/include/finclude/math-vector-fortran.h
REM seed -291375648 401725056 -521379318 2014736791 841162486 1605824327 1045982679 451230991 -677841116 -946997617 -960531085 -1987021972 1556568394 1577487690 1996534005 820666388 823479047 -1146063515 -1430698051 -1251181721 -1663785202 -2018087869 -1845854288 1063419521 -2007894736 152443037 1005730712 -2035948396 517478729 671637529 -1739769219 -1667500214 -1516555084
REM
CELL 1.54180   50.00000   50.00000   50.00000   90.00000   90.00000   90.00000
LATT -1
SFAC C  
C      1  0.4501510000000  0.5593640000000  0.4835820000000 1.0
C      1  0.5262460000000  0.4742530000000  0.5431160000000 1.0
C      1  0.5459250000000  0.4642550000000  0.5098370000000 1.0
C      1  0.4205960000000  0.4952640000000  0.5297750000000 1.0
C      1  0.4219720000000  0.5084550000000  0.4788470000000 1.0
C      1  0.4786600000000  0.4714580000000  0.4999570000000 1.0
C      1  0.5353730000000  0.5436480000000  0.5382520000000 1.0
C      1  0.4588270000000  0.5229680000000  0.4458510000000 1.0
C      1  0.5443400000000  0.5188640000000  0.5590540000000 1.0
C      1  0.5633320000000  0.4750300000000  0.4695840000000 1.0
C      1  0.4372360000000  0.4945220000000  0.5509250000000 1.0
C      1  0.5076630000000  0.4880580000000  0.5757200000000 1.0
C      1  0.4978970000000  0.4676780000000  0.4792280000000 1.0
C      1  0.5471870000000  0.5296270000000  0.4525260000000 1.0
C      1  0.5687600000000  0.4963590000000  0.4874650000000 1.0
C      1  0.4670170000000  0.4852480000000  0.4363650000000 1.0
C      1  0.4853110000000  0.5119250000000  0.4309490000000 1.0
C      1  0.5316570000000  0.4919580000000  0.5016670000000 1.0
C      1  0.5239770000000  0.5161830000000  0.5223240000000 1.0
C      1  0.4698720000000  0.5625340000000  0.5112870000000 1.0
C      1  0.4727140000000  0.5456840000000  0.4653510000000 1.0
C      1  0.5165020000000  0.5153280000000  0.5725450000000 1.0
C      1  0.5065550000000  0.4926170000000  0.5326060000000 1.0
C      1  0.5089480000000  0.5567690000000  0.5474550000000 1.0
C      1  0.4822340000000  0.4921310000000  0.5187980000000 1.0
C      1  0.5398280000000  0.4231020000000  0.5396110000000 1.0
C      1  0.5017860000000  0.5675280000000  0.5162090000000 1.0
C      1  0.5525710000000  0.5405720000000  0.5090480000000 1.0
C      1  0.4418460000000  0.4953740000000  0.4568950000000 1.0
C      1  0.4352870000000  0.5331390000000  0.4678160000000 1.0
C      1  0.4829320000000  0.4801250000000  0.5623200000000 1.0
C      1  0.5144950000000  0.5520480000000  0.4473410000000 1.0
C      1  0.4986390000000  0.4743380000000  0.4297760000000 1.0
C      1  0.5180020000000  0.4635490000000  0.4528380000000 1.0
C      1  0.4770510000000  0.4546180000000  0.4474690000000 1.0
C      1  0.4521490000000  0.4566450000000  0.5011000000000 1.0
C      1  0.4625930000000  0.5391930000000  0.5350010000000 1.0
C      1  0.5404470000000  0.5062280000000  0.4357550000000 1.0
C      1  0.5373470000000  0.5588060000000  0.4654600000000 1.0
C      1  0.4293960000000  0.4552440000000  0.5159570000000 1.0
C      1  0.4917760000000  0.4323260000000  0.4968350000000 1.0
C      1  0.5190260000000  0.5118930000000  0.4771110000000 1.0
C      1  0.4895650000000  0.5275680000000  0.4850710000000 1.0
C      1  0.4830020000000  0.4592090000000  0.5421950000000 1.0
C      1  0.4713210000000  0.5184770000000  0.5092770000000 1.0
C      1  0.4686250000000  0.4403130000000  0.4771790000000 1.0
C      1  0.4146020000000  0.5004900000000  0.5040730000000 1.0
C      1  0.4438340000000  0.5386100000000  0.5079670000000 1.0
C      1  0.5645720000000  0.5179190000000  0.5314280000000 1.0
C      1  0.5239580000000  0.4692240000000  0.5867990000000 1.0
C      1  0.5280270000000  0.4458630000000  0.5290470000000 1.0
C      1  0.5539460000000  0.4507500000000  0.4832400000000 1.0
C      1  0.4485550000000  0.4643350000000  0.4634870000000 1.0
C      1  0.5078400000000  0.5241800000000  0.4498700000000 1.0
C      1  0.5296670000000  0.5625150000000  0.4963440000000 1.0
C      1  0.5522420000000  0.4892200000000  0.5465810000000 1.0
C      1  0.4899140000000  0.5666970000000  0.4498470000000 1.0
C      1  0.5690140000000  0.4880940000000  0.5176320000000 1.0
C      1  0.5104170000000  0.5379450000000  0.5060510000000 1.0
C      1  0.4715310000000  0.5275640000000  0.5598390000000 1.0
C      1  0.5141900000000  0.4220260000000  0.4827390000000 1.0
C      1  0.5155610000000  0.5015800000000  0.4196270000000 1.0
C      1  0.4624560000000  0.5004190000000  0.5621250000000 1.0
C      1  0.4973750000000  0.4440600000000  0.5222750000000 1.0
C      1  0.5317070000000  0.4394890000000  0.4693180000000 1.0
C      1  0.5448010000000  0.4810700000000  0.4490410000000 1.0
C      1  0.4978590000000  0.5361470000000  0.5655870000000 1.0
C      1  0.5512990000000  0.5213300000000  0.4837510000000 1.0
END
