TITL C-2778425-5191-636 -0.0465004895866347 125000 -586.529958103052 0 0 98 (C1) n - 1
REM
REM in /home/nfs/bkarasulu/CARBON/AIRSS/Generating-Clusters/REBO/Only-C1/SD-CG/HFTN-CG
REM
REM
REM
REM
REM
REM ./C.cell (11c1c37f851c82e70ff6c80c92926a4b)
REM
REM compiler GCC version 9.2.1 20190827 (Red Hat 9.2.1-1)
REM options -cpp -mtune=generic -march=x86-64 -g -O0 -fpre-include=/usr/include/finclude/math-vector-fortran.h
REM seed -805562797 -1642392794 972043180 1768927796 1683978676 71662621 3844071 -65607831 1910198944 1010105348 -292796364 1384337327 -1170232102 -1432700610 509780947 -1114543374 1912994747 -1586947447 -509505584 131104155 57045838 2139913726 -1873713787 767885766 419456 1345465882 1797187623 -1171331714 -1915603436 -677301740 1497321189 -146304998 1809675245
REM
CELL 1.54180   50.00000   50.00000   50.00000   90.00000   90.00000   90.00000
LATT -1
SFAC C  
C      1  0.4153180000000  0.4897800000000  0.4933110000000 1.0
C      1  0.4761910000000  0.4702730000000  0.4919950000000 1.0
C      1  0.5602220000000  0.4664720000000  0.5695890000000 1.0
C      1  0.4221950000000  0.5266360000000  0.5421130000000 1.0
C      1  0.4893200000000  0.5043370000000  0.5888030000000 1.0
C      1  0.5306280000000  0.5583360000000  0.4743800000000 1.0
C      1  0.5022680000000  0.5452080000000  0.4280160000000 1.0
C      1  0.5280020000000  0.5323480000000  0.4296000000000 1.0
C      1  0.4946050000000  0.5930430000000  0.4842490000000 1.0
C      1  0.5037060000000  0.5390930000000  0.5092020000000 1.0
C      1  0.5800500000000  0.5323720000000  0.4729170000000 1.0
C      1  0.5618120000000  0.4589080000000  0.4639130000000 1.0
C      1  0.5001650000000  0.4794700000000  0.4706570000000 1.0
C      1  0.4287210000000  0.5469870000000  0.4721370000000 1.0
C      1  0.4955590000000  0.5306210000000  0.5910760000000 1.0
C      1  0.5408480000000  0.4382800000000  0.5293460000000 1.0
C      1  0.4723580000000  0.5173840000000  0.4654650000000 1.0
C      1  0.4326100000000  0.5342110000000  0.4424920000000 1.0
C      1  0.4386330000000  0.4849580000000  0.4509540000000 1.0
C      1  0.5406670000000  0.5139720000000  0.5603820000000 1.0
C      1  0.4398430000000  0.5485850000000  0.5401430000000 1.0
C      1  0.5654640000000  0.4859310000000  0.4794200000000 1.0
C      1  0.5392300000000  0.4614290000000  0.4466970000000 1.0
C      1  0.5420210000000  0.4234400000000  0.4870930000000 1.0
C      1  0.4337460000000  0.5250740000000  0.4957080000000 1.0
C      1  0.5138690000000  0.5677020000000  0.5209370000000 1.0
C      1  0.4249730000000  0.4598370000000  0.4787730000000 1.0
C      1  0.4913750000000  0.5616650000000  0.4510500000000 1.0
C      1  0.5425690000000  0.4882720000000  0.4998400000000 1.0
C      1  0.5151990000000  0.4549700000000  0.4608350000000 1.0
C      1  0.5863280000000  0.5132290000000  0.4993710000000 1.0
C      1  0.5256280000000  0.5179930000000  0.5033010000000 1.0
C      1  0.5751910000000  0.4816090000000  0.5506270000000 1.0
C      1  0.4791770000000  0.4582910000000  0.5625770000000 1.0
C      1  0.5308880000000  0.4579410000000  0.5100140000000 1.0
C      1  0.4943820000000  0.5747420000000  0.5436320000000 1.0
C      1  0.5152160000000  0.4321240000000  0.4794120000000 1.0
C      1  0.5275630000000  0.4920530000000  0.5701090000000 1.0
C      1  0.5427310000000  0.5663070000000  0.4446820000000 1.0
C      1  0.4676520000000  0.5860620000000  0.5296220000000 1.0
C      1  0.5289940000000  0.4580100000000  0.5721660000000 1.0
C      1  0.4814480000000  0.5264320000000  0.4201860000000 1.0
C      1  0.5891500000000  0.4474860000000  0.4976280000000 1.0
C      1  0.4290900000000  0.4400660000000  0.5053560000000 1.0
C      1  0.4922400000000  0.4385030000000  0.5406100000000 1.0
C      1  0.4883420000000  0.4248200000000  0.4890270000000 1.0
C      1  0.5908630000000  0.4698790000000  0.5302920000000 1.0
C      1  0.4798160000000  0.5401720000000  0.4858260000000 1.0
C      1  0.5249790000000  0.5047450000000  0.4220770000000 1.0
C      1  0.5543360000000  0.5348330000000  0.4506880000000 1.0
C      1  0.5557040000000  0.5478560000000  0.4883830000000 1.0
C      1  0.5592750000000  0.5033210000000  0.4541210000000 1.0
C      1  0.4574130000000  0.4700780000000  0.5402500000000 1.0
C      1  0.5565850000000  0.5443550000000  0.5161030000000 1.0
C      1  0.4544470000000  0.5597850000000  0.4885810000000 1.0
C      1  0.5101300000000  0.4904980000000  0.4979400000000 1.0
C      1  0.5170700000000  0.5798660000000  0.4931310000000 1.0
C      1  0.5077820000000  0.5355340000000  0.4663500000000 1.0
C      1  0.5285540000000  0.5392020000000  0.5562090000000 1.0
C      1  0.4183070000000  0.5109160000000  0.5202030000000 1.0
C      1  0.5000900000000  0.5499230000000  0.5666850000000 1.0
C      1  0.5654100000000  0.5080390000000  0.5463290000000 1.0
C      1  0.4786900000000  0.5293750000000  0.5267020000000 1.0
C      1  0.4147000000000  0.5069000000000  0.4406360000000 1.0
C      1  0.5220010000000  0.4370470000000  0.5509420000000 1.0
C      1  0.5424480000000  0.4881770000000  0.4359660000000 1.0
C      1  0.4059360000000  0.4788980000000  0.4580020000000 1.0
C      1  0.4130710000000  0.5160260000000  0.4718600000000 1.0
C      1  0.4995860000000  0.5052850000000  0.4528920000000 1.0
C      1  0.5917510000000  0.4815870000000  0.4987110000000 1.0
C      1  0.6038280000000  0.5425780000000  0.4620380000000 1.0
C      1  0.4482360000000  0.4472430000000  0.4594180000000 1.0
C      1  0.4576650000000  0.4922010000000  0.4736670000000 1.0
C      1  0.4747420000000  0.4727730000000  0.4187870000000 1.0
C      1  0.4571000000000  0.5130770000000  0.5108470000000 1.0
C      1  0.4942120000000  0.4968300000000  0.4203810000000 1.0
C      1  0.5667810000000  0.4376740000000  0.4818490000000 1.0
C      1  0.4706400000000  0.4970920000000  0.5665520000000 1.0
C      1  0.4812290000000  0.5021470000000  0.5407680000000 1.0
C      1  0.4767770000000  0.4225510000000  0.5157390000000 1.0
C      1  0.5660260000000  0.4264550000000  0.5346140000000 1.0
C      1  0.4716900000000  0.5506630000000  0.5477900000000 1.0
C      1  0.4246880000000  0.4682800000000  0.5502720000000 1.0
C      1  0.4764220000000  0.5766110000000  0.4698720000000 1.0
C      1  0.4250440000000  0.4694710000000  0.5173890000000 1.0
C      1  0.4601790000000  0.5282740000000  0.4389410000000 1.0
C      1  0.5898170000000  0.4392760000000  0.5267220000000 1.0
C      1  0.4482540000000  0.4237980000000  0.5152000000000 1.0
C      1  0.4559750000000  0.4831400000000  0.5123300000000 1.0
C      1  0.5730010000000  0.5224090000000  0.5229070000000 1.0
C      1  0.4495150000000  0.4719890000000  0.5729220000000 1.0
C      1  0.4547190000000  0.4637400000000  0.4346820000000 1.0
C      1  0.4677440000000  0.4300200000000  0.4697890000000 1.0
C      1  0.4939700000000  0.4846960000000  0.5245040000000 1.0
C      1  0.4501270000000  0.5676310000000  0.5186980000000 1.0
C      1  0.4990110000000  0.4552820000000  0.5125560000000 1.0
C      1  0.5004940000000  0.4737090000000  0.5790420000000 1.0
C      1  0.5369780000000  0.5528350000000  0.5334340000000 1.0
END
