TITL C-2778431-5191-94 0.000350252603132224 125000 -966.667182818101 0 0 167 (C1) n - 1
REM
REM in /home/nfs/bkarasulu/CARBON/AIRSS/Generating-Clusters/REBO/Only-C1/SD-CG/HFTN-CG
REM
REM
REM
REM
REM
REM ./C.cell (11c1c37f851c82e70ff6c80c92926a4b)
REM
REM compiler GCC version 9.2.1 20190827 (Red Hat 9.2.1-1)
REM options -cpp -mtune=generic -march=x86-64 -g -O0 -fpre-include=/usr/include/finclude/math-vector-fortran.h
REM seed -1550583987 999637407 -1683846252 943063319 1154286655 99891685 -2068269377 -148587394 1360415230 -1088456726 -1502443612 -1810268545 208533412 -1173865577 1314854031 1660715251 1366178642 -721827925 1391518400 -959544335 -610672315 -1956267903 124777811 -2125157429 636742142 1192610804 -916768764 1096771124 -2063669480 126629525 -1779717971 -1248690071 443143336
REM
CELL 1.54180   50.00000   50.00000   50.00000   90.00000   90.00000   90.00000
LATT -1
SFAC C  
C      1  0.4656950000000  0.5169890000000  0.5950850000000 1.0
C      1  0.3936090000000  0.5211540000000  0.5350810000000 1.0
C      1  0.5363350000000  0.5193680000000  0.5442720000000 1.0
C      1  0.5926210000000  0.5227510000000  0.4865920000000 1.0
C      1  0.4928860000000  0.5163770000000  0.4862870000000 1.0
C      1  0.5904430000000  0.5495160000000  0.4712600000000 1.0
C      1  0.5171910000000  0.5878200000000  0.5490620000000 1.0
C      1  0.5983640000000  0.4714550000000  0.4963670000000 1.0
C      1  0.5252030000000  0.5145700000000  0.4384790000000 1.0
C      1  0.5162800000000  0.4445170000000  0.4729330000000 1.0
C      1  0.4885160000000  0.4988580000000  0.5431900000000 1.0
C      1  0.4431530000000  0.5702950000000  0.4868730000000 1.0
C      1  0.4181560000000  0.4922490000000  0.4990410000000 1.0
C      1  0.4893450000000  0.5537510000000  0.5138170000000 1.0
C      1  0.4422730000000  0.4953610000000  0.4160820000000 1.0
C      1  0.5417640000000  0.4834900000000  0.6066780000000 1.0
C      1  0.4662560000000  0.3987350000000  0.5378490000000 1.0
C      1  0.4420290000000  0.4628540000000  0.4273840000000 1.0
C      1  0.4951990000000  0.3892950000000  0.5255100000000 1.0
C      1  0.5397560000000  0.5911230000000  0.5277790000000 1.0
C      1  0.5577690000000  0.5713240000000  0.4197670000000 1.0
C      1  0.4958600000000  0.4016780000000  0.4940240000000 1.0
C      1  0.4302840000000  0.4675680000000  0.4807040000000 1.0
C      1  0.4670880000000  0.4934730000000  0.3927760000000 1.0
C      1  0.4824910000000  0.6086910000000  0.4750020000000 1.0
C      1  0.5411910000000  0.4151790000000  0.5425080000000 1.0
C      1  0.4385600000000  0.5152950000000  0.4845050000000 1.0
C      1  0.5036280000000  0.5525000000000  0.5827690000000 1.0
C      1  0.5629640000000  0.5839010000000  0.4966570000000 1.0
C      1  0.4418850000000  0.5595920000000  0.4279510000000 1.0
C      1  0.5594490000000  0.4929270000000  0.4609380000000 1.0
C      1  0.4285500000000  0.5120700000000  0.4519960000000 1.0
C      1  0.5262230000000  0.4760960000000  0.4751330000000 1.0
C      1  0.5982570000000  0.4947120000000  0.4790650000000 1.0
C      1  0.4650130000000  0.4647630000000  0.4058630000000 1.0
C      1  0.4542570000000  0.3949870000000  0.4785430000000 1.0
C      1  0.4898580000000  0.4100230000000  0.5591360000000 1.0
C      1  0.5407560000000  0.5582530000000  0.5369100000000 1.0
C      1  0.4871630000000  0.4294870000000  0.5854220000000 1.0
C      1  0.5668170000000  0.5074880000000  0.4308660000000 1.0
C      1  0.4722050000000  0.5738380000000  0.4333470000000 1.0
C      1  0.4402100000000  0.4330800000000  0.4438000000000 1.0
C      1  0.5148510000000  0.4607030000000  0.5591640000000 1.0
C      1  0.5458470000000  0.4560140000000  0.5890570000000 1.0
C      1  0.5815890000000  0.4659010000000  0.4416150000000 1.0
C      1  0.5771860000000  0.5316120000000  0.4508750000000 1.0
C      1  0.5565140000000  0.5495240000000  0.5659660000000 1.0
C      1  0.4058100000000  0.4730120000000  0.5499690000000 1.0
C      1  0.4441610000000  0.5798000000000  0.5197180000000 1.0
C      1  0.5114400000000  0.4516840000000  0.4176380000000 1.0
C      1  0.4728790000000  0.4781990000000  0.5909760000000 1.0
C      1  0.4091860000000  0.4854290000000  0.4607110000000 1.0
C      1  0.5260400000000  0.5641800000000  0.5677690000000 1.0
C      1  0.4952080000000  0.5002780000000  0.4381950000000 1.0
C      1  0.4926110000000  0.5817400000000  0.5337830000000 1.0
C      1  0.4935600000000  0.5022220000000  0.6041510000000 1.0
C      1  0.4011520000000  0.5453020000000  0.5228450000000 1.0
C      1  0.5300880000000  0.4626170000000  0.5222540000000 1.0
C      1  0.4313170000000  0.5184150000000  0.5751710000000 1.0
C      1  0.5350670000000  0.5570730000000  0.4414690000000 1.0
C      1  0.4935090000000  0.5334980000000  0.4017410000000 1.0
C      1  0.5148510000000  0.5225930000000  0.5949490000000 1.0
C      1  0.4546400000000  0.5428550000000  0.5303510000000 1.0
C      1  0.5455820000000  0.4686390000000  0.5512940000000 1.0
C      1  0.5975820000000  0.4853530000000  0.4517490000000 1.0
C      1  0.3991460000000  0.5121740000000  0.4789680000000 1.0
C      1  0.3915940000000  0.4898030000000  0.5262980000000 1.0
C      1  0.5349300000000  0.5540050000000  0.4016280000000 1.0
C      1  0.5161860000000  0.5215410000000  0.5608690000000 1.0
C      1  0.4411080000000  0.5426840000000  0.5041030000000 1.0
C      1  0.4919000000000  0.5963780000000  0.4462960000000 1.0
C      1  0.5379980000000  0.5247860000000  0.4098430000000 1.0
C      1  0.4401920000000  0.4260610000000  0.4770140000000 1.0
C      1  0.5196560000000  0.4103640000000  0.4465420000000 1.0
C      1  0.5635570000000  0.5839690000000  0.4493230000000 1.0
C      1  0.4941250000000  0.5046470000000  0.3918870000000 1.0
C      1  0.6095620000000  0.4912760000000  0.5497070000000 1.0
C      1  0.4327060000000  0.4367290000000  0.5076200000000 1.0
C      1  0.5408670000000  0.4210470000000  0.4686390000000 1.0
C      1  0.5298370000000  0.5312880000000  0.4859490000000 1.0
C      1  0.5049000000000  0.4940510000000  0.4664390000000 1.0
C      1  0.4655750000000  0.5717750000000  0.5451610000000 1.0
C      1  0.4329360000000  0.4925150000000  0.5282700000000 1.0
C      1  0.5773530000000  0.5279340000000  0.5114320000000 1.0
C      1  0.5631640000000  0.4383720000000  0.4495650000000 1.0
C      1  0.4985230000000  0.5844070000000  0.5020270000000 1.0
C      1  0.4949830000000  0.4393690000000  0.5474690000000 1.0
C      1  0.5671430000000  0.5397170000000  0.4199230000000 1.0
C      1  0.5562960000000  0.4610300000000  0.4728540000000 1.0
C      1  0.5965970000000  0.4734540000000  0.5276000000000 1.0
C      1  0.5678340000000  0.4258220000000  0.4869720000000 1.0
C      1  0.5432550000000  0.4922100000000  0.4108530000000 1.0
C      1  0.5170250000000  0.4805570000000  0.3996870000000 1.0
C      1  0.5440160000000  0.5343270000000  0.5140540000000 1.0
C      1  0.5935300000000  0.5396410000000  0.5370100000000 1.0
C      1  0.4662640000000  0.5120620000000  0.4987030000000 1.0
C      1  0.4355200000000  0.5463760000000  0.5575730000000 1.0
C      1  0.5656690000000  0.5114330000000  0.5383340000000 1.0
C      1  0.5116200000000  0.4739480000000  0.5984500000000 1.0
C      1  0.4514140000000  0.5446240000000  0.5857010000000 1.0
C      1  0.5156130000000  0.6020280000000  0.4705840000000 1.0
C      1  0.5204090000000  0.4103790000000  0.5159850000000 1.0
C      1  0.5097080000000  0.5813790000000  0.4227370000000 1.0
C      1  0.4226380000000  0.4541500000000  0.5626090000000 1.0
C      1  0.5915320000000  0.5150750000000  0.5585090000000 1.0
C      1  0.4843100000000  0.5280660000000  0.5701070000000 1.0
C      1  0.4336180000000  0.5605430000000  0.4586490000000 1.0
C      1  0.4651760000000  0.4470820000000  0.5897620000000 1.0
C      1  0.4336960000000  0.5269910000000  0.4217630000000 1.0
C      1  0.4441860000000  0.4147720000000  0.5303140000000 1.0
C      1  0.5309490000000  0.4491940000000  0.4425280000000 1.0
C      1  0.4658720000000  0.5920880000000  0.4962080000000 1.0
C      1  0.5901810000000  0.4453630000000  0.4870970000000 1.0
C      1  0.4427800000000  0.4933890000000  0.5917060000000 1.0
C      1  0.5069400000000  0.4834240000000  0.5205360000000 1.0
C      1  0.5687980000000  0.4892620000000  0.5160360000000 1.0
C      1  0.4567210000000  0.4941890000000  0.4469190000000 1.0
C      1  0.4673140000000  0.4523960000000  0.5477870000000 1.0
C      1  0.5461960000000  0.5328770000000  0.4580040000000 1.0
C      1  0.5435690000000  0.5140800000000  0.6012120000000 1.0
C      1  0.4204860000000  0.5627000000000  0.5355720000000 1.0
C      1  0.4794520000000  0.5538530000000  0.4842960000000 1.0
C      1  0.5147460000000  0.4412360000000  0.5937560000000 1.0
C      1  0.4911020000000  0.4765270000000  0.4198480000000 1.0
C      1  0.4622670000000  0.5021570000000  0.5237180000000 1.0
C      1  0.4164690000000  0.5052700000000  0.5525180000000 1.0
C      1  0.4108210000000  0.5396840000000  0.4621610000000 1.0
C      1  0.4627780000000  0.4592610000000  0.4871570000000 1.0
C      1  0.4995880000000  0.4262890000000  0.4332790000000 1.0
C      1  0.4650380000000  0.5381900000000  0.4168370000000 1.0
C      1  0.4970160000000  0.4844830000000  0.5687340000000 1.0
C      1  0.4020400000000  0.4393930000000  0.5101310000000 1.0
C      1  0.5757740000000  0.5747750000000  0.4731010000000 1.0
C      1  0.4727740000000  0.5654600000000  0.5758760000000 1.0
C      1  0.5300740000000  0.5933590000000  0.4968080000000 1.0
C      1  0.4612130000000  0.4649030000000  0.4556050000000 1.0
C      1  0.5639260000000  0.5197980000000  0.5772010000000 1.0
C      1  0.5089410000000  0.4396390000000  0.5196340000000 1.0
C      1  0.4418570000000  0.4400260000000  0.5463870000000 1.0
C      1  0.4086980000000  0.5402650000000  0.4942910000000 1.0
C      1  0.5066480000000  0.5335260000000  0.4606040000000 1.0
C      1  0.4844470000000  0.5321410000000  0.5374150000000 1.0
C      1  0.4918880000000  0.4426300000000  0.4931500000000 1.0
C      1  0.5493320000000  0.4726850000000  0.4353310000000 1.0
C      1  0.5548360000000  0.4506980000000  0.5050460000000 1.0
C      1  0.4666790000000  0.5509010000000  0.4580430000000 1.0
C      1  0.5314380000000  0.5907680000000  0.4459040000000 1.0
C      1  0.5793130000000  0.5630800000000  0.5461710000000 1.0
C      1  0.5601890000000  0.4414500000000  0.5372380000000 1.0
C      1  0.4778450000000  0.4390390000000  0.4559110000000 1.0
C      1  0.4795530000000  0.4663800000000  0.5223260000000 1.0
C      1  0.4162620000000  0.4525040000000  0.4555980000000 1.0
C      1  0.5185230000000  0.5040680000000  0.5025840000000 1.0
C      1  0.4826360000000  0.4057060000000  0.4629990000000 1.0
C      1  0.4724940000000  0.5220650000000  0.4435840000000 1.0
C      1  0.4371260000000  0.4615860000000  0.5865510000000 1.0
C      1  0.5348870000000  0.4337380000000  0.5672300000000 1.0
C      1  0.5569260000000  0.4862160000000  0.5760960000000 1.0
C      1  0.5491330000000  0.4941870000000  0.4933450000000 1.0
C      1  0.4470980000000  0.4658880000000  0.5163570000000 1.0
C      1  0.4671060000000  0.4153400000000  0.4340450000000 1.0
C      1  0.4676740000000  0.4208950000000  0.4964570000000 1.0
C      1  0.5713630000000  0.5817000000000  0.5267570000000 1.0
C      1  0.5170530000000  0.3936110000000  0.5513410000000 1.0
C      1  0.4861790000000  0.5668500000000  0.4029900000000 1.0
C      1  0.5888400000000  0.4457260000000  0.5396720000000 1.0
C      1  0.5060680000000  0.5481620000000  0.4298190000000 1.0
END
