TITL C-2778426-5645-1435 -0.0700909482028564 125000 -308.132617625098 0 0 54 (C1) n - 1
REM
REM in /home/nfs/bkarasulu/CARBON/AIRSS/Generating-Clusters/REBO/Only-C1/SD-CG/HFTN-CG
REM
REM
REM
REM
REM
REM ./C.cell (11c1c37f851c82e70ff6c80c92926a4b)
REM
REM compiler GCC version 9.2.1 20190827 (Red Hat 9.2.1-1)
REM options -cpp -mtune=generic -march=x86-64 -g -O0 -fpre-include=/usr/include/finclude/math-vector-fortran.h
REM seed -1988167127 -1012010356 -705875654 1534295928 -641915033 -1540589506 -918158787 1286892758 1201785683 -948195860 346496239 -1082072578 -532323493 -898743088 -1544621526 -365236242 -2084833427 -1103759919 -1895824256 -1508776218 362497150 192888817 -468708291 578166352 1717996444 -34875286 928660877 -680647974 1094005020 -1756308708 -107317934 174680437 -385687676
REM
CELL 1.54180   50.00000   50.00000   50.00000   90.00000   90.00000   90.00000
LATT -1
SFAC C  
C      1  0.4672490000000  0.5429570000000  0.4627440000000 1.0
C      1  0.4994690000000  0.4271070000000  0.5025310000000 1.0
C      1  0.4703570000000  0.5361480000000  0.4355080000000 1.0
C      1  0.5254670000000  0.5162780000000  0.4259640000000 1.0
C      1  0.4912190000000  0.5647940000000  0.5456580000000 1.0
C      1  0.5586270000000  0.5001770000000  0.5432120000000 1.0
C      1  0.5148590000000  0.4761550000000  0.5114020000000 1.0
C      1  0.4651010000000  0.4949710000000  0.5663310000000 1.0
C      1  0.5361730000000  0.5151120000000  0.4744960000000 1.0
C      1  0.4814900000000  0.5594000000000  0.5195160000000 1.0
C      1  0.5685180000000  0.4609110000000  0.5062430000000 1.0
C      1  0.5193830000000  0.4650300000000  0.5420990000000 1.0
C      1  0.5717020000000  0.4727330000000  0.5322490000000 1.0
C      1  0.4933050000000  0.5252400000000  0.5365160000000 1.0
C      1  0.5176190000000  0.5580560000000  0.5504950000000 1.0
C      1  0.4989690000000  0.5667200000000  0.4976730000000 1.0
C      1  0.5343390000000  0.5178730000000  0.4013560000000 1.0
C      1  0.4493200000000  0.5137610000000  0.5569090000000 1.0
C      1  0.4625920000000  0.4474810000000  0.5251790000000 1.0
C      1  0.5326920000000  0.5483100000000  0.5287220000000 1.0
C      1  0.4185730000000  0.5229510000000  0.5071020000000 1.0
C      1  0.5631800000000  0.5304270000000  0.4996190000000 1.0
C      1  0.4304350000000  0.4936190000000  0.5105230000000 1.0
C      1  0.4700610000000  0.5302490000000  0.5147340000000 1.0
C      1  0.5752220000000  0.5061050000000  0.4442400000000 1.0
C      1  0.4975500000000  0.4794070000000  0.5578100000000 1.0
C      1  0.5467430000000  0.4719300000000  0.5526090000000 1.0
C      1  0.4920620000000  0.4989520000000  0.5030820000000 1.0
C      1  0.5691490000000  0.4783330000000  0.4840660000000 1.0
C      1  0.4733600000000  0.4770980000000  0.5161990000000 1.0
C      1  0.4894060000000  0.5090040000000  0.4577700000000 1.0
C      1  0.5453980000000  0.5192510000000  0.5251200000000 1.0
C      1  0.4686970000000  0.4685770000000  0.5487370000000 1.0
C      1  0.4373610000000  0.4692160000000  0.5006700000000 1.0
C      1  0.5160670000000  0.5145880000000  0.4520360000000 1.0
C      1  0.4376940000000  0.5498900000000  0.4696510000000 1.0
C      1  0.5264140000000  0.5591100000000  0.5020020000000 1.0
C      1  0.4948600000000  0.4296810000000  0.4744410000000 1.0
C      1  0.4183300000000  0.5412290000000  0.4862990000000 1.0
C      1  0.4759880000000  0.4242700000000  0.5179130000000 1.0
C      1  0.4868850000000  0.5659440000000  0.4720680000000 1.0
C      1  0.5004510000000  0.5091600000000  0.5541720000000 1.0
C      1  0.4718960000000  0.4617820000000  0.4452220000000 1.0
C      1  0.4767060000000  0.5202070000000  0.4849350000000 1.0
C      1  0.5208790000000  0.4445110000000  0.5147120000000 1.0
C      1  0.4765610000000  0.4884910000000  0.4437910000000 1.0
C      1  0.5255800000000  0.5056770000000  0.5026660000000 1.0
C      1  0.4447490000000  0.5193720000000  0.5269360000000 1.0
C      1  0.5613580000000  0.4991800000000  0.4671690000000 1.0
C      1  0.5440070000000  0.5459400000000  0.4829220000000 1.0
C      1  0.5500780000000  0.4389850000000  0.5057100000000 1.0
C      1  0.4710830000000  0.4443940000000  0.4675470000000 1.0
C      1  0.5132920000000  0.4224430000000  0.4558150000000 1.0
C      1  0.4514780000000  0.4508130000000  0.4869060000000 1.0
END
