TITL C-2778424-3986-419 -0.0101185270467664 125000 -457.836684560058 0 0 80 (C1) n - 1
REM
REM in /home/nfs/bkarasulu/CARBON/AIRSS/Generating-Clusters/REBO/Only-C1/SD-CG/HFTN-CG
REM
REM
REM
REM
REM
REM ./C.cell (11c1c37f851c82e70ff6c80c92926a4b)
REM
REM compiler GCC version 9.2.1 20190827 (Red Hat 9.2.1-1)
REM options -cpp -mtune=generic -march=x86-64 -g -O0 -fpre-include=/usr/include/finclude/math-vector-fortran.h
REM seed 2094753234 1579564063 1704112124 1478601957 -77591949 2005976173 285066884 -36760842 -1989508075 1431932744 -892702776 -243983867 -833005930 671429982 1113148262 -1496597596 -1756329301 142311319 1131526646 982505674 613812748 -1590640310 -49997247 -1861750085 -200867139 1478556958 -901823566 -1720205916 477396642 -954443499 360497469 -1631232201 -2084749034
REM
CELL 1.54180   50.00000   50.00000   50.00000   90.00000   90.00000   90.00000
LATT -1
SFAC C  
C      1  0.5591200000000  0.5113950000000  0.5182820000000 1.0
C      1  0.5257660000000  0.5705200000000  0.5130160000000 1.0
C      1  0.4733150000000  0.4984260000000  0.5367300000000 1.0
C      1  0.4545450000000  0.4881830000000  0.5621630000000 1.0
C      1  0.5879400000000  0.5128120000000  0.4839230000000 1.0
C      1  0.4263420000000  0.4633750000000  0.4865960000000 1.0
C      1  0.5139190000000  0.5801140000000  0.4658600000000 1.0
C      1  0.4646540000000  0.5151510000000  0.5720600000000 1.0
C      1  0.4774570000000  0.5660790000000  0.5056410000000 1.0
C      1  0.5320160000000  0.5110220000000  0.4977480000000 1.0
C      1  0.4949940000000  0.5538310000000  0.5488370000000 1.0
C      1  0.5327880000000  0.5084900000000  0.5625970000000 1.0
C      1  0.4450290000000  0.4948560000000  0.4436900000000 1.0
C      1  0.5096120000000  0.4337020000000  0.4356690000000 1.0
C      1  0.5022340000000  0.4612820000000  0.4940100000000 1.0
C      1  0.5601920000000  0.5723400000000  0.4779380000000 1.0
C      1  0.4223150000000  0.4835490000000  0.5138700000000 1.0
C      1  0.5705980000000  0.4383510000000  0.5278080000000 1.0
C      1  0.4938610000000  0.5411420000000  0.4387360000000 1.0
C      1  0.4220330000000  0.5128410000000  0.5231800000000 1.0
C      1  0.4641640000000  0.4550880000000  0.4246580000000 1.0
C      1  0.4408540000000  0.4642740000000  0.5545670000000 1.0
C      1  0.4095330000000  0.5331040000000  0.5094390000000 1.0
C      1  0.5223840000000  0.4395500000000  0.4818330000000 1.0
C      1  0.5793460000000  0.5456060000000  0.4865740000000 1.0
C      1  0.4924010000000  0.5637830000000  0.4570870000000 1.0
C      1  0.4531940000000  0.4465820000000  0.4497940000000 1.0
C      1  0.4997640000000  0.5041800000000  0.5012670000000 1.0
C      1  0.4707820000000  0.5173070000000  0.4462140000000 1.0
C      1  0.4276690000000  0.5520400000000  0.5007120000000 1.0
C      1  0.5225060000000  0.5248110000000  0.5267090000000 1.0
C      1  0.5664900000000  0.4605820000000  0.5027030000000 1.0
C      1  0.5520770000000  0.4946730000000  0.4212820000000 1.0
C      1  0.5039890000000  0.4667320000000  0.4594020000000 1.0
C      1  0.4736580000000  0.5574770000000  0.4772670000000 1.0
C      1  0.4682430000000  0.5426700000000  0.5537020000000 1.0
C      1  0.5481850000000  0.4498880000000  0.4778530000000 1.0
C      1  0.4987370000000  0.5687490000000  0.5237650000000 1.0
C      1  0.4160090000000  0.4683860000000  0.5400260000000 1.0
C      1  0.5006230000000  0.5148210000000  0.5397270000000 1.0
C      1  0.5162510000000  0.4963880000000  0.4556920000000 1.0
C      1  0.4731450000000  0.4873620000000  0.4260250000000 1.0
C      1  0.5204860000000  0.5373300000000  0.4292970000000 1.0
C      1  0.5411850000000  0.5337280000000  0.4484410000000 1.0
C      1  0.5599870000000  0.5014520000000  0.5444430000000 1.0
C      1  0.5339340000000  0.5791450000000  0.4863000000000 1.0
C      1  0.5248980000000  0.4832630000000  0.5408280000000 1.0
C      1  0.4990850000000  0.4217480000000  0.5775010000000 1.0
C      1  0.5341980000000  0.4989310000000  0.5894450000000 1.0
C      1  0.4952230000000  0.5189020000000  0.5705880000000 1.0
C      1  0.5027820000000  0.4270140000000  0.4630220000000 1.0
C      1  0.4981200000000  0.4783760000000  0.5234630000000 1.0
C      1  0.3907550000000  0.4604970000000  0.5474850000000 1.0
C      1  0.5507180000000  0.4650650000000  0.5308050000000 1.0
C      1  0.4543360000000  0.4866710000000  0.5017990000000 1.0
C      1  0.5278330000000  0.4584040000000  0.5627290000000 1.0
C      1  0.4678610000000  0.5135800000000  0.5000970000000 1.0
C      1  0.4711270000000  0.4647790000000  0.4819170000000 1.0
C      1  0.5668690000000  0.5499290000000  0.4548700000000 1.0
C      1  0.5775030000000  0.5192610000000  0.4565560000000 1.0
C      1  0.4500650000000  0.5214750000000  0.5348090000000 1.0
C      1  0.4373090000000  0.4682880000000  0.4609490000000 1.0
C      1  0.4863860000000  0.4517980000000  0.5408770000000 1.0
C      1  0.4884230000000  0.4925090000000  0.4733950000000 1.0
C      1  0.5345940000000  0.5139210000000  0.4671730000000 1.0
C      1  0.5634850000000  0.4747570000000  0.4657640000000 1.0
C      1  0.4958850000000  0.4617330000000  0.4277860000000 1.0
C      1  0.4646810000000  0.5307590000000  0.4738960000000 1.0
C      1  0.5554800000000  0.4758000000000  0.5648790000000 1.0
C      1  0.5044570000000  0.4427450000000  0.5611670000000 1.0
C      1  0.4478560000000  0.4533010000000  0.5104970000000 1.0
C      1  0.5642720000000  0.4958800000000  0.4454230000000 1.0
C      1  0.5809750000000  0.4862220000000  0.4897110000000 1.0
C      1  0.4223140000000  0.5062410000000  0.4316180000000 1.0
C      1  0.5681510000000  0.5396580000000  0.5147680000000 1.0
C      1  0.4747760000000  0.4349440000000  0.4683210000000 1.0
C      1  0.4580980000000  0.4481760000000  0.5369470000000 1.0
C      1  0.4564000000000  0.5439090000000  0.5106700000000 1.0
C      1  0.5198140000000  0.5399930000000  0.5635870000000 1.0
C      1  0.5409480000000  0.5483060000000  0.5235230000000 1.0
END
