TITL C-2778425-5191-1147 0.00101580059083877 125000 -771.32228657023 0 0 135 (C1) n - 1
REM
REM in /home/nfs/bkarasulu/CARBON/AIRSS/Generating-Clusters/REBO/Only-C1/SD-CG/HFTN-CG
REM
REM
REM
REM
REM
REM ./C.cell (11c1c37f851c82e70ff6c80c92926a4b)
REM
REM compiler GCC version 9.2.1 20190827 (Red Hat 9.2.1-1)
REM options -cpp -mtune=generic -march=x86-64 -g -O0 -fpre-include=/usr/include/finclude/math-vector-fortran.h
REM seed 2137020647 827930159 1690026728 1670211857 25952168 955150908 -113358620 -132722606 -449746711 -1857032306 498689393 1767042915 -645288770 1827967297 2111007876 1027280939 -910017816 -1743537918 348214568 1591467939 438476334 1219078878 250297386 1748426104 1029701283 1637604359 1516003433 1400349215 -364800869 20102155 1001071708 463058751 762542378
REM
CELL 1.54180   50.00000   50.00000   50.00000   90.00000   90.00000   90.00000
LATT -1
SFAC C  
C      1  0.4626340000000  0.4229540000000  0.5364480000000 1.0
C      1  0.4559180000000  0.5044570000000  0.4689280000000 1.0
C      1  0.5561810000000  0.5613360000000  0.4458880000000 1.0
C      1  0.5662360000000  0.5619830000000  0.5064500000000 1.0
C      1  0.4625410000000  0.4805780000000  0.5843060000000 1.0
C      1  0.5091680000000  0.5823220000000  0.4735260000000 1.0
C      1  0.5065060000000  0.5241880000000  0.4502130000000 1.0
C      1  0.4531510000000  0.4097080000000  0.4637170000000 1.0
C      1  0.5170050000000  0.5764630000000  0.5585050000000 1.0
C      1  0.4950690000000  0.5450470000000  0.4743390000000 1.0
C      1  0.4668610000000  0.5537810000000  0.4687630000000 1.0
C      1  0.4622770000000  0.5589690000000  0.4213730000000 1.0
C      1  0.5241030000000  0.5031820000000  0.4038990000000 1.0
C      1  0.4314060000000  0.4586790000000  0.5440260000000 1.0
C      1  0.5463810000000  0.5184330000000  0.5343950000000 1.0
C      1  0.5474600000000  0.4883950000000  0.4111940000000 1.0
C      1  0.4253860000000  0.5064810000000  0.4607520000000 1.0
C      1  0.4736050000000  0.5166360000000  0.4449280000000 1.0
C      1  0.4581160000000  0.5382330000000  0.5635280000000 1.0
C      1  0.4878590000000  0.4275500000000  0.5589430000000 1.0
C      1  0.4247060000000  0.4983340000000  0.4309030000000 1.0
C      1  0.5320970000000  0.4287240000000  0.5336700000000 1.0
C      1  0.4814620000000  0.4638980000000  0.5443490000000 1.0
C      1  0.5787840000000  0.4828730000000  0.5088170000000 1.0
C      1  0.4462590000000  0.5031590000000  0.4126290000000 1.0
C      1  0.5775100000000  0.4475020000000  0.4651240000000 1.0
C      1  0.5011640000000  0.4433040000000  0.5783030000000 1.0
C      1  0.5298060000000  0.4412000000000  0.5818730000000 1.0
C      1  0.5348980000000  0.4004960000000  0.5139580000000 1.0
C      1  0.4864490000000  0.5351830000000  0.4182550000000 1.0
C      1  0.4412210000000  0.4409590000000  0.5196380000000 1.0
C      1  0.4409380000000  0.5451250000000  0.5242760000000 1.0
C      1  0.5101310000000  0.4540820000000  0.5054160000000 1.0
C      1  0.4113130000000  0.4937340000000  0.5878290000000 1.0
C      1  0.5241180000000  0.5774720000000  0.4283360000000 1.0
C      1  0.4723060000000  0.5665810000000  0.5654920000000 1.0
C      1  0.5402850000000  0.4657670000000  0.5936610000000 1.0
C      1  0.5092030000000  0.4929870000000  0.4970080000000 1.0
C      1  0.4117320000000  0.4770050000000  0.5026520000000 1.0
C      1  0.4441660000000  0.4994060000000  0.5193040000000 1.0
C      1  0.4547470000000  0.5297790000000  0.4104100000000 1.0
C      1  0.4557760000000  0.4461480000000  0.4795630000000 1.0
C      1  0.5057380000000  0.4410020000000  0.4679460000000 1.0
C      1  0.4284010000000  0.5326670000000  0.5526440000000 1.0
C      1  0.4707510000000  0.4190170000000  0.5042700000000 1.0
C      1  0.5369990000000  0.5273130000000  0.4808930000000 1.0
C      1  0.4145860000000  0.5034520000000  0.4910400000000 1.0
C      1  0.4822100000000  0.4374170000000  0.4019340000000 1.0
C      1  0.5099010000000  0.5300600000000  0.5857130000000 1.0
C      1  0.5887080000000  0.4573460000000  0.4937990000000 1.0
C      1  0.5460880000000  0.4296870000000  0.5610730000000 1.0
C      1  0.5282840000000  0.4826940000000  0.5349100000000 1.0
C      1  0.5570940000000  0.4793100000000  0.5313380000000 1.0
C      1  0.5353200000000  0.4708760000000  0.4922630000000 1.0
C      1  0.5572790000000  0.4472340000000  0.4456650000000 1.0
C      1  0.4503480000000  0.4724880000000  0.5117430000000 1.0
C      1  0.5088580000000  0.5025560000000  0.5415720000000 1.0
C      1  0.5489640000000  0.4467530000000  0.5096050000000 1.0
C      1  0.5390190000000  0.5102690000000  0.5666380000000 1.0
C      1  0.4718950000000  0.5806100000000  0.5417420000000 1.0
C      1  0.4954890000000  0.4203530000000  0.5265920000000 1.0
C      1  0.5636510000000  0.5621510000000  0.5569340000000 1.0
C      1  0.5131890000000  0.3923840000000  0.4889230000000 1.0
C      1  0.4888680000000  0.4670910000000  0.4068600000000 1.0
C      1  0.4636620000000  0.5744850000000  0.5095940000000 1.0
C      1  0.5423240000000  0.5071520000000  0.4588460000000 1.0
C      1  0.4932720000000  0.4712540000000  0.5887050000000 1.0
C      1  0.5561590000000  0.4188120000000  0.5036090000000 1.0
C      1  0.5143860000000  0.5732850000000  0.5187780000000 1.0
C      1  0.4803560000000  0.4827900000000  0.4463000000000 1.0
C      1  0.4248050000000  0.4497580000000  0.4908950000000 1.0
C      1  0.5552530000000  0.4752470000000  0.4345970000000 1.0
C      1  0.5029320000000  0.4990800000000  0.4263000000000 1.0
C      1  0.4543680000000  0.4661720000000  0.5600490000000 1.0
C      1  0.5183220000000  0.5325120000000  0.4115890000000 1.0
C      1  0.4342590000000  0.5092280000000  0.5768380000000 1.0
C      1  0.4750320000000  0.5452810000000  0.5232950000000 1.0
C      1  0.5717800000000  0.4422590000000  0.5592120000000 1.0
C      1  0.4804180000000  0.3993340000000  0.4821640000000 1.0
C      1  0.5092480000000  0.5458420000000  0.5027880000000 1.0
C      1  0.5113300000000  0.4556430000000  0.5361290000000 1.0
C      1  0.5008900000000  0.5530900000000  0.5411440000000 1.0
C      1  0.4819850000000  0.4408810000000  0.4357650000000 1.0
C      1  0.5419790000000  0.5423150000000  0.4243410000000 1.0
C      1  0.4803950000000  0.4511310000000  0.4971550000000 1.0
C      1  0.5433790000000  0.5804900000000  0.5509260000000 1.0
C      1  0.5579540000000  0.4845340000000  0.5772380000000 1.0
C      1  0.4885320000000  0.5188980000000  0.5057680000000 1.0
C      1  0.5091910000000  0.4237560000000  0.4953760000000 1.0
C      1  0.5298520000000  0.4352690000000  0.4456850000000 1.0
C      1  0.5687090000000  0.5435820000000  0.5323130000000 1.0
C      1  0.5635980000000  0.5225970000000  0.4416610000000 1.0
C      1  0.4976930000000  0.5952320000000  0.5115830000000 1.0
C      1  0.5097610000000  0.4594080000000  0.4327290000000 1.0
C      1  0.5376240000000  0.5314600000000  0.5983750000000 1.0
C      1  0.4793390000000  0.5416220000000  0.5882380000000 1.0
C      1  0.4227220000000  0.5051850000000  0.5390490000000 1.0
C      1  0.5902470000000  0.5104190000000  0.4942160000000 1.0
C      1  0.5823380000000  0.5450910000000  0.4598410000000 1.0
C      1  0.4844350000000  0.4177720000000  0.4553950000000 1.0
C      1  0.5875320000000  0.5583100000000  0.4849900000000 1.0
C      1  0.4574520000000  0.5180490000000  0.5000630000000 1.0
C      1  0.4185300000000  0.5269150000000  0.5060350000000 1.0
C      1  0.4579510000000  0.4571920000000  0.4483340000000 1.0
C      1  0.5124230000000  0.5578150000000  0.4496190000000 1.0
C      1  0.4630190000000  0.5969200000000  0.4598200000000 1.0
C      1  0.5700970000000  0.4706870000000  0.5556760000000 1.0
C      1  0.5137870000000  0.5299240000000  0.5543570000000 1.0
C      1  0.4821680000000  0.4934260000000  0.5449310000000 1.0
C      1  0.5386100000000  0.5852530000000  0.4894480000000 1.0
C      1  0.5386060000000  0.5871150000000  0.4561280000000 1.0
C      1  0.5245710000000  0.4065120000000  0.4605180000000 1.0
C      1  0.5871560000000  0.4802650000000  0.4685570000000 1.0
C      1  0.4916730000000  0.5046090000000  0.5964800000000 1.0
C      1  0.5536380000000  0.4792610000000  0.4692100000000 1.0
C      1  0.4470260000000  0.5409940000000  0.4819190000000 1.0
C      1  0.5200170000000  0.4867600000000  0.4494070000000 1.0
C      1  0.4194350000000  0.5386170000000  0.4679760000000 1.0
C      1  0.5206120000000  0.4916280000000  0.5883640000000 1.0
C      1  0.4606050000000  0.5714820000000  0.4461900000000 1.0
C      1  0.4605840000000  0.5073930000000  0.5548520000000 1.0
C      1  0.4143930000000  0.5639140000000  0.4838010000000 1.0
C      1  0.4314430000000  0.5701410000000  0.5043050000000 1.0
C      1  0.5885190000000  0.5121370000000  0.4624180000000 1.0
C      1  0.4801540000000  0.5913660000000  0.4850660000000 1.0
C      1  0.5278590000000  0.5183000000000  0.5102000000000 1.0
C      1  0.4325050000000  0.4365990000000  0.4599150000000 1.0
C      1  0.4668150000000  0.4844560000000  0.4068600000000 1.0
C      1  0.5483230000000  0.5551240000000  0.4780830000000 1.0
C      1  0.5450780000000  0.5836920000000  0.5202350000000 1.0
C      1  0.5773210000000  0.5130640000000  0.5243980000000 1.0
C      1  0.4610670000000  0.5132000000000  0.5943840000000 1.0
C      1  0.5016970000000  0.4722000000000  0.4708420000000 1.0
C      1  0.4690230000000  0.4820690000000  0.4879980000000 1.0
C      1  0.4132060000000  0.4779200000000  0.5324550000000 1.0
END
