TITL C-2778423-5760-346 0.00116713459448286 125000 -1122.24745492678 0 0 195 (C1) n - 1
REM
REM in /home/nfs/bkarasulu/CARBON/AIRSS/Generating-Clusters/REBO/Only-C1/SD-CG/HFTN-CG
REM
REM
REM
REM
REM
REM ./C.cell (11c1c37f851c82e70ff6c80c92926a4b)
REM
REM compiler GCC version 9.2.1 20190827 (Red Hat 9.2.1-1)
REM options -cpp -mtune=generic -march=x86-64 -g -O0 -fpre-include=/usr/include/finclude/math-vector-fortran.h
REM seed 804762721 822883096 -27823064 1553080426 -1640118307 -1233122702 -1912819975 1534822832 -159621099 1638919026 667564012 -510808053 2092692612 171280333 2137416137 575098749 1615524203 197247351 -713296407 -472217753 -2132608268 1595183003 926443504 -258225269 1152344351 1777071681 -1690289254 -1359094993 1600797216 -1803577618 2047468953 -1599827507 1439345178
REM
CELL 1.54180   50.00000   50.00000   50.00000   90.00000   90.00000   90.00000
LATT -1
SFAC C  
C      1  0.4446910000000  0.4017520000000  0.5313480000000 1.0
C      1  0.4305620000000  0.4744410000000  0.4838100000000 1.0
C      1  0.4205640000000  0.5550940000000  0.4905240000000 1.0
C      1  0.5560720000000  0.4268830000000  0.5598480000000 1.0
C      1  0.5090850000000  0.5917150000000  0.5420550000000 1.0
C      1  0.5321760000000  0.4406120000000  0.4875320000000 1.0
C      1  0.4660770000000  0.5683740000000  0.4578410000000 1.0
C      1  0.5032450000000  0.5232430000000  0.5998870000000 1.0
C      1  0.6014640000000  0.5481080000000  0.4659810000000 1.0
C      1  0.5325640000000  0.4707390000000  0.5930040000000 1.0
C      1  0.4153870000000  0.5420930000000  0.5338020000000 1.0
C      1  0.5310150000000  0.5380220000000  0.5150640000000 1.0
C      1  0.5025010000000  0.6119370000000  0.5173730000000 1.0
C      1  0.4843700000000  0.4397070000000  0.4783230000000 1.0
C      1  0.5292490000000  0.4822450000000  0.4342180000000 1.0
C      1  0.4770130000000  0.5492260000000  0.5367940000000 1.0
C      1  0.5031820000000  0.4425810000000  0.3944010000000 1.0
C      1  0.5029510000000  0.4583620000000  0.5093240000000 1.0
C      1  0.4039890000000  0.5398220000000  0.5630590000000 1.0
C      1  0.4282750000000  0.4705670000000  0.5621840000000 1.0
C      1  0.5153640000000  0.5301730000000  0.5684650000000 1.0
C      1  0.5672040000000  0.5155180000000  0.5653380000000 1.0
C      1  0.5655960000000  0.5893710000000  0.4848750000000 1.0
C      1  0.6062640000000  0.5010280000000  0.5351090000000 1.0
C      1  0.4481770000000  0.5031750000000  0.5457030000000 1.0
C      1  0.4056360000000  0.5675210000000  0.5183590000000 1.0
C      1  0.4446660000000  0.5324380000000  0.4502610000000 1.0
C      1  0.4454110000000  0.4965820000000  0.4020490000000 1.0
C      1  0.6053680000000  0.4784250000000  0.5022790000000 1.0
C      1  0.5092390000000  0.4215630000000  0.4858490000000 1.0
C      1  0.5706350000000  0.5135450000000  0.5219730000000 1.0
C      1  0.4193560000000  0.4408960000000  0.5585670000000 1.0
C      1  0.5322770000000  0.5889260000000  0.4467630000000 1.0
C      1  0.5906760000000  0.5260040000000  0.5468700000000 1.0
C      1  0.4616530000000  0.4365380000000  0.5001050000000 1.0
C      1  0.6121640000000  0.5327980000000  0.4929340000000 1.0
C      1  0.5634640000000  0.4159420000000  0.4901970000000 1.0
C      1  0.4030580000000  0.4358850000000  0.5333540000000 1.0
C      1  0.5268920000000  0.5657690000000  0.5825930000000 1.0
C      1  0.4449660000000  0.5344710000000  0.5224130000000 1.0
C      1  0.5868630000000  0.5476920000000  0.5038320000000 1.0
C      1  0.4684630000000  0.5634880000000  0.4303380000000 1.0
C      1  0.4599740000000  0.4164870000000  0.4482550000000 1.0
C      1  0.5166350000000  0.4972520000000  0.3733270000000 1.0
C      1  0.5533890000000  0.4918270000000  0.6024840000000 1.0
C      1  0.4081620000000  0.4897920000000  0.5629560000000 1.0
C      1  0.5436880000000  0.5019030000000  0.5044100000000 1.0
C      1  0.5247790000000  0.5711610000000  0.4244570000000 1.0
C      1  0.4839350000000  0.4705540000000  0.4506610000000 1.0
C      1  0.3947180000000  0.4962990000000  0.5373060000000 1.0
C      1  0.4477600000000  0.4285610000000  0.5490520000000 1.0
C      1  0.3769160000000  0.4980090000000  0.5156900000000 1.0
C      1  0.5572450000000  0.3990960000000  0.5408760000000 1.0
C      1  0.4052870000000  0.5251080000000  0.4830300000000 1.0
C      1  0.5962410000000  0.4731580000000  0.4549760000000 1.0
C      1  0.4441880000000  0.4662160000000  0.5999510000000 1.0
C      1  0.5485410000000  0.4552160000000  0.5080510000000 1.0
C      1  0.5221980000000  0.5117840000000  0.5448160000000 1.0
C      1  0.5443030000000  0.5158150000000  0.4237800000000 1.0
C      1  0.4498580000000  0.5487940000000  0.4144200000000 1.0
C      1  0.5849300000000  0.5797530000000  0.5095840000000 1.0
C      1  0.4780620000000  0.4997660000000  0.4677610000000 1.0
C      1  0.4499250000000  0.5414770000000  0.4822650000000 1.0
C      1  0.4980740000000  0.5690230000000  0.5787610000000 1.0
C      1  0.5419610000000  0.3994660000000  0.5104100000000 1.0
C      1  0.4439700000000  0.5707070000000  0.5099540000000 1.0
C      1  0.5082080000000  0.6004610000000  0.4607890000000 1.0
C      1  0.4926650000000  0.4535480000000  0.5584230000000 1.0
C      1  0.5227500000000  0.4680860000000  0.3836330000000 1.0
C      1  0.5580180000000  0.5171450000000  0.5923460000000 1.0
C      1  0.5740030000000  0.5571060000000  0.4479970000000 1.0
C      1  0.5824230000000  0.4503990000000  0.4718580000000 1.0
C      1  0.4507530000000  0.5088580000000  0.4819660000000 1.0
C      1  0.5434250000000  0.5553650000000  0.4091210000000 1.0
C      1  0.4502040000000  0.4070690000000  0.4990420000000 1.0
C      1  0.4918910000000  0.4136070000000  0.5576220000000 1.0
C      1  0.5419270000000  0.4303440000000  0.4173970000000 1.0
C      1  0.5224020000000  0.5650160000000  0.4801950000000 1.0
C      1  0.5325820000000  0.5426050000000  0.3877030000000 1.0
C      1  0.5291820000000  0.4531380000000  0.5465670000000 1.0
C      1  0.5075810000000  0.5489870000000  0.5455680000000 1.0
C      1  0.4728160000000  0.5241250000000  0.4359210000000 1.0
C      1  0.5137350000000  0.4048270000000  0.4499630000000 1.0
C      1  0.4335760000000  0.5774450000000  0.5909730000000 1.0
C      1  0.5215590000000  0.4242550000000  0.5625010000000 1.0
C      1  0.4925920000000  0.5257800000000  0.4597570000000 1.0
C      1  0.4824440000000  0.4031420000000  0.4625950000000 1.0
C      1  0.4709960000000  0.6147000000000  0.5088470000000 1.0
C      1  0.4295160000000  0.5622930000000  0.5651160000000 1.0
C      1  0.5358080000000  0.4288350000000  0.5254750000000 1.0
C      1  0.4286300000000  0.4888080000000  0.5977360000000 1.0
C      1  0.5790530000000  0.5112550000000  0.4893070000000 1.0
C      1  0.5781940000000  0.4574400000000  0.5007610000000 1.0
C      1  0.4144580000000  0.4617830000000  0.4495870000000 1.0
C      1  0.4582630000000  0.4959890000000  0.4335630000000 1.0
C      1  0.4765030000000  0.4639660000000  0.3949850000000 1.0
C      1  0.4673060000000  0.4254730000000  0.5747880000000 1.0
C      1  0.5693580000000  0.5578070000000  0.5602590000000 1.0
C      1  0.5028350000000  0.4244410000000  0.4233450000000 1.0
C      1  0.5512280000000  0.4710050000000  0.5487470000000 1.0
C      1  0.5585860000000  0.4612250000000  0.4509410000000 1.0
C      1  0.5346840000000  0.4022590000000  0.4770560000000 1.0
C      1  0.4229490000000  0.4227610000000  0.4858820000000 1.0
C      1  0.4159690000000  0.4129240000000  0.5177180000000 1.0
C      1  0.5701240000000  0.4250010000000  0.5225350000000 1.0
C      1  0.5317800000000  0.4763210000000  0.4643770000000 1.0
C      1  0.5294890000000  0.4788990000000  0.5161230000000 1.0
C      1  0.6004260000000  0.4735790000000  0.5416460000000 1.0
C      1  0.5596360000000  0.5191250000000  0.4543310000000 1.0
C      1  0.4984800000000  0.4640640000000  0.4200850000000 1.0
C      1  0.4593960000000  0.4661980000000  0.4235450000000 1.0
C      1  0.6151390000000  0.5071280000000  0.5060200000000 1.0
C      1  0.3869970000000  0.4988040000000  0.4899420000000 1.0
C      1  0.5490650000000  0.5768120000000  0.5689340000000 1.0
C      1  0.4166290000000  0.4929680000000  0.4352760000000 1.0
C      1  0.5928960000000  0.5581730000000  0.5355970000000 1.0
C      1  0.4903970000000  0.4986600000000  0.6088890000000 1.0
C      1  0.4141050000000  0.5208200000000  0.4545120000000 1.0
C      1  0.4713010000000  0.5124380000000  0.5224990000000 1.0
C      1  0.5049380000000  0.4855120000000  0.5381650000000 1.0
C      1  0.4497420000000  0.6062810000000  0.4765120000000 1.0
C      1  0.4911010000000  0.5754070000000  0.4730780000000 1.0
C      1  0.5072140000000  0.4725220000000  0.6105910000000 1.0
C      1  0.5755130000000  0.4505240000000  0.5447410000000 1.0
C      1  0.5553920000000  0.4937700000000  0.4739800000000 1.0
C      1  0.5098750000000  0.4800780000000  0.5714400000000 1.0
C      1  0.4700630000000  0.4225050000000  0.4229830000000 1.0
C      1  0.5575600000000  0.5377920000000  0.4936850000000 1.0
C      1  0.4395600000000  0.4407790000000  0.5859600000000 1.0
C      1  0.4331570000000  0.4345110000000  0.4594600000000 1.0
C      1  0.4827220000000  0.4911580000000  0.4992950000000 1.0
C      1  0.5431480000000  0.4150090000000  0.4401020000000 1.0
C      1  0.4566090000000  0.4792800000000  0.5643140000000 1.0
C      1  0.5602890000000  0.5845350000000  0.4567990000000 1.0
C      1  0.4304850000000  0.5212250000000  0.4203320000000 1.0
C      1  0.4807040000000  0.6138230000000  0.4757760000000 1.0
C      1  0.5031080000000  0.5204700000000  0.5179590000000 1.0
C      1  0.5917230000000  0.5217140000000  0.4524610000000 1.0
C      1  0.4737380000000  0.4690030000000  0.6057060000000 1.0
C      1  0.4864070000000  0.5854200000000  0.5030770000000 1.0
C      1  0.5205020000000  0.5184890000000  0.4474620000000 1.0
C      1  0.4247150000000  0.4949050000000  0.5269300000000 1.0
C      1  0.5423480000000  0.5985790000000  0.5466720000000 1.0
C      1  0.3986610000000  0.4712420000000  0.4783200000000 1.0
C      1  0.5037150000000  0.4416120000000  0.4519610000000 1.0
C      1  0.4982720000000  0.4334050000000  0.5310760000000 1.0
C      1  0.5066040000000  0.5031200000000  0.4204720000000 1.0
C      1  0.4577960000000  0.4530930000000  0.4639110000000 1.0
C      1  0.4615330000000  0.4691570000000  0.4927680000000 1.0
C      1  0.4733680000000  0.5549470000000  0.5032540000000 1.0
C      1  0.4782690000000  0.4060590000000  0.5272960000000 1.0
C      1  0.5488350000000  0.4982660000000  0.5513680000000 1.0
C      1  0.5127570000000  0.4343070000000  0.6001910000000 1.0
C      1  0.5605700000000  0.4284550000000  0.4603070000000 1.0
C      1  0.4297250000000  0.5788210000000  0.5398060000000 1.0
C      1  0.4811070000000  0.4978000000000  0.5676030000000 1.0
C      1  0.4872060000000  0.5357760000000  0.4086330000000 1.0
C      1  0.5252470000000  0.5180830000000  0.4811340000000 1.0
C      1  0.4828440000000  0.4031820000000  0.4945380000000 1.0
C      1  0.5315260000000  0.4550310000000  0.4194880000000 1.0
C      1  0.4591650000000  0.5922920000000  0.5315310000000 1.0
C      1  0.4402560000000  0.4909190000000  0.4584750000000 1.0
C      1  0.4799280000000  0.4974240000000  0.4001690000000 1.0
C      1  0.4283170000000  0.5150690000000  0.5030260000000 1.0
C      1  0.5684330000000  0.5403810000000  0.4219360000000 1.0
C      1  0.5581350000000  0.5757180000000  0.5268030000000 1.0
C      1  0.5387370000000  0.4942380000000  0.3986900000000 1.0
C      1  0.6057410000000  0.4509890000000  0.5194640000000 1.0
C      1  0.4165440000000  0.5142660000000  0.5798340000000 1.0
C      1  0.5400400000000  0.4405110000000  0.5864300000000 1.0
C      1  0.5342880000000  0.5361330000000  0.5951720000000 1.0
C      1  0.4973780000000  0.5643140000000  0.4203120000000 1.0
C      1  0.4296800000000  0.4667860000000  0.5167030000000 1.0
C      1  0.4729800000000  0.5287090000000  0.5637690000000 1.0
C      1  0.4602040000000  0.5249370000000  0.3938230000000 1.0
C      1  0.4884570000000  0.4447230000000  0.5892120000000 1.0
C      1  0.5568320000000  0.5418810000000  0.5334440000000 1.0
C      1  0.5050550000000  0.4735290000000  0.4795310000000 1.0
C      1  0.4827480000000  0.5798080000000  0.5512680000000 1.0
C      1  0.6026230000000  0.4978150000000  0.4692090000000 1.0
C      1  0.5265690000000  0.5672950000000  0.5280840000000 1.0
C      1  0.5106120000000  0.5218880000000  0.3924590000000 1.0
C      1  0.4418620000000  0.5305600000000  0.5646190000000 1.0
C      1  0.5386020000000  0.5884980000000  0.4943680000000 1.0
C      1  0.5005220000000  0.5402620000000  0.4895840000000 1.0
C      1  0.4065440000000  0.4480290000000  0.5016480000000 1.0
C      1  0.4840110000000  0.5453650000000  0.5876580000000 1.0
C      1  0.4427550000000  0.5791350000000  0.4709810000000 1.0
C      1  0.5332530000000  0.6070240000000  0.5149590000000 1.0
C      1  0.4335740000000  0.4547770000000  0.4253000000000 1.0
C      1  0.4534060000000  0.4511070000000  0.5273400000000 1.0
C      1  0.5831840000000  0.5095030000000  0.4234750000000 1.0
C      1  0.4782950000000  0.4676240000000  0.5313630000000 1.0
C      1  0.5468690000000  0.5482550000000  0.4665200000000 1.0
C      1  0.5782570000000  0.4808270000000  0.4310370000000 1.0
END
