TITL C-2778437-8639-1264 0.00415681837696881 125000 -1051.99451387367 0 0 180 (C1) n - 1
REM
REM in /home/nfs/bkarasulu/CARBON/AIRSS/Generating-Clusters/REBO/Only-C1/SD-CG/HFTN-CG
REM
REM
REM
REM
REM
REM ./C.cell (11c1c37f851c82e70ff6c80c92926a4b)
REM
REM compiler GCC version 9.2.1 20190827 (Red Hat 9.2.1-1)
REM options -cpp -mtune=generic -march=x86-64 -g -O0 -fpre-include=/usr/include/finclude/math-vector-fortran.h
REM seed 1783498607 -1459754027 -1309900804 1009549379 -1757280298 838913939 461996402 -1026248078 -824414818 -2072239442 1230222720 -824157744 -1657466957 -1415630042 -35766935 1892209771 -89167553 1439110310 1283333254 -494312927 395376512 1950777075 -1003498354 746321707 -1806334286 -975229204 -286813794 89667683 856657791 -435223536 -1611800553 -86860803 -944473773
REM
CELL 1.54180   50.00000   50.00000   50.00000   90.00000   90.00000   90.00000
LATT -1
SFAC C  
C      1  0.4380390000000  0.4828030000000  0.5691330000000 1.0
C      1  0.5618630000000  0.4324010000000  0.5232040000000 1.0
C      1  0.5861700000000  0.4975350000000  0.5548600000000 1.0
C      1  0.5105220000000  0.5312550000000  0.4754290000000 1.0
C      1  0.4420070000000  0.4361610000000  0.5740550000000 1.0
C      1  0.5144520000000  0.5145730000000  0.3973160000000 1.0
C      1  0.4080620000000  0.5449440000000  0.5185610000000 1.0
C      1  0.3856350000000  0.5216570000000  0.5182740000000 1.0
C      1  0.5724280000000  0.4692730000000  0.4712820000000 1.0
C      1  0.5233320000000  0.5097940000000  0.4886180000000 1.0
C      1  0.5077780000000  0.4960430000000  0.4459490000000 1.0
C      1  0.4574320000000  0.4481850000000  0.5949170000000 1.0
C      1  0.5548710000000  0.5137920000000  0.4938000000000 1.0
C      1  0.5810220000000  0.5574120000000  0.5051470000000 1.0
C      1  0.5144070000000  0.5343140000000  0.5188360000000 1.0
C      1  0.5343450000000  0.4543130000000  0.4049570000000 1.0
C      1  0.5020950000000  0.4156020000000  0.4414730000000 1.0
C      1  0.5686660000000  0.4432280000000  0.4930070000000 1.0
C      1  0.4380540000000  0.5388100000000  0.4611030000000 1.0
C      1  0.4807370000000  0.5383180000000  0.5508240000000 1.0
C      1  0.4622940000000  0.5281760000000  0.5040780000000 1.0
C      1  0.5036980000000  0.5715820000000  0.4874380000000 1.0
C      1  0.5659230000000  0.5786030000000  0.5173900000000 1.0
C      1  0.5221240000000  0.5822090000000  0.5655920000000 1.0
C      1  0.4525010000000  0.5824570000000  0.5181540000000 1.0
C      1  0.5668060000000  0.4567320000000  0.5961820000000 1.0
C      1  0.4365890000000  0.5732510000000  0.5577100000000 1.0
C      1  0.5030010000000  0.4881870000000  0.4159630000000 1.0
C      1  0.4163380000000  0.5290030000000  0.4370030000000 1.0
C      1  0.5095150000000  0.5007710000000  0.6131990000000 1.0
C      1  0.5380450000000  0.4465800000000  0.5432750000000 1.0
C      1  0.4613300000000  0.5030940000000  0.6062300000000 1.0
C      1  0.4899200000000  0.5755130000000  0.5718090000000 1.0
C      1  0.5712400000000  0.5087310000000  0.4655340000000 1.0
C      1  0.4747610000000  0.4668780000000  0.5336160000000 1.0
C      1  0.5171400000000  0.5482650000000  0.3929810000000 1.0
C      1  0.5022220000000  0.6008820000000  0.5301050000000 1.0
C      1  0.5446620000000  0.5082570000000  0.4122730000000 1.0
C      1  0.4015020000000  0.4736430000000  0.4769690000000 1.0
C      1  0.4388000000000  0.4249090000000  0.5427090000000 1.0
C      1  0.4566470000000  0.4094590000000  0.4711210000000 1.0
C      1  0.4947610000000  0.4507350000000  0.4587940000000 1.0
C      1  0.4824870000000  0.5984410000000  0.5498100000000 1.0
C      1  0.4871570000000  0.4355310000000  0.4227470000000 1.0
C      1  0.5710540000000  0.4866850000000  0.4988390000000 1.0
C      1  0.5063320000000  0.4459480000000  0.3964260000000 1.0
C      1  0.6187130000000  0.4951610000000  0.4887450000000 1.0
C      1  0.5051170000000  0.5584860000000  0.5390060000000 1.0
C      1  0.4422120000000  0.4954440000000  0.4595940000000 1.0
C      1  0.4566890000000  0.4739640000000  0.3988060000000 1.0
C      1  0.4596250000000  0.5206550000000  0.5356900000000 1.0
C      1  0.4558250000000  0.6026880000000  0.5387120000000 1.0
C      1  0.5454980000000  0.5414460000000  0.5873620000000 1.0
C      1  0.5850760000000  0.5137180000000  0.5778940000000 1.0
C      1  0.4370600000000  0.4909370000000  0.5104230000000 1.0
C      1  0.4985800000000  0.5213820000000  0.5703050000000 1.0
C      1  0.4335130000000  0.4527250000000  0.5000100000000 1.0
C      1  0.5273710000000  0.5717930000000  0.4406430000000 1.0
C      1  0.5419890000000  0.5189000000000  0.5431520000000 1.0
C      1  0.4419720000000  0.5227890000000  0.5966950000000 1.0
C      1  0.5359230000000  0.5679420000000  0.5851960000000 1.0
C      1  0.4744610000000  0.4486400000000  0.3881800000000 1.0
C      1  0.5774190000000  0.4554330000000  0.4411170000000 1.0
C      1  0.4869940000000  0.5461810000000  0.5894970000000 1.0
C      1  0.5384750000000  0.4866140000000  0.5656740000000 1.0
C      1  0.5081080000000  0.4624850000000  0.5391220000000 1.0
C      1  0.5541300000000  0.4082650000000  0.4702830000000 1.0
C      1  0.5435710000000  0.5949190000000  0.4737540000000 1.0
C      1  0.5905650000000  0.5339080000000  0.4554720000000 1.0
C      1  0.4592030000000  0.4905210000000  0.5466240000000 1.0
C      1  0.5310240000000  0.5343230000000  0.4274650000000 1.0
C      1  0.4543650000000  0.5477880000000  0.5948720000000 1.0
C      1  0.5387600000000  0.4799480000000  0.4268120000000 1.0
C      1  0.5539350000000  0.4709610000000  0.5179960000000 1.0
C      1  0.5119720000000  0.4265160000000  0.5221610000000 1.0
C      1  0.4301670000000  0.4467210000000  0.4374240000000 1.0
C      1  0.4211980000000  0.5550100000000  0.5434070000000 1.0
C      1  0.4423260000000  0.5782120000000  0.4430680000000 1.0
C      1  0.5141370000000  0.5922470000000  0.5078920000000 1.0
C      1  0.5433240000000  0.4259500000000  0.5676780000000 1.0
C      1  0.4620640000000  0.4988810000000  0.3841420000000 1.0
C      1  0.4544670000000  0.4443320000000  0.4161190000000 1.0
C      1  0.5954360000000  0.4481060000000  0.5445710000000 1.0
C      1  0.5026430000000  0.4076800000000  0.4894670000000 1.0
C      1  0.4115290000000  0.4332160000000  0.4862470000000 1.0
C      1  0.4822360000000  0.5186490000000  0.4023990000000 1.0
C      1  0.4142790000000  0.5068850000000  0.5284020000000 1.0
C      1  0.4046470000000  0.5338230000000  0.4680880000000 1.0
C      1  0.4639910000000  0.4089030000000  0.4999750000000 1.0
C      1  0.4152010000000  0.4694280000000  0.4460240000000 1.0
C      1  0.4281920000000  0.5121390000000  0.5742430000000 1.0
C      1  0.5178880000000  0.6016020000000  0.4652020000000 1.0
C      1  0.5854760000000  0.5374130000000  0.5262770000000 1.0
C      1  0.4296450000000  0.5248380000000  0.5467290000000 1.0
C      1  0.4560780000000  0.4488120000000  0.4673490000000 1.0
C      1  0.5057310000000  0.4912300000000  0.5577210000000 1.0
C      1  0.5713410000000  0.5383310000000  0.5749790000000 1.0
C      1  0.4937030000000  0.5655800000000  0.4089960000000 1.0
C      1  0.4523070000000  0.4813090000000  0.4309340000000 1.0
C      1  0.5392290000000  0.5581220000000  0.5388670000000 1.0
C      1  0.5821430000000  0.5576810000000  0.4759810000000 1.0
C      1  0.5653870000000  0.4672050000000  0.4133230000000 1.0
C      1  0.4866460000000  0.5878580000000  0.4640320000000 1.0
C      1  0.4331900000000  0.4787180000000  0.4805930000000 1.0
C      1  0.4542510000000  0.4444780000000  0.5211220000000 1.0
C      1  0.5656260000000  0.4740520000000  0.5503620000000 1.0
C      1  0.5488950000000  0.3929420000000  0.5261810000000 1.0
C      1  0.5270350000000  0.4330990000000  0.5923690000000 1.0
C      1  0.5350730000000  0.4904650000000  0.5312350000000 1.0
C      1  0.5994140000000  0.4894080000000  0.5109200000000 1.0
C      1  0.5283390000000  0.4061090000000  0.4479170000000 1.0
C      1  0.5010440000000  0.4231050000000  0.5919570000000 1.0
C      1  0.4890660000000  0.4106800000000  0.5414200000000 1.0
C      1  0.3942650000000  0.4556880000000  0.5053990000000 1.0
C      1  0.5252130000000  0.4787070000000  0.6131080000000 1.0
C      1  0.4230320000000  0.5582220000000  0.4841500000000 1.0
C      1  0.6123860000000  0.5130240000000  0.4629020000000 1.0
C      1  0.4821670000000  0.4681060000000  0.4321570000000 1.0
C      1  0.5513710000000  0.5368040000000  0.4615240000000 1.0
C      1  0.4907270000000  0.5357330000000  0.4552530000000 1.0
C      1  0.4236890000000  0.4687760000000  0.5289000000000 1.0
C      1  0.5417030000000  0.5618310000000  0.4123690000000 1.0
C      1  0.3905860000000  0.4883390000000  0.5121050000000 1.0
C      1  0.4822650000000  0.4355380000000  0.5094990000000 1.0
C      1  0.4567520000000  0.5861310000000  0.4665170000000 1.0
C      1  0.4634610000000  0.4068480000000  0.5299840000000 1.0
C      1  0.5282370000000  0.5582170000000  0.4699240000000 1.0
C      1  0.4815750000000  0.4974820000000  0.4604770000000 1.0
C      1  0.5345870000000  0.5116340000000  0.4504710000000 1.0
C      1  0.5393680000000  0.4555230000000  0.6052190000000 1.0
C      1  0.4230500000000  0.4992120000000  0.4323940000000 1.0
C      1  0.4870450000000  0.4978050000000  0.5115110000000 1.0
C      1  0.5414330000000  0.4405080000000  0.4324590000000 1.0
C      1  0.4712790000000  0.5184090000000  0.4348030000000 1.0
C      1  0.4664230000000  0.4798900000000  0.5028150000000 1.0
C      1  0.6032390000000  0.4821030000000  0.4644900000000 1.0
C      1  0.4795140000000  0.4346890000000  0.6059400000000 1.0
C      1  0.4943180000000  0.4086840000000  0.5686870000000 1.0
C      1  0.4891670000000  0.5490870000000  0.5036880000000 1.0
C      1  0.5421930000000  0.4810030000000  0.4606360000000 1.0
C      1  0.4870910000000  0.5170440000000  0.6080030000000 1.0
C      1  0.5446950000000  0.5986310000000  0.5044800000000 1.0
C      1  0.5243790000000  0.4460420000000  0.4545340000000 1.0
C      1  0.5020750000000  0.5429920000000  0.4293240000000 1.0
C      1  0.4429830000000  0.5801600000000  0.4910960000000 1.0
C      1  0.5019420000000  0.4612680000000  0.5052890000000 1.0
C      1  0.5627730000000  0.5767870000000  0.4625960000000 1.0
C      1  0.5603140000000  0.4058910000000  0.5017820000000 1.0
C      1  0.4292950000000  0.5282010000000  0.4984790000000 1.0
C      1  0.5709530000000  0.5230240000000  0.4288280000000 1.0
C      1  0.5692320000000  0.5475590000000  0.5481370000000 1.0
C      1  0.4542750000000  0.4766120000000  0.5954400000000 1.0
C      1  0.5300770000000  0.5190720000000  0.5727360000000 1.0
C      1  0.5635580000000  0.5555970000000  0.4359820000000 1.0
C      1  0.5073700000000  0.5067300000000  0.5272630000000 1.0
C      1  0.4867880000000  0.4190530000000  0.4687280000000 1.0
C      1  0.4212340000000  0.4567530000000  0.5588540000000 1.0
C      1  0.4526200000000  0.5292680000000  0.3879980000000 1.0
C      1  0.5945440000000  0.5108940000000  0.5310410000000 1.0
C      1  0.4578700000000  0.5698430000000  0.5757930000000 1.0
C      1  0.4315470000000  0.4263510000000  0.4623800000000 1.0
C      1  0.5756690000000  0.4899830000000  0.4372670000000 1.0
C      1  0.5656460000000  0.4253520000000  0.4435340000000 1.0
C      1  0.4053070000000  0.5064210000000  0.4871290000000 1.0
C      1  0.4587980000000  0.5197200000000  0.4727090000000 1.0
C      1  0.4096840000000  0.4391690000000  0.5312900000000 1.0
C      1  0.5395160000000  0.4370720000000  0.4780720000000 1.0
C      1  0.5470570000000  0.5349170000000  0.5150810000000 1.0
C      1  0.5405010000000  0.5901120000000  0.5378170000000 1.0
C      1  0.5710240000000  0.4456700000000  0.5657280000000 1.0
C      1  0.5002380000000  0.5823360000000  0.4350990000000 1.0
C      1  0.5315610000000  0.4080240000000  0.5413680000000 1.0
C      1  0.5311760000000  0.4491630000000  0.5049790000000 1.0
C      1  0.6044840000000  0.4628100000000  0.5268990000000 1.0
C      1  0.4318670000000  0.5576890000000  0.4267090000000 1.0
C      1  0.4499700000000  0.5364540000000  0.4169410000000 1.0
C      1  0.5175000000000  0.4802950000000  0.4840360000000 1.0
C      1  0.4727350000000  0.5622290000000  0.5278920000000 1.0
C      1  0.4388400000000  0.6228000000000  0.5447790000000 1.0
C      1  0.4735100000000  0.4713380000000  0.4749590000000 1.0
END
