TITL C-2778433-5640-1327 0.00449603782253099 125000 -1004.45398383924 0 0 172 (C1) n - 1
REM
REM in /home/nfs/bkarasulu/CARBON/AIRSS/Generating-Clusters/REBO/Only-C1/SD-CG/HFTN-CG
REM
REM
REM
REM
REM
REM ./C.cell (11c1c37f851c82e70ff6c80c92926a4b)
REM
REM compiler GCC version 9.2.1 20190827 (Red Hat 9.2.1-1)
REM options -cpp -mtune=generic -march=x86-64 -g -O0 -fpre-include=/usr/include/finclude/math-vector-fortran.h
REM seed -1572372299 -1546755220 1022026994 -1798525906 -1204109766 1229558149 1979916874 -1765224736 -2388913 1745603926 -40861123 1473215567 -1766338561 -189620221 1777896803 697674404 -242440380 2010589279 1051343463 -1090040975 -1886697435 1567671409 1877191105 -1536867174 -345169459 17254823 -1844970200 431545733 2019313166 -1432993291 1488813805 -1029332158 1441271663
REM
CELL 1.54180   50.00000   50.00000   50.00000   90.00000   90.00000   90.00000
LATT -1
SFAC C  
C      1  0.5372420000000  0.5893900000000  0.5382780000000 1.0
C      1  0.4498410000000  0.4275570000000  0.4490810000000 1.0
C      1  0.4988940000000  0.5693560000000  0.5666590000000 1.0
C      1  0.4197020000000  0.4937670000000  0.5712520000000 1.0
C      1  0.4329670000000  0.5643160000000  0.5554500000000 1.0
C      1  0.5227070000000  0.4350890000000  0.5677180000000 1.0
C      1  0.5008250000000  0.5234940000000  0.4709200000000 1.0
C      1  0.5053260000000  0.3927690000000  0.4719850000000 1.0
C      1  0.5366030000000  0.5070460000000  0.4064050000000 1.0
C      1  0.5865740000000  0.5028400000000  0.4236410000000 1.0
C      1  0.6069130000000  0.5325050000000  0.5076700000000 1.0
C      1  0.5926930000000  0.5065170000000  0.5344100000000 1.0
C      1  0.5733610000000  0.4290970000000  0.5463710000000 1.0
C      1  0.4570690000000  0.4392440000000  0.5111350000000 1.0
C      1  0.5929990000000  0.5531170000000  0.4900440000000 1.0
C      1  0.5966110000000  0.4964100000000  0.4765980000000 1.0
C      1  0.4583140000000  0.5082180000000  0.5602320000000 1.0
C      1  0.4716180000000  0.5644490000000  0.5303060000000 1.0
C      1  0.5688850000000  0.4410030000000  0.5761300000000 1.0
C      1  0.4284140000000  0.4437770000000  0.4424750000000 1.0
C      1  0.5574420000000  0.5697920000000  0.5576590000000 1.0
C      1  0.4088850000000  0.4374780000000  0.5387180000000 1.0
C      1  0.4154420000000  0.4563850000000  0.4638490000000 1.0
C      1  0.4567840000000  0.4909790000000  0.4128430000000 1.0
C      1  0.5030110000000  0.5760460000000  0.4692990000000 1.0
C      1  0.4487220000000  0.4977280000000  0.5301110000000 1.0
C      1  0.5417500000000  0.5333830000000  0.5625620000000 1.0
C      1  0.5489440000000  0.5102550000000  0.4994910000000 1.0
C      1  0.5378020000000  0.6080120000000  0.4824650000000 1.0
C      1  0.5499680000000  0.5534610000000  0.4479070000000 1.0
C      1  0.4283930000000  0.4710280000000  0.5304950000000 1.0
C      1  0.5152540000000  0.4734300000000  0.5080380000000 1.0
C      1  0.4878920000000  0.4503580000000  0.5398950000000 1.0
C      1  0.5180130000000  0.4698620000000  0.4616650000000 1.0
C      1  0.5706280000000  0.4461010000000  0.4716790000000 1.0
C      1  0.5777770000000  0.4984640000000  0.5048810000000 1.0
C      1  0.5004310000000  0.4241490000000  0.5215890000000 1.0
C      1  0.4163440000000  0.5644990000000  0.5316080000000 1.0
C      1  0.5943200000000  0.4812580000000  0.4476160000000 1.0
C      1  0.5133240000000  0.5188120000000  0.5626310000000 1.0
C      1  0.5706850000000  0.5544250000000  0.5336240000000 1.0
C      1  0.5935760000000  0.4471950000000  0.4968030000000 1.0
C      1  0.5502350000000  0.4685540000000  0.4852380000000 1.0
C      1  0.5070760000000  0.4991820000000  0.4478700000000 1.0
C      1  0.4982040000000  0.4398720000000  0.4263260000000 1.0
C      1  0.4665000000000  0.4622170000000  0.5804350000000 1.0
C      1  0.5651390000000  0.4958440000000  0.4068730000000 1.0
C      1  0.5744900000000  0.5701510000000  0.5057470000000 1.0
C      1  0.4592680000000  0.5592850000000  0.4823590000000 1.0
C      1  0.5468490000000  0.4324280000000  0.4259430000000 1.0
C      1  0.4887920000000  0.4957380000000  0.4831600000000 1.0
C      1  0.5410790000000  0.4454080000000  0.4543200000000 1.0
C      1  0.4448880000000  0.4926880000000  0.5943800000000 1.0
C      1  0.5074780000000  0.5160250000000  0.5317740000000 1.0
C      1  0.5236470000000  0.5452960000000  0.4310440000000 1.0
C      1  0.4763100000000  0.4753810000000  0.4589480000000 1.0
C      1  0.5591650000000  0.4141680000000  0.5232140000000 1.0
C      1  0.5219290000000  0.5175760000000  0.4268010000000 1.0
C      1  0.4836200000000  0.5347970000000  0.5229760000000 1.0
C      1  0.4751020000000  0.4805270000000  0.6056120000000 1.0
C      1  0.5293410000000  0.5571340000000  0.5438600000000 1.0
C      1  0.4444600000000  0.4588230000000  0.3928140000000 1.0
C      1  0.4979160000000  0.4876140000000  0.5298510000000 1.0
C      1  0.5955730000000  0.5380420000000  0.5365390000000 1.0
C      1  0.5775860000000  0.4931280000000  0.5601550000000 1.0
C      1  0.5113170000000  0.6013920000000  0.5033270000000 1.0
C      1  0.4755030000000  0.4793020000000  0.5534010000000 1.0
C      1  0.4980980000000  0.5283580000000  0.6055610000000 1.0
C      1  0.4922410000000  0.4045140000000  0.5451620000000 1.0
C      1  0.4651930000000  0.4708770000000  0.3793310000000 1.0
C      1  0.5031450000000  0.4278640000000  0.4906500000000 1.0
C      1  0.4340700000000  0.4481170000000  0.5533920000000 1.0
C      1  0.4337620000000  0.5738080000000  0.4453730000000 1.0
C      1  0.5457000000000  0.4896240000000  0.4594820000000 1.0
C      1  0.5598680000000  0.4742860000000  0.5131500000000 1.0
C      1  0.4449920000000  0.5173850000000  0.4401740000000 1.0
C      1  0.5500030000000  0.5397710000000  0.5144610000000 1.0
C      1  0.5197070000000  0.3852790000000  0.4994440000000 1.0
C      1  0.5048340000000  0.5904900000000  0.5470670000000 1.0
C      1  0.5367910000000  0.4733380000000  0.5911640000000 1.0
C      1  0.5473800000000  0.5018160000000  0.5509880000000 1.0
C      1  0.4009330000000  0.4713800000000  0.4866140000000 1.0
C      1  0.4834040000000  0.4854460000000  0.4280000000000 1.0
C      1  0.5481630000000  0.5201080000000  0.4566780000000 1.0
C      1  0.4637320000000  0.4099570000000  0.5273370000000 1.0
C      1  0.6168050000000  0.5008500000000  0.5107600000000 1.0
C      1  0.5559730000000  0.4593340000000  0.4199660000000 1.0
C      1  0.6107500000000  0.4740430000000  0.4959420000000 1.0
C      1  0.4832290000000  0.5143080000000  0.3939810000000 1.0
C      1  0.4597570000000  0.4342030000000  0.5505560000000 1.0
C      1  0.4323870000000  0.4949830000000  0.4794920000000 1.0
C      1  0.4334510000000  0.4644780000000  0.5794360000000 1.0
C      1  0.5350630000000  0.4059620000000  0.4619440000000 1.0
C      1  0.4111620000000  0.4938310000000  0.5432110000000 1.0
C      1  0.4838340000000  0.6010770000000  0.5221950000000 1.0
C      1  0.4877240000000  0.4862820000000  0.3883310000000 1.0
C      1  0.4402470000000  0.4642330000000  0.4849600000000 1.0
C      1  0.4763550000000  0.4322190000000  0.5784680000000 1.0
C      1  0.5381990000000  0.5694780000000  0.4870880000000 1.0
C      1  0.4198610000000  0.5605480000000  0.4734680000000 1.0
C      1  0.5369480000000  0.3910100000000  0.5161830000000 1.0
C      1  0.4721820000000  0.4899960000000  0.5123270000000 1.0
C      1  0.4894520000000  0.5404380000000  0.5562360000000 1.0
C      1  0.5492000000000  0.5912600000000  0.5099840000000 1.0
C      1  0.5662660000000  0.4736480000000  0.4416970000000 1.0
C      1  0.4372600000000  0.5232130000000  0.5175080000000 1.0
C      1  0.5054320000000  0.4901860000000  0.6060310000000 1.0
C      1  0.4427100000000  0.5383560000000  0.4613780000000 1.0
C      1  0.5329380000000  0.5468990000000  0.5991370000000 1.0
C      1  0.4669510000000  0.5471270000000  0.5765250000000 1.0
C      1  0.4299380000000  0.4323710000000  0.4923330000000 1.0
C      1  0.4000740000000  0.5225780000000  0.4452790000000 1.0
C      1  0.5340840000000  0.4397720000000  0.4864210000000 1.0
C      1  0.5369120000000  0.4797220000000  0.5335790000000 1.0
C      1  0.4791130000000  0.4419220000000  0.4532390000000 1.0
C      1  0.4989850000000  0.5711740000000  0.5129450000000 1.0
C      1  0.5057640000000  0.4682600000000  0.4091710000000 1.0
C      1  0.5054770000000  0.6099470000000  0.4720800000000 1.0
C      1  0.5125440000000  0.5653560000000  0.5916050000000 1.0
C      1  0.5357010000000  0.4754660000000  0.4038760000000 1.0
C      1  0.5534430000000  0.5006550000000  0.5838100000000 1.0
C      1  0.4106930000000  0.4528740000000  0.5092900000000 1.0
C      1  0.5128830000000  0.5495330000000  0.4824990000000 1.0
C      1  0.5591520000000  0.5523170000000  0.5846130000000 1.0
C      1  0.4749520000000  0.5950450000000  0.4738810000000 1.0
C      1  0.5219800000000  0.4514030000000  0.5406340000000 1.0
C      1  0.4000000000000  0.5101410000000  0.5227060000000 1.0
C      1  0.5927770000000  0.5189660000000  0.4513790000000 1.0
C      1  0.4483470000000  0.5211580000000  0.4877750000000 1.0
C      1  0.5229930000000  0.4197700000000  0.4170450000000 1.0
C      1  0.4838770000000  0.5474870000000  0.4014650000000 1.0
C      1  0.5293430000000  0.5149180000000  0.6034370000000 1.0
C      1  0.4083650000000  0.5378860000000  0.5266510000000 1.0
C      1  0.4797960000000  0.4145390000000  0.4736860000000 1.0
C      1  0.4697710000000  0.4634020000000  0.4964950000000 1.0
C      1  0.4602000000000  0.5886990000000  0.5007910000000 1.0
C      1  0.4455170000000  0.4863090000000  0.4505610000000 1.0
C      1  0.5469330000000  0.5842680000000  0.4594870000000 1.0
C      1  0.5223460000000  0.4987740000000  0.4905600000000 1.0
C      1  0.4303870000000  0.5661410000000  0.4182450000000 1.0
C      1  0.5800950000000  0.5437470000000  0.4610710000000 1.0
C      1  0.5064960000000  0.4114540000000  0.4439180000000 1.0
C      1  0.4997370000000  0.4178190000000  0.5702220000000 1.0
C      1  0.4285410000000  0.5756590000000  0.5017880000000 1.0
C      1  0.4780550000000  0.5328920000000  0.4929900000000 1.0
C      1  0.4191080000000  0.5286530000000  0.5892220000000 1.0
C      1  0.5328120000000  0.4307070000000  0.5170580000000 1.0
C      1  0.4570160000000  0.5778200000000  0.5529030000000 1.0
C      1  0.4998170000000  0.5586600000000  0.4228280000000 1.0
C      1  0.4373810000000  0.4658380000000  0.4243150000000 1.0
C      1  0.5800790000000  0.4538920000000  0.5252700000000 1.0
C      1  0.4590460000000  0.5845190000000  0.4490320000000 1.0
C      1  0.4986410000000  0.4576350000000  0.4867540000000 1.0
C      1  0.4543380000000  0.5230750000000  0.4102960000000 1.0
C      1  0.4049470000000  0.5299430000000  0.4712790000000 1.0
C      1  0.5147430000000  0.4914540000000  0.5751130000000 1.0
C      1  0.4514110000000  0.5536170000000  0.4039960000000 1.0
C      1  0.5202180000000  0.5481720000000  0.5155480000000 1.0
C      1  0.4239700000000  0.4979830000000  0.4059810000000 1.0
C      1  0.4864660000000  0.5735610000000  0.4423090000000 1.0
C      1  0.4028400000000  0.5033210000000  0.4923800000000 1.0
C      1  0.5600190000000  0.4137660000000  0.4709750000000 1.0
C      1  0.4563440000000  0.4107840000000  0.4939040000000 1.0
C      1  0.4383660000000  0.5345360000000  0.5695550000000 1.0
C      1  0.4062400000000  0.5109390000000  0.4217860000000 1.0
C      1  0.4493190000000  0.5522670000000  0.5128310000000 1.0
C      1  0.5827720000000  0.4630610000000  0.5569680000000 1.0
C      1  0.5573750000000  0.5366530000000  0.4832690000000 1.0
C      1  0.5424140000000  0.4463580000000  0.5849270000000 1.0
C      1  0.4776900000000  0.5485380000000  0.6016540000000 1.0
C      1  0.5768880000000  0.4174580000000  0.4977500000000 1.0
C      1  0.4739080000000  0.5103530000000  0.5905740000000 1.0
END
