TITL C-2778437-8639-597 -0.00448543430399641 125000 -1011.61864543081 0 0 172 (C1) n - 1
REM
REM in /home/nfs/bkarasulu/CARBON/AIRSS/Generating-Clusters/REBO/Only-C1/SD-CG/HFTN-CG
REM
REM
REM
REM
REM
REM ./C.cell (11c1c37f851c82e70ff6c80c92926a4b)
REM
REM compiler GCC version 9.2.1 20190827 (Red Hat 9.2.1-1)
REM options -cpp -mtune=generic -march=x86-64 -g -O0 -fpre-include=/usr/include/finclude/math-vector-fortran.h
REM seed -1009965030 908129860 -1168959143 -2082341810 -1370677317 1975409247 -1174083093 2112680513 2141436049 1893107156 -495813112 455350525 23862409 -763270503 850037144 1469222962 -561268124 814426200 1254198204 -1672873766 177616342 1320185830 107680345 -565478339 1940332999 -1966166878 -1459016747 -1444474512 1721053539 -708471534 2038960162 1485454640 157052492
REM
CELL 1.54180   50.00000   50.00000   50.00000   90.00000   90.00000   90.00000
LATT -1
SFAC C  
C      1  0.5209490000000  0.5536930000000  0.5463030000000 1.0
C      1  0.5199060000000  0.4613510000000  0.4167680000000 1.0
C      1  0.4180300000000  0.5104950000000  0.5606990000000 1.0
C      1  0.4526350000000  0.4370740000000  0.5345250000000 1.0
C      1  0.6043830000000  0.4920470000000  0.4627230000000 1.0
C      1  0.4679800000000  0.5381320000000  0.4069140000000 1.0
C      1  0.4811780000000  0.5396850000000  0.4905300000000 1.0
C      1  0.5321020000000  0.4654130000000  0.6000950000000 1.0
C      1  0.4539900000000  0.5437850000000  0.5723720000000 1.0
C      1  0.5290960000000  0.5241380000000  0.4121120000000 1.0
C      1  0.5879920000000  0.5182380000000  0.4705780000000 1.0
C      1  0.4278970000000  0.4465600000000  0.4376010000000 1.0
C      1  0.5434610000000  0.4907660000000  0.5415610000000 1.0
C      1  0.4594310000000  0.5429360000000  0.5391200000000 1.0
C      1  0.4262140000000  0.5434380000000  0.4834950000000 1.0
C      1  0.4716280000000  0.5136420000000  0.5107760000000 1.0
C      1  0.5647070000000  0.5816260000000  0.5077010000000 1.0
C      1  0.5952380000000  0.4595530000000  0.4614430000000 1.0
C      1  0.5344350000000  0.5821570000000  0.5335460000000 1.0
C      1  0.5926380000000  0.4823800000000  0.5505720000000 1.0
C      1  0.5401810000000  0.6288340000000  0.4600380000000 1.0
C      1  0.4873390000000  0.5566670000000  0.4198450000000 1.0
C      1  0.5763020000000  0.4440310000000  0.5309760000000 1.0
C      1  0.4392600000000  0.4784050000000  0.4321940000000 1.0
C      1  0.5546830000000  0.4214260000000  0.5284310000000 1.0
C      1  0.4572720000000  0.5014860000000  0.6142450000000 1.0
C      1  0.5162380000000  0.4834840000000  0.5248510000000 1.0
C      1  0.4404500000000  0.4890410000000  0.5671350000000 1.0
C      1  0.4471320000000  0.4940820000000  0.4051380000000 1.0
C      1  0.4800330000000  0.5368810000000  0.5868790000000 1.0
C      1  0.4589660000000  0.5102270000000  0.5485500000000 1.0
C      1  0.4970520000000  0.4781350000000  0.3978350000000 1.0
C      1  0.3888780000000  0.4849660000000  0.5217390000000 1.0
C      1  0.5252910000000  0.4746010000000  0.4964970000000 1.0
C      1  0.4437810000000  0.4038040000000  0.4867820000000 1.0
C      1  0.5738560000000  0.4835390000000  0.5707710000000 1.0
C      1  0.4528500000000  0.5715020000000  0.4925300000000 1.0
C      1  0.4530320000000  0.4229260000000  0.4371800000000 1.0
C      1  0.5605300000000  0.5707780000000  0.5615670000000 1.0
C      1  0.4738590000000  0.4029300000000  0.5326280000000 1.0
C      1  0.5687080000000  0.4738970000000  0.4966310000000 1.0
C      1  0.4702910000000  0.4657560000000  0.5855180000000 1.0
C      1  0.4342730000000  0.5157570000000  0.5247400000000 1.0
C      1  0.5027870000000  0.4472560000000  0.5150890000000 1.0
C      1  0.5555470000000  0.4423670000000  0.5553270000000 1.0
C      1  0.5526660000000  0.5767750000000  0.4765320000000 1.0
C      1  0.4623480000000  0.4681430000000  0.4853760000000 1.0
C      1  0.3831360000000  0.4895740000000  0.4916230000000 1.0
C      1  0.4600940000000  0.4989500000000  0.4759650000000 1.0
C      1  0.4645940000000  0.4070870000000  0.5579930000000 1.0
C      1  0.5900950000000  0.4787760000000  0.4361730000000 1.0
C      1  0.4865790000000  0.4739930000000  0.5020460000000 1.0
C      1  0.4319660000000  0.5785640000000  0.5264900000000 1.0
C      1  0.4722700000000  0.4431110000000  0.4162900000000 1.0
C      1  0.4899340000000  0.5019380000000  0.4388400000000 1.0
C      1  0.5061150000000  0.6075110000000  0.4471820000000 1.0
C      1  0.5191990000000  0.5818640000000  0.4555240000000 1.0
C      1  0.5419760000000  0.5227620000000  0.6028850000000 1.0
C      1  0.5295910000000  0.5060780000000  0.4416630000000 1.0
C      1  0.4326330000000  0.4827000000000  0.4814350000000 1.0
C      1  0.4755670000000  0.4300080000000  0.5120550000000 1.0
C      1  0.4722750000000  0.3911140000000  0.4805480000000 1.0
C      1  0.5685180000000  0.5375750000000  0.5590280000000 1.0
C      1  0.4648990000000  0.4609160000000  0.4387900000000 1.0
C      1  0.5674690000000  0.4211830000000  0.4749560000000 1.0
C      1  0.4705240000000  0.4823540000000  0.3926050000000 1.0
C      1  0.4868970000000  0.4888250000000  0.4616570000000 1.0
C      1  0.4387280000000  0.4145970000000  0.5125850000000 1.0
C      1  0.5891660000000  0.4403670000000  0.4805600000000 1.0
C      1  0.6002410000000  0.5225420000000  0.5019500000000 1.0
C      1  0.6087120000000  0.4667860000000  0.5265730000000 1.0
C      1  0.5151720000000  0.5510150000000  0.4169880000000 1.0
C      1  0.5595010000000  0.4366870000000  0.4286180000000 1.0
C      1  0.5336010000000  0.5862720000000  0.5654690000000 1.0
C      1  0.5208840000000  0.5163010000000  0.5207080000000 1.0
C      1  0.4011410000000  0.4672420000000  0.4427770000000 1.0
C      1  0.5376090000000  0.4947260000000  0.5856510000000 1.0
C      1  0.4098030000000  0.4978680000000  0.4737190000000 1.0
C      1  0.5740480000000  0.5690200000000  0.5349390000000 1.0
C      1  0.5463270000000  0.5306700000000  0.5103230000000 1.0
C      1  0.3927200000000  0.5223850000000  0.4903720000000 1.0
C      1  0.5678820000000  0.4852010000000  0.4200000000000 1.0
C      1  0.5955980000000  0.4467530000000  0.5084420000000 1.0
C      1  0.5219810000000  0.4748480000000  0.5628400000000 1.0
C      1  0.5377150000000  0.5385420000000  0.5665530000000 1.0
C      1  0.5899860000000  0.5509090000000  0.5108310000000 1.0
C      1  0.4725620000000  0.5751770000000  0.4442260000000 1.0
C      1  0.5033780000000  0.4356660000000  0.4681210000000 1.0
C      1  0.5566310000000  0.4608240000000  0.5768240000000 1.0
C      1  0.5312240000000  0.5046060000000  0.4840240000000 1.0
C      1  0.4913860000000  0.3935750000000  0.5082670000000 1.0
C      1  0.5377710000000  0.5275280000000  0.4637420000000 1.0
C      1  0.5607760000000  0.5520250000000  0.4326240000000 1.0
C      1  0.3987990000000  0.5419990000000  0.5124430000000 1.0
C      1  0.5341210000000  0.5653460000000  0.4326490000000 1.0
C      1  0.4662990000000  0.4488940000000  0.4642790000000 1.0
C      1  0.5177430000000  0.4487040000000  0.5432830000000 1.0
C      1  0.4165660000000  0.5530280000000  0.5387980000000 1.0
C      1  0.4850430000000  0.4930430000000  0.5350770000000 1.0
C      1  0.4181110000000  0.4350140000000  0.5146690000000 1.0
C      1  0.5322010000000  0.3990000000000  0.5622450000000 1.0
C      1  0.4888400000000  0.5830040000000  0.5396940000000 1.0
C      1  0.5018550000000  0.4361350000000  0.4179820000000 1.0
C      1  0.4693180000000  0.5227430000000  0.4352210000000 1.0
C      1  0.5078150000000  0.4669210000000  0.4690190000000 1.0
C      1  0.5011760000000  0.5657230000000  0.4797880000000 1.0
C      1  0.4603120000000  0.4385820000000  0.5676270000000 1.0
C      1  0.4863600000000  0.4147070000000  0.4389240000000 1.0
C      1  0.3908910000000  0.4630030000000  0.4717360000000 1.0
C      1  0.5653840000000  0.4973800000000  0.5212990000000 1.0
C      1  0.4340520000000  0.4184140000000  0.4649280000000 1.0
C      1  0.4955410000000  0.4871790000000  0.5773650000000 1.0
C      1  0.5124380000000  0.4181040000000  0.5027130000000 1.0
C      1  0.4912620000000  0.5404410000000  0.5463810000000 1.0
C      1  0.5818020000000  0.5625910000000  0.4530990000000 1.0
C      1  0.5666360000000  0.5257030000000  0.4508910000000 1.0
C      1  0.5472800000000  0.4635590000000  0.4737180000000 1.0
C      1  0.5058070000000  0.3968630000000  0.4772300000000 1.0
C      1  0.5185310000000  0.4118870000000  0.4509070000000 1.0
C      1  0.5507790000000  0.4201950000000  0.4504690000000 1.0
C      1  0.5517290000000  0.4152960000000  0.5007820000000 1.0
C      1  0.5004540000000  0.5596320000000  0.5888320000000 1.0
C      1  0.5092770000000  0.4996940000000  0.4154720000000 1.0
C      1  0.5342410000000  0.5972360000000  0.5052880000000 1.0
C      1  0.5294870000000  0.5548200000000  0.5146960000000 1.0
C      1  0.5653280000000  0.5131130000000  0.5801010000000 1.0
C      1  0.4773670000000  0.4245790000000  0.4813890000000 1.0
C      1  0.5000110000000  0.4541930000000  0.5990120000000 1.0
C      1  0.5417330000000  0.6079810000000  0.4755680000000 1.0
C      1  0.5322820000000  0.4374700000000  0.4838040000000 1.0
C      1  0.4475190000000  0.4830030000000  0.5966810000000 1.0
C      1  0.4400890000000  0.5081210000000  0.4428030000000 1.0
C      1  0.4955120000000  0.5514130000000  0.5161300000000 1.0
C      1  0.4264970000000  0.5377970000000  0.5612010000000 1.0
C      1  0.4091420000000  0.5279510000000  0.4607440000000 1.0
C      1  0.4935830000000  0.4370240000000  0.5721020000000 1.0
C      1  0.4129730000000  0.4397400000000  0.4681450000000 1.0
C      1  0.4496050000000  0.5274060000000  0.4693660000000 1.0
C      1  0.5027260000000  0.5814720000000  0.5680240000000 1.0
C      1  0.4467460000000  0.5723870000000  0.4638860000000 1.0
C      1  0.4865060000000  0.4615840000000  0.5485200000000 1.0
C      1  0.5729840000000  0.5293520000000  0.5302320000000 1.0
C      1  0.5386190000000  0.6498150000000  0.4444120000000 1.0
C      1  0.5298130000000  0.4748390000000  0.4465360000000 1.0
C      1  0.4211650000000  0.5331110000000  0.4306240000000 1.0
C      1  0.4496690000000  0.4882140000000  0.5171050000000 1.0
C      1  0.6069830000000  0.5001550000000  0.5253420000000 1.0
C      1  0.5061090000000  0.4866190000000  0.6088280000000 1.0
C      1  0.4815830000000  0.6042740000000  0.4418080000000 1.0
C      1  0.4939220000000  0.5149510000000  0.5672080000000 1.0
C      1  0.4996990000000  0.5050340000000  0.4962560000000 1.0
C      1  0.5189150000000  0.4209430000000  0.5599770000000 1.0
C      1  0.5260880000000  0.5473510000000  0.5947330000000 1.0
C      1  0.4143700000000  0.5684620000000  0.5024610000000 1.0
C      1  0.4017300000000  0.4600710000000  0.5243760000000 1.0
C      1  0.4264420000000  0.5615160000000  0.4479570000000 1.0
C      1  0.5837820000000  0.5673010000000  0.4832510000000 1.0
C      1  0.4033520000000  0.5054530000000  0.5346910000000 1.0
C      1  0.4421280000000  0.5227290000000  0.4059040000000 1.0
C      1  0.5222090000000  0.5145470000000  0.5534900000000 1.0
C      1  0.5311580000000  0.5545740000000  0.4710290000000 1.0
C      1  0.4749170000000  0.5449890000000  0.4579320000000 1.0
C      1  0.5032860000000  0.5839500000000  0.5086380000000 1.0
C      1  0.5515930000000  0.4615140000000  0.4159910000000 1.0
C      1  0.5971070000000  0.4886070000000  0.4952350000000 1.0
C      1  0.4538690000000  0.4696870000000  0.5433610000000 1.0
C      1  0.4826540000000  0.5112770000000  0.6080900000000 1.0
C      1  0.4446960000000  0.5440440000000  0.5112320000000 1.0
C      1  0.5610130000000  0.5170610000000  0.4201500000000 1.0
C      1  0.5633550000000  0.5126130000000  0.4904780000000 1.0
C      1  0.4297910000000  0.4646460000000  0.5079610000000 1.0
C      1  0.4628600000000  0.5804130000000  0.5238060000000 1.0
END
