TITL C-2778423-5760-1223 0.00307861129906597 125000 -755.83967914146 0 0 128 (C1) n - 1
REM
REM in /home/nfs/bkarasulu/CARBON/AIRSS/Generating-Clusters/REBO/Only-C1/SD-CG/HFTN-CG
REM
REM
REM
REM
REM
REM ./C.cell (11c1c37f851c82e70ff6c80c92926a4b)
REM
REM compiler GCC version 9.2.1 20190827 (Red Hat 9.2.1-1)
REM options -cpp -mtune=generic -march=x86-64 -g -O0 -fpre-include=/usr/include/finclude/math-vector-fortran.h
REM seed -1464169280 -1834952921 2034246970 282685412 -2099991762 1937022605 1858648525 -202088870 -50918509 1274383569 1490804498 -638750554 -359436519 1851507440 -1839183273 606514076 108065622 -1431999105 -1114647852 856070219 793446825 1513449249 -420164721 941164099 1690345389 -2109376088 -1029390748 521712625 -1175956624 -993164120 -880323362 662716637 556840175
REM
CELL 1.54180   50.00000   50.00000   50.00000   90.00000   90.00000   90.00000
LATT -1
SFAC C  
C      1  0.5332160000000  0.5207710000000  0.4876710000000 1.0
C      1  0.4275830000000  0.4823320000000  0.5538380000000 1.0
C      1  0.5274560000000  0.5913270000000  0.5276640000000 1.0
C      1  0.4548540000000  0.5116530000000  0.4060280000000 1.0
C      1  0.4389160000000  0.5071390000000  0.4781280000000 1.0
C      1  0.5515920000000  0.5775100000000  0.5176820000000 1.0
C      1  0.5089070000000  0.4931190000000  0.5240800000000 1.0
C      1  0.4650120000000  0.5533090000000  0.4208760000000 1.0
C      1  0.5278470000000  0.4650160000000  0.4154660000000 1.0
C      1  0.5207810000000  0.5762560000000  0.5548180000000 1.0
C      1  0.4627080000000  0.4851160000000  0.5887920000000 1.0
C      1  0.4731470000000  0.5213420000000  0.5472550000000 1.0
C      1  0.4070730000000  0.4685060000000  0.5101210000000 1.0
C      1  0.4845640000000  0.4945420000000  0.6045490000000 1.0
C      1  0.5769050000000  0.4340680000000  0.4800630000000 1.0
C      1  0.4223900000000  0.4311280000000  0.4655850000000 1.0
C      1  0.5214000000000  0.5760100000000  0.4602160000000 1.0
C      1  0.3984040000000  0.4835480000000  0.4835250000000 1.0
C      1  0.5434020000000  0.5324120000000  0.5386120000000 1.0
C      1  0.5221570000000  0.4009100000000  0.5036820000000 1.0
C      1  0.4337460000000  0.4330090000000  0.5350400000000 1.0
C      1  0.5963460000000  0.5282350000000  0.4835730000000 1.0
C      1  0.4499190000000  0.4759490000000  0.4775160000000 1.0
C      1  0.4156150000000  0.4589300000000  0.5349330000000 1.0
C      1  0.5251180000000  0.5609740000000  0.5806380000000 1.0
C      1  0.5035060000000  0.4826750000000  0.4029720000000 1.0
C      1  0.5450580000000  0.4462410000000  0.4846310000000 1.0
C      1  0.5623840000000  0.4264060000000  0.5274440000000 1.0
C      1  0.5027410000000  0.4418900000000  0.5690130000000 1.0
C      1  0.4635650000000  0.5404320000000  0.4602400000000 1.0
C      1  0.4411240000000  0.4530440000000  0.4557240000000 1.0
C      1  0.4878920000000  0.5232370000000  0.6063000000000 1.0
C      1  0.4819920000000  0.4610630000000  0.5550700000000 1.0
C      1  0.4428110000000  0.5654850000000  0.5449350000000 1.0
C      1  0.4280780000000  0.4782550000000  0.4440940000000 1.0
C      1  0.4817850000000  0.5763010000000  0.5464240000000 1.0
C      1  0.4229980000000  0.5502000000000  0.5137560000000 1.0
C      1  0.5407180000000  0.4282610000000  0.4475520000000 1.0
C      1  0.5465820000000  0.4750070000000  0.4575350000000 1.0
C      1  0.5331850000000  0.4480110000000  0.5438120000000 1.0
C      1  0.5236800000000  0.4908230000000  0.4498930000000 1.0
C      1  0.5079920000000  0.5908070000000  0.4798570000000 1.0
C      1  0.5083480000000  0.4648940000000  0.5359230000000 1.0
C      1  0.6083840000000  0.5053950000000  0.4956020000000 1.0
C      1  0.4874590000000  0.4492510000000  0.5175020000000 1.0
C      1  0.5095230000000  0.4810380000000  0.5974460000000 1.0
C      1  0.4925890000000  0.4403560000000  0.4412210000000 1.0
C      1  0.5194810000000  0.4417920000000  0.4320290000000 1.0
C      1  0.5650540000000  0.5158890000000  0.5910670000000 1.0
C      1  0.5120940000000  0.5405370000000  0.4874130000000 1.0
C      1  0.5651270000000  0.5222330000000  0.5221080000000 1.0
C      1  0.4473030000000  0.5800310000000  0.5257510000000 1.0
C      1  0.5931800000000  0.4423030000000  0.4977920000000 1.0
C      1  0.5749820000000  0.4791870000000  0.4403850000000 1.0
C      1  0.4030370000000  0.4840300000000  0.4558540000000 1.0
C      1  0.5408040000000  0.5121410000000  0.4163980000000 1.0
C      1  0.5822390000000  0.5024210000000  0.5371310000000 1.0
C      1  0.4270150000000  0.5557040000000  0.4652560000000 1.0
C      1  0.4802000000000  0.5059380000000  0.3940660000000 1.0
C      1  0.4424360000000  0.4981990000000  0.5289970000000 1.0
C      1  0.4805050000000  0.4429220000000  0.4723490000000 1.0
C      1  0.4489440000000  0.5374700000000  0.5598230000000 1.0
C      1  0.5594900000000  0.5632550000000  0.4940400000000 1.0
C      1  0.5119620000000  0.4528910000000  0.5933420000000 1.0
C      1  0.5491270000000  0.5603870000000  0.4631910000000 1.0
C      1  0.5606690000000  0.4487910000000  0.4479020000000 1.0
C      1  0.4649500000000  0.5217630000000  0.4896010000000 1.0
C      1  0.4877660000000  0.5917500000000  0.4993060000000 1.0
C      1  0.4464220000000  0.4914890000000  0.4287590000000 1.0
C      1  0.4695510000000  0.4898290000000  0.5569990000000 1.0
C      1  0.5147020000000  0.5413830000000  0.4232190000000 1.0
C      1  0.4840310000000  0.5015400000000  0.4697440000000 1.0
C      1  0.4968190000000  0.5893970000000  0.5256910000000 1.0
C      1  0.4453160000000  0.5307450000000  0.4327280000000 1.0
C      1  0.5613780000000  0.5046730000000  0.4929550000000 1.0
C      1  0.4743340000000  0.4717360000000  0.4966220000000 1.0
C      1  0.4761770000000  0.5569910000000  0.5651070000000 1.0
C      1  0.4977460000000  0.4167180000000  0.5193780000000 1.0
C      1  0.4945820000000  0.5337100000000  0.4661940000000 1.0
C      1  0.4729920000000  0.4193380000000  0.4958500000000 1.0
C      1  0.5638470000000  0.5665730000000  0.5422810000000 1.0
C      1  0.5242070000000  0.4912670000000  0.4980840000000 1.0
C      1  0.5628300000000  0.4573760000000  0.5415320000000 1.0
C      1  0.4632820000000  0.4431430000000  0.4364980000000 1.0
C      1  0.5354610000000  0.4097050000000  0.4727710000000 1.0
C      1  0.5191520000000  0.5138430000000  0.5419050000000 1.0
C      1  0.4748490000000  0.4895750000000  0.5232930000000 1.0
C      1  0.4764710000000  0.5720030000000  0.4393670000000 1.0
C      1  0.4442580000000  0.4195690000000  0.5071190000000 1.0
C      1  0.5751360000000  0.5383500000000  0.4610510000000 1.0
C      1  0.4772930000000  0.5298780000000  0.5171730000000 1.0
C      1  0.5028030000000  0.4130310000000  0.4800960000000 1.0
C      1  0.5500890000000  0.5512800000000  0.5650590000000 1.0
C      1  0.5813430000000  0.4648430000000  0.5147220000000 1.0
C      1  0.5046940000000  0.5675620000000  0.4396110000000 1.0
C      1  0.5227080000000  0.4978280000000  0.5782090000000 1.0
C      1  0.5668470000000  0.4855200000000  0.5543540000000 1.0
C      1  0.5426870000000  0.5380560000000  0.4383510000000 1.0
C      1  0.5008500000000  0.5455160000000  0.5130380000000 1.0
C      1  0.5005320000000  0.5195710000000  0.5659830000000 1.0
C      1  0.5525620000000  0.4733550000000  0.4994660000000 1.0
C      1  0.5146820000000  0.4452690000000  0.4752370000000 1.0
C      1  0.4587090000000  0.5844550000000  0.4949750000000 1.0
C      1  0.4426290000000  0.4669780000000  0.5754910000000 1.0
C      1  0.4756420000000  0.5039490000000  0.4390970000000 1.0
C      1  0.4263340000000  0.5267450000000  0.4580530000000 1.0
C      1  0.4569120000000  0.5727090000000  0.4647170000000 1.0
C      1  0.5495890000000  0.4844620000000  0.4189000000000 1.0
C      1  0.5130570000000  0.4238830000000  0.5471430000000 1.0
C      1  0.4844160000000  0.5303850000000  0.4252350000000 1.0
C      1  0.5994790000000  0.4895210000000  0.5176050000000 1.0
C      1  0.5023140000000  0.4765120000000  0.4804330000000 1.0
C      1  0.5120680000000  0.5157020000000  0.4009550000000 1.0
C      1  0.4989000000000  0.5451870000000  0.5847060000000 1.0
C      1  0.4658150000000  0.4375630000000  0.5385740000000 1.0
C      1  0.5736670000000  0.5041860000000  0.4612040000000 1.0
C      1  0.5005040000000  0.4862690000000  0.4351620000000 1.0
C      1  0.4293600000000  0.5671330000000  0.4926630000000 1.0
C      1  0.4466190000000  0.4401490000000  0.5659210000000 1.0
C      1  0.4249050000000  0.4164630000000  0.4881210000000 1.0
C      1  0.4233630000000  0.4958380000000  0.5026350000000 1.0
C      1  0.5430640000000  0.5146710000000  0.4588510000000 1.0
C      1  0.5513560000000  0.4986750000000  0.5746010000000 1.0
C      1  0.5487900000000  0.4189810000000  0.5037040000000 1.0
C      1  0.5187590000000  0.5529400000000  0.5338310000000 1.0
C      1  0.4318680000000  0.5278560000000  0.5249630000000 1.0
C      1  0.4271460000000  0.5147080000000  0.5621240000000 1.0
C      1  0.5762870000000  0.5416010000000  0.5007900000000 1.0
END
