TITL C-2778422-5617-74 0.188974552159682 125000 -244.925012910601 0 0 44 (C1) n - 1
REM
REM in /home/nfs/bkarasulu/CARBON/AIRSS/Generating-Clusters/REBO/Only-C1/SD-CG/HFTN-CG
REM
REM
REM
REM
REM
REM ./C.cell (11c1c37f851c82e70ff6c80c92926a4b)
REM
REM compiler GCC version 9.2.1 20190827 (Red Hat 9.2.1-1)
REM options -cpp -mtune=generic -march=x86-64 -g -O0 -fpre-include=/usr/include/finclude/math-vector-fortran.h
REM seed 152318160 -1405362655 -441710315 -1346344392 172138110 -1369573435 1750877726 -965264482 315176488 -807562176 -393991943 319048509 -390547127 -1762922835 2043012284 17771050 2122518133 -537565589 939293241 1476828229 671202685 1059794243 -1031796756 -372231360 -44254990 668002986 -232306985 1087417856 956123581 1561844369 901810061 -228922909 -658311421
REM
CELL 1.54180   50.00000   50.00000   50.00000   90.00000   90.00000   90.00000
LATT -1
SFAC C  
C      1  0.4503020000000  0.5716470000000  0.5241150000000 1.0
C      1  0.4633880000000  0.5432070000000  0.4795370000000 1.0
C      1  0.4953460000000  0.5697140000000  0.5371160000000 1.0
C      1  0.4816800000000  0.4431230000000  0.5221290000000 1.0
C      1  0.5302350000000  0.4227130000000  0.4242150000000 1.0
C      1  0.4945880000000  0.5419630000000  0.4921360000000 1.0
C      1  0.4666780000000  0.4405880000000  0.4931280000000 1.0
C      1  0.4584740000000  0.5195160000000  0.4645800000000 1.0
C      1  0.5147700000000  0.4652390000000  0.4856460000000 1.0
C      1  0.5112520000000  0.5907160000000  0.4944670000000 1.0
C      1  0.4874040000000  0.4662970000000  0.4993750000000 1.0
C      1  0.5186600000000  0.5596830000000  0.5486830000000 1.0
C      1  0.4830430000000  0.4254700000000  0.5511110000000 1.0
C      1  0.4800810000000  0.5135530000000  0.4462870000000 1.0
C      1  0.5251480000000  0.4419440000000  0.4425540000000 1.0
C      1  0.5420000000000  0.4897930000000  0.5214220000000 1.0
C      1  0.4958210000000  0.5708990000000  0.5062280000000 1.0
C      1  0.4313900000000  0.4790760000000  0.4774940000000 1.0
C      1  0.5365480000000  0.5105430000000  0.5457450000000 1.0
C      1  0.4685420000000  0.5728660000000  0.5466080000000 1.0
C      1  0.5154990000000  0.5345500000000  0.4716760000000 1.0
C      1  0.4535610000000  0.5768260000000  0.5982950000000 1.0
C      1  0.5620050000000  0.5148300000000  0.5237970000000 1.0
C      1  0.5326430000000  0.4420210000000  0.5261860000000 1.0
C      1  0.5174910000000  0.4376840000000  0.4695450000000 1.0
C      1  0.4608370000000  0.5749030000000  0.5731920000000 1.0
C      1  0.5181140000000  0.4856270000000  0.4606670000000 1.0
C      1  0.5392920000000  0.5417390000000  0.5423700000000 1.0
C      1  0.5607970000000  0.5456260000000  0.5195470000000 1.0
C      1  0.4739650000000  0.4928640000000  0.5003210000000 1.0
C      1  0.4508540000000  0.4282480000000  0.4772600000000 1.0
C      1  0.5071110000000  0.5117650000000  0.4563610000000 1.0
C      1  0.5086190000000  0.3905840000000  0.4940280000000 1.0
C      1  0.5262380000000  0.4701240000000  0.4378380000000 1.0
C      1  0.4638260000000  0.5661070000000  0.4992480000000 1.0
C      1  0.5129390000000  0.4135190000000  0.4821060000000 1.0
C      1  0.4866450000000  0.5156340000000  0.5086510000000 1.0
C      1  0.4115380000000  0.4624500000000  0.4734580000000 1.0
C      1  0.5632660000000  0.4588750000000  0.4914890000000 1.0
C      1  0.4524240000000  0.4966920000000  0.4817700000000 1.0
C      1  0.5392740000000  0.4647540000000  0.5057210000000 1.0
C      1  0.5577820000000  0.5552850000000  0.4933520000000 1.0
C      1  0.5401320000000  0.5473850000000  0.4741690000000 1.0
C      1  0.5097980000000  0.4333630000000  0.5363740000000 1.0
END
