TITL C-2778434-4341-1249 -0.00508249192566239 125000 -792.813920329691 0 0 134 (C1) n - 1
REM
REM in /home/nfs/bkarasulu/CARBON/AIRSS/Generating-Clusters/REBO/Only-C1/SD-CG/HFTN-CG
REM
REM
REM
REM
REM
REM ./C.cell (11c1c37f851c82e70ff6c80c92926a4b)
REM
REM compiler GCC version 9.2.1 20190827 (Red Hat 9.2.1-1)
REM options -cpp -mtune=generic -march=x86-64 -g -O0 -fpre-include=/usr/include/finclude/math-vector-fortran.h
REM seed -386233833 1101617000 807055705 978429611 1530660808 -1441543221 -6012594 1285298744 550794060 885374781 -933607417 -1981437385 961141055 1425024160 1915720608 -566267769 -2063767456 44768313 982419741 1491674774 359779440 1448625492 -1660058901 647364702 1274220456 988571788 278591791 -2009817836 -40145057 -417139395 573842310 -1818357404 77974784
REM
CELL 1.54180   50.00000   50.00000   50.00000   90.00000   90.00000   90.00000
LATT -1
SFAC C  
C      1  0.4507110000000  0.5754830000000  0.5216560000000 1.0
C      1  0.5294180000000  0.5826690000000  0.5227400000000 1.0
C      1  0.5210110000000  0.4759800000000  0.4597020000000 1.0
C      1  0.4914270000000  0.4506080000000  0.5893060000000 1.0
C      1  0.5074710000000  0.5543280000000  0.5718300000000 1.0
C      1  0.4970920000000  0.5307350000000  0.4686810000000 1.0
C      1  0.4150910000000  0.4537460000000  0.5341950000000 1.0
C      1  0.5003270000000  0.4053620000000  0.4953920000000 1.0
C      1  0.5850340000000  0.4524200000000  0.5320960000000 1.0
C      1  0.4752370000000  0.5251030000000  0.5975810000000 1.0
C      1  0.4584660000000  0.4377160000000  0.4675470000000 1.0
C      1  0.4111420000000  0.4669260000000  0.4715100000000 1.0
C      1  0.5409210000000  0.4890380000000  0.5481560000000 1.0
C      1  0.4135800000000  0.5203350000000  0.4491690000000 1.0
C      1  0.5567480000000  0.4897870000000  0.4173430000000 1.0
C      1  0.4737750000000  0.4869450000000  0.4860070000000 1.0
C      1  0.5181150000000  0.5027390000000  0.6076770000000 1.0
C      1  0.4570870000000  0.4735860000000  0.5071590000000 1.0
C      1  0.5148500000000  0.5168050000000  0.5135100000000 1.0
C      1  0.4528350000000  0.5262440000000  0.5790310000000 1.0
C      1  0.5342960000000  0.4267440000000  0.4533450000000 1.0
C      1  0.4595730000000  0.4824580000000  0.5757580000000 1.0
C      1  0.5500810000000  0.4650620000000  0.4303050000000 1.0
C      1  0.5419750000000  0.5057600000000  0.5265310000000 1.0
C      1  0.5427340000000  0.5955100000000  0.5015520000000 1.0
C      1  0.5449810000000  0.4536340000000  0.5042050000000 1.0
C      1  0.5072900000000  0.4656480000000  0.5225000000000 1.0
C      1  0.4362020000000  0.5610620000000  0.4463950000000 1.0
C      1  0.5911040000000  0.5077140000000  0.4757820000000 1.0
C      1  0.4525050000000  0.4191490000000  0.5172030000000 1.0
C      1  0.5153190000000  0.4343130000000  0.5706400000000 1.0
C      1  0.4672810000000  0.4127960000000  0.4888140000000 1.0
C      1  0.5014930000000  0.5801110000000  0.5211920000000 1.0
C      1  0.4146640000000  0.5464390000000  0.4390560000000 1.0
C      1  0.5267140000000  0.4484260000000  0.4763690000000 1.0
C      1  0.4707540000000  0.5119510000000  0.4631030000000 1.0
C      1  0.5177820000000  0.4601170000000  0.4297650000000 1.0
C      1  0.5821910000000  0.5575590000000  0.4771010000000 1.0
C      1  0.5657320000000  0.5755690000000  0.4353890000000 1.0
C      1  0.5428510000000  0.4505230000000  0.5587230000000 1.0
C      1  0.5589530000000  0.5923290000000  0.4547240000000 1.0
C      1  0.4325260000000  0.5359650000000  0.4937200000000 1.0
C      1  0.4294500000000  0.4663630000000  0.4465320000000 1.0
C      1  0.4550770000000  0.5402490000000  0.5481640000000 1.0
C      1  0.4882100000000  0.5948810000000  0.4621300000000 1.0
C      1  0.4137840000000  0.5166700000000  0.4772430000000 1.0
C      1  0.5126920000000  0.4612480000000  0.5512790000000 1.0
C      1  0.4520450000000  0.5218590000000  0.4368590000000 1.0
C      1  0.5701340000000  0.4502270000000  0.4812530000000 1.0
C      1  0.4813780000000  0.5223610000000  0.5094140000000 1.0
C      1  0.4114680000000  0.5155390000000  0.5533360000000 1.0
C      1  0.4972410000000  0.5418240000000  0.4364010000000 1.0
C      1  0.4346580000000  0.4833420000000  0.5559760000000 1.0
C      1  0.5456580000000  0.4933120000000  0.4732130000000 1.0
C      1  0.4504780000000  0.5222640000000  0.5194150000000 1.0
C      1  0.5894130000000  0.5054070000000  0.5498430000000 1.0
C      1  0.5579220000000  0.4468300000000  0.4515380000000 1.0
C      1  0.4708530000000  0.4734190000000  0.5369560000000 1.0
C      1  0.4936370000000  0.4421740000000  0.5093630000000 1.0
C      1  0.4853650000000  0.5179050000000  0.4153280000000 1.0
C      1  0.5398000000000  0.6003610000000  0.4738610000000 1.0
C      1  0.5950840000000  0.4810060000000  0.5368320000000 1.0
C      1  0.5748800000000  0.5503180000000  0.5298340000000 1.0
C      1  0.5697770000000  0.5047060000000  0.5705820000000 1.0
C      1  0.5565470000000  0.4425920000000  0.5339030000000 1.0
C      1  0.5520390000000  0.5272740000000  0.5740920000000 1.0
C      1  0.5929660000000  0.5310450000000  0.5380530000000 1.0
C      1  0.4965260000000  0.4417480000000  0.4793260000000 1.0
C      1  0.5673380000000  0.5097610000000  0.5159550000000 1.0
C      1  0.3849550000000  0.4899770000000  0.5053400000000 1.0
C      1  0.4561300000000  0.4480500000000  0.4349600000000 1.0
C      1  0.4943230000000  0.5469250000000  0.5964260000000 1.0
C      1  0.5187790000000  0.4855650000000  0.5718590000000 1.0
C      1  0.5468720000000  0.5598200000000  0.4130080000000 1.0
C      1  0.4786790000000  0.4755680000000  0.5952330000000 1.0
C      1  0.5701720000000  0.5423760000000  0.4288590000000 1.0
C      1  0.4598880000000  0.4989020000000  0.4127530000000 1.0
C      1  0.4861680000000  0.5512160000000  0.5495070000000 1.0
C      1  0.4587180000000  0.4504580000000  0.5519480000000 1.0
C      1  0.4707920000000  0.4711430000000  0.4149840000000 1.0
C      1  0.5505300000000  0.4166310000000  0.5182360000000 1.0
C      1  0.5009830000000  0.5028830000000  0.4415540000000 1.0
C      1  0.5132080000000  0.6042860000000  0.4651390000000 1.0
C      1  0.4463430000000  0.5974600000000  0.5372840000000 1.0
C      1  0.5398530000000  0.5324330000000  0.4676520000000 1.0
C      1  0.5048060000000  0.4990200000000  0.4793000000000 1.0
C      1  0.4771200000000  0.5703970000000  0.5114340000000 1.0
C      1  0.5296070000000  0.4056240000000  0.4970250000000 1.0
C      1  0.4078700000000  0.4866000000000  0.5356130000000 1.0
C      1  0.5334570000000  0.5342730000000  0.4951310000000 1.0
C      1  0.5264040000000  0.4814120000000  0.4989130000000 1.0
C      1  0.4572450000000  0.4847650000000  0.4500030000000 1.0
C      1  0.5481340000000  0.5645940000000  0.3858020000000 1.0
C      1  0.4669500000000  0.5507400000000  0.4387920000000 1.0
C      1  0.4286710000000  0.4971050000000  0.4348350000000 1.0
C      1  0.5277860000000  0.5180790000000  0.4465010000000 1.0
C      1  0.5107650000000  0.4300970000000  0.4344370000000 1.0
C      1  0.4701650000000  0.5014900000000  0.5528920000000 1.0
C      1  0.4756470000000  0.4350020000000  0.5686000000000 1.0
C      1  0.5498780000000  0.5506650000000  0.5101770000000 1.0
C      1  0.4851270000000  0.4150500000000  0.5242690000000 1.0
C      1  0.5191840000000  0.5551280000000  0.4254700000000 1.0
C      1  0.4163760000000  0.4467820000000  0.4892260000000 1.0
C      1  0.4926510000000  0.4938100000000  0.5204330000000 1.0
C      1  0.5643990000000  0.5445660000000  0.4605490000000 1.0
C      1  0.5693840000000  0.5114800000000  0.4331410000000 1.0
C      1  0.5084120000000  0.5147420000000  0.5773340000000 1.0
C      1  0.4508120000000  0.5524560000000  0.4752870000000 1.0
C      1  0.4221090000000  0.5392760000000  0.5418370000000 1.0
C      1  0.4783440000000  0.4634670000000  0.4642890000000 1.0
C      1  0.4806500000000  0.4246940000000  0.4361990000000 1.0
C      1  0.4875190000000  0.4999970000000  0.6078710000000 1.0
C      1  0.5089260000000  0.4998950000000  0.4029140000000 1.0
C      1  0.4695570000000  0.5764860000000  0.4599790000000 1.0
C      1  0.4461450000000  0.4453600000000  0.4978690000000 1.0
C      1  0.4292920000000  0.5559090000000  0.5184650000000 1.0
C      1  0.4897670000000  0.4133400000000  0.4640680000000 1.0
C      1  0.4394440000000  0.4941960000000  0.5240810000000 1.0
C      1  0.5360130000000  0.4785590000000  0.6006200000000 1.0
C      1  0.4791630000000  0.5480000000000  0.4898650000000 1.0
C      1  0.5677970000000  0.5047160000000  0.4605810000000 1.0
C      1  0.5578080000000  0.4197640000000  0.4875930000000 1.0
C      1  0.4298830000000  0.5089510000000  0.5773230000000 1.0
C      1  0.4993820000000  0.4731550000000  0.4103530000000 1.0
C      1  0.4376130000000  0.4386140000000  0.5369890000000 1.0
C      1  0.5889050000000  0.4668120000000  0.5036260000000 1.0
C      1  0.4886380000000  0.5215710000000  0.5588860000000 1.0
C      1  0.5458750000000  0.5630830000000  0.5412690000000 1.0
C      1  0.5351480000000  0.5488480000000  0.5652470000000 1.0
C      1  0.5329510000000  0.5080970000000  0.4170170000000 1.0
C      1  0.5569000000000  0.4751720000000  0.5753390000000 1.0
C      1  0.4928940000000  0.4154320000000  0.5532890000000 1.0
C      1  0.5880020000000  0.4976100000000  0.5013910000000 1.0
C      1  0.4022750000000  0.4913490000000  0.4839910000000 1.0
END
