TITL C-2778429-3646-1279 -0.000871967818150377 125000 -491.73838552981 0 0 83 (C1) n - 1
REM
REM in /home/nfs/bkarasulu/CARBON/AIRSS/Generating-Clusters/REBO/Only-C1/SD-CG/HFTN-CG
REM
REM
REM
REM
REM
REM ./C.cell (11c1c37f851c82e70ff6c80c92926a4b)
REM
REM compiler GCC version 9.2.1 20190827 (Red Hat 9.2.1-1)
REM options -cpp -mtune=generic -march=x86-64 -g -O0 -fpre-include=/usr/include/finclude/math-vector-fortran.h
REM seed -901377560 -1749242014 795998389 767258910 2101906470 -1537017578 -782798986 322023990 -178663018 -930318396 -390786703 -1878819443 -1865686650 -1541446827 617849055 -393757222 -154927515 530224711 457832564 -1562814155 -1098332506 1109854562 781944514 2028099018 -1627780524 -612673033 -1901194358 239335600 1937841967 -2000926657 -197887616 -126700024 1828302192
REM
CELL 1.54180   50.00000   50.00000   50.00000   90.00000   90.00000   90.00000
LATT -1
SFAC C  
C      1  0.5230750000000  0.5694210000000  0.4904910000000 1.0
C      1  0.5020780000000  0.4663380000000  0.5190120000000 1.0
C      1  0.5212780000000  0.4405530000000  0.4282730000000 1.0
C      1  0.5655490000000  0.4538940000000  0.5027200000000 1.0
C      1  0.5864250000000  0.5075500000000  0.4892340000000 1.0
C      1  0.4362800000000  0.5422070000000  0.5582670000000 1.0
C      1  0.4511000000000  0.4631020000000  0.4417240000000 1.0
C      1  0.4852410000000  0.4958540000000  0.5693510000000 1.0
C      1  0.4884670000000  0.4691900000000  0.4293210000000 1.0
C      1  0.5144870000000  0.5846670000000  0.5174220000000 1.0
C      1  0.5327420000000  0.4635570000000  0.4116630000000 1.0
C      1  0.4246700000000  0.5400730000000  0.5089560000000 1.0
C      1  0.4461270000000  0.4411380000000  0.5169630000000 1.0
C      1  0.4276000000000  0.5114190000000  0.5039540000000 1.0
C      1  0.4340670000000  0.4984430000000  0.4796760000000 1.0
C      1  0.5389570000000  0.4901830000000  0.4321230000000 1.0
C      1  0.4793480000000  0.4967310000000  0.4214030000000 1.0
C      1  0.5102900000000  0.4205290000000  0.5192710000000 1.0
C      1  0.4677320000000  0.4473640000000  0.4207700000000 1.0
C      1  0.5482160000000  0.4862380000000  0.5676090000000 1.0
C      1  0.4930890000000  0.4144570000000  0.4963850000000 1.0
C      1  0.5098180000000  0.5455280000000  0.5107410000000 1.0
C      1  0.4678090000000  0.4351890000000  0.4957720000000 1.0
C      1  0.4974050000000  0.5519580000000  0.4230800000000 1.0
C      1  0.4974140000000  0.4709900000000  0.5660600000000 1.0
C      1  0.4635720000000  0.5683840000000  0.5219030000000 1.0
C      1  0.5165110000000  0.5629120000000  0.4426190000000 1.0
C      1  0.4957530000000  0.4540710000000  0.4925710000000 1.0
C      1  0.5123600000000  0.4166280000000  0.4407050000000 1.0
C      1  0.4274100000000  0.4963330000000  0.5287800000000 1.0
C      1  0.4829090000000  0.4479350000000  0.5562130000000 1.0
C      1  0.4889900000000  0.5274050000000  0.5567440000000 1.0
C      1  0.5456180000000  0.5137960000000  0.5746500000000 1.0
C      1  0.4895830000000  0.5353300000000  0.4532980000000 1.0
C      1  0.5989430000000  0.4829270000000  0.4749320000000 1.0
C      1  0.4998190000000  0.4936960000000  0.5226730000000 1.0
C      1  0.5771690000000  0.4968670000000  0.5265500000000 1.0
C      1  0.4538360000000  0.4917250000000  0.4367550000000 1.0
C      1  0.4624830000000  0.4561470000000  0.4707820000000 1.0
C      1  0.4142710000000  0.5426190000000  0.5358270000000 1.0
C      1  0.4045270000000  0.5016840000000  0.5737080000000 1.0
C      1  0.5559700000000  0.4706050000000  0.4538460000000 1.0
C      1  0.5380710000000  0.5450470000000  0.4485210000000 1.0
C      1  0.4561410000000  0.5600830000000  0.4747680000000 1.0
C      1  0.5087350000000  0.4141040000000  0.4688100000000 1.0
C      1  0.5656100000000  0.5247990000000  0.4891800000000 1.0
C      1  0.5487610000000  0.4537500000000  0.4790580000000 1.0
C      1  0.5615970000000  0.5155460000000  0.5287210000000 1.0
C      1  0.4445460000000  0.5590490000000  0.5004730000000 1.0
C      1  0.4180980000000  0.5139250000000  0.5531870000000 1.0
C      1  0.4377160000000  0.4713530000000  0.5319760000000 1.0
C      1  0.5393810000000  0.5555670000000  0.5501700000000 1.0
C      1  0.4777300000000  0.5785360000000  0.4700040000000 1.0
C      1  0.4597740000000  0.5356740000000  0.4605890000000 1.0
C      1  0.4229470000000  0.4545280000000  0.4990600000000 1.0
C      1  0.5733380000000  0.4753870000000  0.5668780000000 1.0
C      1  0.4465570000000  0.5107290000000  0.4573100000000 1.0
C      1  0.5441770000000  0.5477800000000  0.4784820000000 1.0
C      1  0.5327560000000  0.5189330000000  0.4918400000000 1.0
C      1  0.5057670000000  0.5759730000000  0.4659170000000 1.0
C      1  0.4875200000000  0.5892270000000  0.5194990000000 1.0
C      1  0.4980120000000  0.4269040000000  0.5441360000000 1.0
C      1  0.5307750000000  0.5809990000000  0.5407010000000 1.0
C      1  0.5348810000000  0.5405100000000  0.5743030000000 1.0
C      1  0.5225650000000  0.4382370000000  0.4845010000000 1.0
C      1  0.5064110000000  0.5352300000000  0.4782510000000 1.0
C      1  0.5260670000000  0.4697070000000  0.5589330000000 1.0
C      1  0.4349370000000  0.4701690000000  0.4796860000000 1.0
C      1  0.4883390000000  0.5224290000000  0.4223750000000 1.0
C      1  0.5224480000000  0.4658880000000  0.4497970000000 1.0
C      1  0.4857740000000  0.5197340000000  0.5905110000000 1.0
C      1  0.5075180000000  0.5411870000000  0.5817650000000 1.0
C      1  0.4603120000000  0.5537270000000  0.5509380000000 1.0
C      1  0.5406940000000  0.5205380000000  0.4365410000000 1.0
C      1  0.4572020000000  0.4512010000000  0.5462880000000 1.0
C      1  0.5377480000000  0.5362850000000  0.5274300000000 1.0
C      1  0.4938300000000  0.4665490000000  0.4623430000000 1.0
C      1  0.5399230000000  0.4363890000000  0.5138600000000 1.0
C      1  0.5862920000000  0.4739650000000  0.4524010000000 1.0
C      1  0.5857410000000  0.4754230000000  0.5046860000000 1.0
C      1  0.5239880000000  0.4553760000000  0.5335330000000 1.0
C      1  0.5214890000000  0.5085280000000  0.5191070000000 1.0
C      1  0.4868400000000  0.5453970000000  0.5306730000000 1.0
END
