TITL C-2778426-5645-1069 8.67752565860463e-05 125000 -914.503139777611 0 0 156 (C1) n - 1
REM
REM in /home/nfs/bkarasulu/CARBON/AIRSS/Generating-Clusters/REBO/Only-C1/SD-CG/HFTN-CG
REM
REM
REM
REM
REM
REM ./C.cell (11c1c37f851c82e70ff6c80c92926a4b)
REM
REM compiler GCC version 9.2.1 20190827 (Red Hat 9.2.1-1)
REM options -cpp -mtune=generic -march=x86-64 -g -O0 -fpre-include=/usr/include/finclude/math-vector-fortran.h
REM seed 1228315970 229623354 -1394076615 1358732811 -158593764 970011977 -1387100248 -1981054684 -1360412986 1359942690 670691160 -910118552 176931296 -256531576 -1629696771 -1480645371 -528405213 1362204098 -782701986 -2117907242 2031197579 1735652981 1179768460 -1739082373 575437373 -812127068 1549712984 -1412807504 696409764 -1656343350 1705246727 1556338625 1100186927
REM
CELL 1.54180   50.00000   50.00000   50.00000   90.00000   90.00000   90.00000
LATT -1
SFAC C  
C      1  0.5575090000000  0.4119230000000  0.5283040000000 1.0
C      1  0.4813630000000  0.3990580000000  0.4776380000000 1.0
C      1  0.4936360000000  0.5027750000000  0.4359550000000 1.0
C      1  0.5143260000000  0.5936160000000  0.5294560000000 1.0
C      1  0.4205680000000  0.5793130000000  0.5022370000000 1.0
C      1  0.4199170000000  0.4998510000000  0.4768780000000 1.0
C      1  0.5111680000000  0.5537730000000  0.5654350000000 1.0
C      1  0.6013060000000  0.4508670000000  0.4876940000000 1.0
C      1  0.5168930000000  0.4930390000000  0.5565130000000 1.0
C      1  0.5531890000000  0.5195040000000  0.4109680000000 1.0
C      1  0.4528360000000  0.4642960000000  0.5869330000000 1.0
C      1  0.4890730000000  0.5440900000000  0.4845250000000 1.0
C      1  0.5616490000000  0.5666020000000  0.5471290000000 1.0
C      1  0.5377100000000  0.5198380000000  0.4475050000000 1.0
C      1  0.5979150000000  0.5326600000000  0.4912150000000 1.0
C      1  0.4980070000000  0.4172770000000  0.5087370000000 1.0
C      1  0.4582000000000  0.4587140000000  0.4141650000000 1.0
C      1  0.6037790000000  0.4797250000000  0.5311290000000 1.0
C      1  0.5459700000000  0.5823480000000  0.4402280000000 1.0
C      1  0.4554620000000  0.4574640000000  0.4884330000000 1.0
C      1  0.5020880000000  0.4423340000000  0.5493150000000 1.0
C      1  0.5381740000000  0.4341520000000  0.4350690000000 1.0
C      1  0.5682470000000  0.4395100000000  0.5411940000000 1.0
C      1  0.4844010000000  0.5677840000000  0.5635130000000 1.0
C      1  0.5874350000000  0.4637200000000  0.5543060000000 1.0
C      1  0.5891110000000  0.4796720000000  0.4369470000000 1.0
C      1  0.4579440000000  0.5332500000000  0.4440560000000 1.0
C      1  0.3952730000000  0.5042420000000  0.5179090000000 1.0
C      1  0.4861880000000  0.4678110000000  0.5118530000000 1.0
C      1  0.5353910000000  0.4463800000000  0.5863630000000 1.0
C      1  0.5824390000000  0.5503840000000  0.4735800000000 1.0
C      1  0.4892030000000  0.4607060000000  0.4093880000000 1.0
C      1  0.5607950000000  0.5004120000000  0.5845740000000 1.0
C      1  0.5457980000000  0.5853900000000  0.5236640000000 1.0
C      1  0.6164860000000  0.4530270000000  0.5144780000000 1.0
C      1  0.5022460000000  0.4759670000000  0.4647440000000 1.0
C      1  0.5081230000000  0.4985210000000  0.5874770000000 1.0
C      1  0.5519510000000  0.5101240000000  0.5070750000000 1.0
C      1  0.5356460000000  0.3995670000000  0.4824370000000 1.0
C      1  0.5884420000000  0.5084480000000  0.5341240000000 1.0
C      1  0.5173650000000  0.5032030000000  0.4673500000000 1.0
C      1  0.5860430000000  0.5305920000000  0.5167680000000 1.0
C      1  0.4897800000000  0.4385290000000  0.5736850000000 1.0
C      1  0.5187180000000  0.4851670000000  0.4207970000000 1.0
C      1  0.5320370000000  0.4079090000000  0.4559140000000 1.0
C      1  0.4669480000000  0.5701490000000  0.5921350000000 1.0
C      1  0.5475470000000  0.4921070000000  0.4071560000000 1.0
C      1  0.5333290000000  0.5285200000000  0.5257390000000 1.0
C      1  0.4629840000000  0.6153670000000  0.4800660000000 1.0
C      1  0.4455480000000  0.5390530000000  0.4073270000000 1.0
C      1  0.4577760000000  0.4215270000000  0.4692700000000 1.0
C      1  0.5701190000000  0.5225720000000  0.4365250000000 1.0
C      1  0.4331270000000  0.4449190000000  0.4659120000000 1.0
C      1  0.5096000000000  0.3894490000000  0.4946010000000 1.0
C      1  0.4550600000000  0.4636070000000  0.5218710000000 1.0
C      1  0.5295880000000  0.5752180000000  0.5523560000000 1.0
C      1  0.4340270000000  0.4544990000000  0.4382260000000 1.0
C      1  0.5605850000000  0.5249280000000  0.4795470000000 1.0
C      1  0.4872170000000  0.5973770000000  0.4735040000000 1.0
C      1  0.5680630000000  0.5053020000000  0.5530940000000 1.0
C      1  0.4829290000000  0.5821110000000  0.5347740000000 1.0
C      1  0.5479130000000  0.5699380000000  0.4955360000000 1.0
C      1  0.4069750000000  0.4530810000000  0.4863970000000 1.0
C      1  0.5354980000000  0.5407730000000  0.5825100000000 1.0
C      1  0.4863390000000  0.5158610000000  0.5676910000000 1.0
C      1  0.4221010000000  0.5700730000000  0.5292750000000 1.0
C      1  0.4499090000000  0.5710840000000  0.4541520000000 1.0
C      1  0.5494970000000  0.3916210000000  0.5452710000000 1.0
C      1  0.5546400000000  0.4115740000000  0.5001380000000 1.0
C      1  0.5260300000000  0.5338470000000  0.4185990000000 1.0
C      1  0.4699190000000  0.4804500000000  0.4746820000000 1.0
C      1  0.3936610000000  0.5234180000000  0.4956990000000 1.0
C      1  0.3878060000000  0.5090590000000  0.4693380000000 1.0
C      1  0.5087270000000  0.5840270000000  0.4545990000000 1.0
C      1  0.4586500000000  0.5517640000000  0.6109400000000 1.0
C      1  0.4472150000000  0.4899710000000  0.5362700000000 1.0
C      1  0.5091510000000  0.4356770000000  0.4173740000000 1.0
C      1  0.4703830000000  0.4845170000000  0.4421530000000 1.0
C      1  0.4614760000000  0.6012050000000  0.5249240000000 1.0
C      1  0.5280110000000  0.4569310000000  0.5123200000000 1.0
C      1  0.4081120000000  0.5049190000000  0.5454520000000 1.0
C      1  0.5603720000000  0.5484990000000  0.5196720000000 1.0
C      1  0.4452390000000  0.4261690000000  0.4988310000000 1.0
C      1  0.5715780000000  0.4343280000000  0.4872850000000 1.0
C      1  0.5419480000000  0.4721160000000  0.4655100000000 1.0
C      1  0.4647550000000  0.5081160000000  0.4886020000000 1.0
C      1  0.4326210000000  0.4951610000000  0.5081840000000 1.0
C      1  0.5595070000000  0.5528210000000  0.5756380000000 1.0
C      1  0.4252210000000  0.4658300000000  0.4081280000000 1.0
C      1  0.5038700000000  0.4257910000000  0.4779710000000 1.0
C      1  0.4378560000000  0.5271110000000  0.4692740000000 1.0
C      1  0.5798980000000  0.4764420000000  0.5778750000000 1.0
C      1  0.5236480000000  0.5487990000000  0.5039700000000 1.0
C      1  0.5507260000000  0.4524250000000  0.5649760000000 1.0
C      1  0.4073290000000  0.4732550000000  0.5092330000000 1.0
C      1  0.4455720000000  0.4892050000000  0.4229270000000 1.0
C      1  0.5063200000000  0.4110690000000  0.4390400000000 1.0
C      1  0.4150220000000  0.4793830000000  0.5571430000000 1.0
C      1  0.4122540000000  0.5511410000000  0.4882650000000 1.0
C      1  0.4978700000000  0.4746130000000  0.6031850000000 1.0
C      1  0.4538730000000  0.5827180000000  0.5666500000000 1.0
C      1  0.4098640000000  0.5109810000000  0.4459820000000 1.0
C      1  0.4992860000000  0.5951540000000  0.5009180000000 1.0
C      1  0.5359380000000  0.5138280000000  0.5907660000000 1.0
C      1  0.5209480000000  0.4634830000000  0.5407360000000 1.0
C      1  0.5836260000000  0.4632940000000  0.4628730000000 1.0
C      1  0.4836850000000  0.4294880000000  0.4522810000000 1.0
C      1  0.5678280000000  0.4739900000000  0.4193420000000 1.0
C      1  0.4627220000000  0.5169230000000  0.5458670000000 1.0
C      1  0.4427780000000  0.4872400000000  0.5702780000000 1.0
C      1  0.4583360000000  0.5098660000000  0.5845740000000 1.0
C      1  0.4281670000000  0.5559140000000  0.4593910000000 1.0
C      1  0.4698260000000  0.4729780000000  0.6082560000000 1.0
C      1  0.5295610000000  0.5640510000000  0.4270850000000 1.0
C      1  0.5142090000000  0.5243430000000  0.5492510000000 1.0
C      1  0.5466750000000  0.4817010000000  0.5524180000000 1.0
C      1  0.5928040000000  0.5072450000000  0.4442180000000 1.0
C      1  0.4862170000000  0.4566920000000  0.4424710000000 1.0
C      1  0.4334980000000  0.5155850000000  0.4283110000000 1.0
C      1  0.4977830000000  0.5237940000000  0.4107380000000 1.0
C      1  0.4968250000000  0.5634810000000  0.5098840000000 1.0
C      1  0.4147330000000  0.4262260000000  0.4961680000000 1.0
C      1  0.5977930000000  0.4833370000000  0.4972540000000 1.0
C      1  0.4884810000000  0.5303920000000  0.4530420000000 1.0
C      1  0.4532720000000  0.5255230000000  0.6058260000000 1.0
C      1  0.4918850000000  0.5726100000000  0.4272630000000 1.0
C      1  0.4952440000000  0.4945420000000  0.5104250000000 1.0
C      1  0.4725350000000  0.5154120000000  0.5160940000000 1.0
C      1  0.4953630000000  0.4921390000000  0.3979730000000 1.0
C      1  0.4410550000000  0.5982590000000  0.4978770000000 1.0
C      1  0.5405540000000  0.4657190000000  0.4360800000000 1.0
C      1  0.4472750000000  0.4398070000000  0.5425180000000 1.0
C      1  0.4766550000000  0.5461060000000  0.4183060000000 1.0
C      1  0.4860840000000  0.4387440000000  0.5252400000000 1.0
C      1  0.5398840000000  0.5838990000000  0.4690360000000 1.0
C      1  0.4300830000000  0.5237790000000  0.5490090000000 1.0
C      1  0.5998850000000  0.5065710000000  0.4767000000000 1.0
C      1  0.4327000000000  0.5275670000000  0.5022890000000 1.0
C      1  0.5040210000000  0.5154090000000  0.4897910000000 1.0
C      1  0.5322030000000  0.5395070000000  0.4749390000000 1.0
C      1  0.4187930000000  0.4579340000000  0.5373450000000 1.0
C      1  0.4612550000000  0.4424680000000  0.5713610000000 1.0
C      1  0.5395610000000  0.4818180000000  0.4969090000000 1.0
C      1  0.4660860000000  0.6272300000000  0.5086120000000 1.0
C      1  0.5079320000000  0.4493590000000  0.5937840000000 1.0
C      1  0.4315670000000  0.5850160000000  0.5510410000000 1.0
C      1  0.4609000000000  0.4159350000000  0.5231250000000 1.0
C      1  0.4786450000000  0.3897670000000  0.5103940000000 1.0
C      1  0.5697750000000  0.4822730000000  0.5104400000000 1.0
C      1  0.4740180000000  0.5689320000000  0.4667810000000 1.0
C      1  0.5124810000000  0.5501930000000  0.4527940000000 1.0
C      1  0.5683580000000  0.4925700000000  0.4718650000000 1.0
C      1  0.5600150000000  0.4513600000000  0.5127020000000 1.0
C      1  0.4276870000000  0.5430980000000  0.5287190000000 1.0
C      1  0.5624720000000  0.4391700000000  0.4563380000000 1.0
C      1  0.5184340000000  0.4522750000000  0.4808830000000 1.0
END
