TITL C-2778435-5768-1487 -0.00231928263131682 125000 -888.090607426417 0 0 155 (C1) n - 1
REM
REM in /home/nfs/bkarasulu/CARBON/AIRSS/Generating-Clusters/REBO/Only-C1/SD-CG/HFTN-CG
REM
REM
REM
REM
REM
REM ./C.cell (11c1c37f851c82e70ff6c80c92926a4b)
REM
REM compiler GCC version 9.2.1 20190827 (Red Hat 9.2.1-1)
REM options -cpp -mtune=generic -march=x86-64 -g -O0 -fpre-include=/usr/include/finclude/math-vector-fortran.h
REM seed -184227050 -1704175136 -291300931 -590471293 -780224849 955536947 -1723199206 525193838 893480519 1616244071 -2099200122 196730521 1210532912 -858591978 -712225654 541045906 -660330955 1641781871 -375893973 -345820647 -295025586 534700018 -1054815486 -1775917886 -1840853301 1173389574 367672117 526224803 1366664342 1282314163 -2109166020 -478897815 -527215078
REM
CELL 1.54180   50.00000   50.00000   50.00000   90.00000   90.00000   90.00000
LATT -1
SFAC C  
C      1  0.4206510000000  0.4848010000000  0.5438180000000 1.0
C      1  0.4344910000000  0.5352130000000  0.4309770000000 1.0
C      1  0.5546950000000  0.4909680000000  0.5938500000000 1.0
C      1  0.5195810000000  0.4475140000000  0.5020540000000 1.0
C      1  0.5361510000000  0.4165920000000  0.5503620000000 1.0
C      1  0.5596340000000  0.5700960000000  0.4458630000000 1.0
C      1  0.4794180000000  0.4910960000000  0.4811450000000 1.0
C      1  0.5325440000000  0.5696120000000  0.4344110000000 1.0
C      1  0.5290870000000  0.5195660000000  0.4401730000000 1.0
C      1  0.4045150000000  0.5110420000000  0.4840770000000 1.0
C      1  0.4539290000000  0.5181010000000  0.5883140000000 1.0
C      1  0.5833900000000  0.5142310000000  0.5335660000000 1.0
C      1  0.5584060000000  0.5223710000000  0.4494890000000 1.0
C      1  0.4159580000000  0.5455910000000  0.5402890000000 1.0
C      1  0.4914090000000  0.4356340000000  0.4870170000000 1.0
C      1  0.4979110000000  0.5718410000000  0.5631340000000 1.0
C      1  0.4120340000000  0.4339560000000  0.5095270000000 1.0
C      1  0.5022980000000  0.4206380000000  0.5493580000000 1.0
C      1  0.4584580000000  0.5963290000000  0.5135120000000 1.0
C      1  0.5899050000000  0.4822450000000  0.5565000000000 1.0
C      1  0.4013360000000  0.4778880000000  0.4773830000000 1.0
C      1  0.4569110000000  0.4950440000000  0.4254590000000 1.0
C      1  0.4427350000000  0.5290410000000  0.5519210000000 1.0
C      1  0.4664450000000  0.4624900000000  0.4567640000000 1.0
C      1  0.4409510000000  0.4935100000000  0.5188650000000 1.0
C      1  0.5328720000000  0.5403780000000  0.5376220000000 1.0
C      1  0.4772630000000  0.4994740000000  0.5947790000000 1.0
C      1  0.4648570000000  0.4232240000000  0.5610440000000 1.0
C      1  0.4381420000000  0.4557990000000  0.5081470000000 1.0
C      1  0.5436020000000  0.5360170000000  0.5759030000000 1.0
C      1  0.4967890000000  0.4563400000000  0.4495180000000 1.0
C      1  0.5856660000000  0.5139290000000  0.5657830000000 1.0
C      1  0.4620260000000  0.5355990000000  0.4609910000000 1.0
C      1  0.5710150000000  0.4590110000000  0.4506090000000 1.0
C      1  0.4522340000000  0.4707740000000  0.4837520000000 1.0
C      1  0.5382640000000  0.5965690000000  0.4902690000000 1.0
C      1  0.4325420000000  0.5229540000000  0.4688990000000 1.0
C      1  0.4941280000000  0.4942950000000  0.4112150000000 1.0
C      1  0.5289370000000  0.4440930000000  0.4250960000000 1.0
C      1  0.5281680000000  0.5493190000000  0.4136520000000 1.0
C      1  0.5549100000000  0.5556040000000  0.5505080000000 1.0
C      1  0.4860740000000  0.5867390000000  0.4594860000000 1.0
C      1  0.5554790000000  0.5069970000000  0.5236840000000 1.0
C      1  0.4787510000000  0.4924350000000  0.4478930000000 1.0
C      1  0.4664750000000  0.4129750000000  0.4657940000000 1.0
C      1  0.5166500000000  0.5249820000000  0.5829350000000 1.0
C      1  0.5693300000000  0.5842030000000  0.5116260000000 1.0
C      1  0.4654870000000  0.5579520000000  0.5313020000000 1.0
C      1  0.6013250000000  0.4703520000000  0.4258750000000 1.0
C      1  0.5394350000000  0.4489680000000  0.4559710000000 1.0
C      1  0.5897000000000  0.5394180000000  0.5189940000000 1.0
C      1  0.5967020000000  0.4809060000000  0.4551180000000 1.0
C      1  0.4678870000000  0.4448250000000  0.5098300000000 1.0
C      1  0.4785100000000  0.4433370000000  0.5404410000000 1.0
C      1  0.5446650000000  0.4789720000000  0.5099030000000 1.0
C      1  0.5263230000000  0.5691190000000  0.4812570000000 1.0
C      1  0.4895590000000  0.4034030000000  0.4889150000000 1.0
C      1  0.4810490000000  0.4639990000000  0.4198570000000 1.0
C      1  0.5056620000000  0.4975500000000  0.5909020000000 1.0
C      1  0.4904900000000  0.5452160000000  0.5751450000000 1.0
C      1  0.4890250000000  0.5444310000000  0.4478850000000 1.0
C      1  0.6047110000000  0.4794210000000  0.5018930000000 1.0
C      1  0.5786180000000  0.4420380000000  0.5308300000000 1.0
C      1  0.4923800000000  0.5959650000000  0.5168740000000 1.0
C      1  0.4430090000000  0.4310930000000  0.4493970000000 1.0
C      1  0.5183180000000  0.4279050000000  0.4672170000000 1.0
C      1  0.4575720000000  0.5481540000000  0.5743040000000 1.0
C      1  0.4018800000000  0.5002270000000  0.5224680000000 1.0
C      1  0.5685970000000  0.4975920000000  0.4607310000000 1.0
C      1  0.4204610000000  0.4572030000000  0.5563390000000 1.0
C      1  0.5646210000000  0.5179070000000  0.5841760000000 1.0
C      1  0.4954860000000  0.5639520000000  0.5056140000000 1.0
C      1  0.5074870000000  0.3955100000000  0.5079780000000 1.0
C      1  0.5687490000000  0.4656840000000  0.5771440000000 1.0
C      1  0.4601930000000  0.5184440000000  0.5284930000000 1.0
C      1  0.5900420000000  0.5338970000000  0.4910500000000 1.0
C      1  0.5768660000000  0.4703370000000  0.4881910000000 1.0
C      1  0.5647060000000  0.5797110000000  0.4781010000000 1.0
C      1  0.4916530000000  0.4225370000000  0.4493240000000 1.0
C      1  0.5052380000000  0.4992510000000  0.5478060000000 1.0
C      1  0.5337610000000  0.4949890000000  0.4091230000000 1.0
C      1  0.4745270000000  0.5778960000000  0.4861100000000 1.0
C      1  0.5681250000000  0.4236900000000  0.5500360000000 1.0
C      1  0.5182060000000  0.5872980000000  0.5734720000000 1.0
C      1  0.4421490000000  0.4130220000000  0.5465510000000 1.0
C      1  0.5195960000000  0.5235910000000  0.4019620000000 1.0
C      1  0.5117870000000  0.4210860000000  0.4260910000000 1.0
C      1  0.5267590000000  0.4123120000000  0.5191500000000 1.0
C      1  0.5335110000000  0.5162430000000  0.5006360000000 1.0
C      1  0.4088690000000  0.4732950000000  0.5075030000000 1.0
C      1  0.4412700000000  0.5214050000000  0.4997260000000 1.0
C      1  0.5336940000000  0.4036790000000  0.4789330000000 1.0
C      1  0.4393960000000  0.5966940000000  0.4881130000000 1.0
C      1  0.4044640000000  0.5312390000000  0.5115310000000 1.0
C      1  0.5808880000000  0.4652270000000  0.4120800000000 1.0
C      1  0.4525030000000  0.5573770000000  0.4825980000000 1.0
C      1  0.5108370000000  0.4640950000000  0.5866850000000 1.0
C      1  0.4344860000000  0.5014490000000  0.5660450000000 1.0
C      1  0.5245210000000  0.5480680000000  0.5079330000000 1.0
C      1  0.5934860000000  0.4469140000000  0.5037990000000 1.0
C      1  0.5959550000000  0.5041360000000  0.4800740000000 1.0
C      1  0.5753270000000  0.5624140000000  0.5295630000000 1.0
C      1  0.4292030000000  0.4833210000000  0.4326500000000 1.0
C      1  0.4919020000000  0.4365550000000  0.5775130000000 1.0
C      1  0.5074890000000  0.4667030000000  0.5549780000000 1.0
C      1  0.5178330000000  0.4458110000000  0.5338480000000 1.0
C      1  0.6056270000000  0.4909430000000  0.5289450000000 1.0
C      1  0.4136850000000  0.4456800000000  0.4783480000000 1.0
C      1  0.5180430000000  0.6100860000000  0.5133590000000 1.0
C      1  0.4194830000000  0.5535740000000  0.4902920000000 1.0
C      1  0.5469750000000  0.4288980000000  0.4945550000000 1.0
C      1  0.4761830000000  0.4722130000000  0.5520900000000 1.0
C      1  0.5514650000000  0.4696550000000  0.4239760000000 1.0
C      1  0.4850690000000  0.5223090000000  0.4805590000000 1.0
C      1  0.4867500000000  0.5234030000000  0.3989980000000 1.0
C      1  0.5688770000000  0.5482690000000  0.4780570000000 1.0
C      1  0.4390160000000  0.5503460000000  0.5175240000000 1.0
C      1  0.5156310000000  0.4857640000000  0.5209850000000 1.0
C      1  0.4284420000000  0.5858050000000  0.4684750000000 1.0
C      1  0.3970840000000  0.5149470000000  0.4522400000000 1.0
C      1  0.5653310000000  0.4702320000000  0.5355850000000 1.0
C      1  0.4706070000000  0.6005570000000  0.4418760000000 1.0
C      1  0.4254030000000  0.5544470000000  0.4561450000000 1.0
C      1  0.4362300000000  0.4590210000000  0.5792930000000 1.0
C      1  0.4596980000000  0.4807340000000  0.5757890000000 1.0
C      1  0.4275180000000  0.4702080000000  0.4602480000000 1.0
C      1  0.4194490000000  0.4337510000000  0.5415850000000 1.0
C      1  0.4868980000000  0.5349770000000  0.5068690000000 1.0
C      1  0.5733240000000  0.5469230000000  0.4384620000000 1.0
C      1  0.5495390000000  0.6058080000000  0.5211350000000 1.0
C      1  0.5418420000000  0.5329150000000  0.4753480000000 1.0
C      1  0.5329560000000  0.5107820000000  0.5468840000000 1.0
C      1  0.5582540000000  0.4381700000000  0.5751960000000 1.0
C      1  0.5705840000000  0.4398910000000  0.4792750000000 1.0
C      1  0.5509290000000  0.4894130000000  0.5597260000000 1.0
C      1  0.4171400000000  0.5120280000000  0.4336000000000 1.0
C      1  0.4437880000000  0.5901690000000  0.5403600000000 1.0
C      1  0.5119050000000  0.4946570000000  0.4906510000000 1.0
C      1  0.5262230000000  0.4350270000000  0.5776600000000 1.0
C      1  0.4375780000000  0.4214850000000  0.4817320000000 1.0
C      1  0.5114630000000  0.5407210000000  0.4689740000000 1.0
C      1  0.4723980000000  0.4877370000000  0.5261160000000 1.0
C      1  0.4577570000000  0.5335720000000  0.4148100000000 1.0
C      1  0.5089520000000  0.5011110000000  0.4398450000000 1.0
C      1  0.5455200000000  0.4768820000000  0.4756340000000 1.0
C      1  0.4493950000000  0.4560960000000  0.4298810000000 1.0
C      1  0.4861800000000  0.5164130000000  0.5586900000000 1.0
C      1  0.5138620000000  0.4674080000000  0.4111920000000 1.0
C      1  0.5121230000000  0.5775610000000  0.4538960000000 1.0
C      1  0.4372280000000  0.4114340000000  0.5142330000000 1.0
C      1  0.4824810000000  0.5769700000000  0.5408380000000 1.0
C      1  0.4361900000000  0.5679240000000  0.5564130000000 1.0
C      1  0.5137980000000  0.4792980000000  0.4619760000000 1.0
C      1  0.4587780000000  0.5062010000000  0.3974340000000 1.0
C      1  0.4923850000000  0.4666820000000  0.5111920000000 1.0
END
