TITL C-2778428-5639-204 -0.00213564165551649 125000 -532.244758597783 0 0 93 (C1) n - 1
REM
REM in /home/nfs/bkarasulu/CARBON/AIRSS/Generating-Clusters/REBO/Only-C1/SD-CG/HFTN-CG
REM
REM
REM
REM
REM
REM ./C.cell (11c1c37f851c82e70ff6c80c92926a4b)
REM
REM compiler GCC version 9.2.1 20190827 (Red Hat 9.2.1-1)
REM options -cpp -mtune=generic -march=x86-64 -g -O0 -fpre-include=/usr/include/finclude/math-vector-fortran.h
REM seed -45722961 -1428978355 1928064168 762997795 1533228479 1756640649 524592917 -290799180 1842779942 -595292563 -656879210 -750116412 2059784255 -2077117000 -904137535 226178181 1186295849 1561304525 -2139291278 1964466675 -130321291 -574636856 1997946881 1250701172 -905756345 -1338449319 -1553775255 -358441180 427600016 -2041855033 -2105796073 1753313411 489351179
REM
CELL 1.54180   50.00000   50.00000   50.00000   90.00000   90.00000   90.00000
LATT -1
SFAC C  
C      1  0.4389830000000  0.5355010000000  0.5021900000000 1.0
C      1  0.4624280000000  0.4951830000000  0.5563020000000 1.0
C      1  0.4945080000000  0.5030090000000  0.5914630000000 1.0
C      1  0.5064440000000  0.4555870000000  0.4182800000000 1.0
C      1  0.4412000000000  0.5412610000000  0.4626910000000 1.0
C      1  0.5080140000000  0.5554930000000  0.4235740000000 1.0
C      1  0.4697610000000  0.4922280000000  0.5860040000000 1.0
C      1  0.4777970000000  0.4319900000000  0.5367310000000 1.0
C      1  0.5757390000000  0.5233770000000  0.5184010000000 1.0
C      1  0.4364880000000  0.5678170000000  0.5070100000000 1.0
C      1  0.5281520000000  0.5111480000000  0.4233040000000 1.0
C      1  0.4750550000000  0.4963710000000  0.4519270000000 1.0
C      1  0.5515190000000  0.5653430000000  0.5436320000000 1.0
C      1  0.4685580000000  0.5293050000000  0.4515660000000 1.0
C      1  0.5306810000000  0.5545740000000  0.4415040000000 1.0
C      1  0.4662710000000  0.5816670000000  0.4698610000000 1.0
C      1  0.5629130000000  0.4744790000000  0.5507550000000 1.0
C      1  0.4151230000000  0.5247550000000  0.5328250000000 1.0
C      1  0.5404740000000  0.4918830000000  0.4681880000000 1.0
C      1  0.5395910000000  0.4944320000000  0.5011300000000 1.0
C      1  0.4169200000000  0.5525420000000  0.5304000000000 1.0
C      1  0.4798720000000  0.5392910000000  0.4249730000000 1.0
C      1  0.5072200000000  0.4401370000000  0.5405180000000 1.0
C      1  0.5391430000000  0.4411830000000  0.4518150000000 1.0
C      1  0.5093570000000  0.4491430000000  0.4969500000000 1.0
C      1  0.5069440000000  0.5129900000000  0.5657830000000 1.0
C      1  0.5137630000000  0.4242050000000  0.4776040000000 1.0
C      1  0.5876050000000  0.4976860000000  0.5179150000000 1.0
C      1  0.5883390000000  0.5341010000000  0.4658860000000 1.0
C      1  0.5562640000000  0.5167890000000  0.5751790000000 1.0
C      1  0.4684840000000  0.5789500000000  0.5100840000000 1.0
C      1  0.5825060000000  0.4454120000000  0.5032960000000 1.0
C      1  0.4876940000000  0.5562790000000  0.5234330000000 1.0
C      1  0.4577500000000  0.4925250000000  0.4877420000000 1.0
C      1  0.4867920000000  0.5396430000000  0.4742280000000 1.0
C      1  0.5463550000000  0.5228270000000  0.5054650000000 1.0
C      1  0.5393200000000  0.4866260000000  0.4346170000000 1.0
C      1  0.5390910000000  0.4615940000000  0.4979530000000 1.0
C      1  0.5520610000000  0.4515440000000  0.5279780000000 1.0
C      1  0.4881180000000  0.4562480000000  0.4716030000000 1.0
C      1  0.4185390000000  0.4934610000000  0.4806870000000 1.0
C      1  0.5013050000000  0.5675400000000  0.5591100000000 1.0
C      1  0.4207630000000  0.4792020000000  0.5049820000000 1.0
C      1  0.4380540000000  0.4502730000000  0.5086940000000 1.0
C      1  0.5547520000000  0.4257700000000  0.5057160000000 1.0
C      1  0.5214530000000  0.5697100000000  0.4971770000000 1.0
C      1  0.4418480000000  0.4943250000000  0.4577330000000 1.0
C      1  0.5324320000000  0.5311290000000  0.5704340000000 1.0
C      1  0.4913730000000  0.5695480000000  0.4859110000000 1.0
C      1  0.5067970000000  0.5257070000000  0.4117270000000 1.0
C      1  0.4617080000000  0.5251280000000  0.5473420000000 1.0
C      1  0.4446310000000  0.4790260000000  0.5386490000000 1.0
C      1  0.5371050000000  0.4810190000000  0.5322970000000 1.0
C      1  0.4467270000000  0.4757710000000  0.4329970000000 1.0
C      1  0.4953600000000  0.4881350000000  0.4751760000000 1.0
C      1  0.4923520000000  0.5874510000000  0.5335600000000 1.0
C      1  0.5126400000000  0.5258780000000  0.4730260000000 1.0
C      1  0.5518220000000  0.5567760000000  0.4930740000000 1.0
C      1  0.4907970000000  0.4660780000000  0.5150080000000 1.0
C      1  0.5557600000000  0.4556530000000  0.4754350000000 1.0
C      1  0.5101230000000  0.4717080000000  0.5408850000000 1.0
C      1  0.4473620000000  0.4483160000000  0.4417360000000 1.0
C      1  0.5431490000000  0.4180330000000  0.4766710000000 1.0
C      1  0.5189210000000  0.5922180000000  0.5163770000000 1.0
C      1  0.4911230000000  0.4972840000000  0.5399540000000 1.0
C      1  0.4608860000000  0.4747230000000  0.5097150000000 1.0
C      1  0.5073620000000  0.5335430000000  0.5393780000000 1.0
C      1  0.4932850000000  0.4977790000000  0.5056300000000 1.0
C      1  0.4926270000000  0.4163450000000  0.5124060000000 1.0
C      1  0.4883710000000  0.5282800000000  0.5047150000000 1.0
C      1  0.5248700000000  0.4222080000000  0.5216860000000 1.0
C      1  0.5883910000000  0.4712160000000  0.5106390000000 1.0
C      1  0.4432750000000  0.5672320000000  0.4747640000000 1.0
C      1  0.4909740000000  0.4186210000000  0.4586680000000 1.0
C      1  0.5627470000000  0.5382230000000  0.4707820000000 1.0
C      1  0.4763790000000  0.4149930000000  0.4879040000000 1.0
C      1  0.4592000000000  0.5260900000000  0.5188170000000 1.0
C      1  0.4792030000000  0.4698790000000  0.4308320000000 1.0
C      1  0.5213330000000  0.5389670000000  0.5109830000000 1.0
C      1  0.5389450000000  0.5234260000000  0.4538310000000 1.0
C      1  0.5689870000000  0.4934340000000  0.5686470000000 1.0
C      1  0.4539400000000  0.4465530000000  0.5371170000000 1.0
C      1  0.5655400000000  0.5534630000000  0.5218260000000 1.0
C      1  0.5297430000000  0.5583840000000  0.5611170000000 1.0
C      1  0.5331020000000  0.4597660000000  0.4265300000000 1.0
C      1  0.5194780000000  0.4669880000000  0.4631070000000 1.0
C      1  0.4877950000000  0.4370250000000  0.4366280000000 1.0
C      1  0.4812310000000  0.5430380000000  0.5602710000000 1.0
C      1  0.4245520000000  0.5228460000000  0.4795410000000 1.0
C      1  0.5072610000000  0.5051170000000  0.6157420000000 1.0
C      1  0.4491980000000  0.4302430000000  0.4885990000000 1.0
C      1  0.4197440000000  0.4968960000000  0.5293640000000 1.0
C      1  0.4613940000000  0.4444650000000  0.4656460000000 1.0
END
