TITL C-2778431-5191-4 0.00945899562824727 125000 -1116.46130560748 0 0 190 (C1) n - 1
REM
REM in /home/nfs/bkarasulu/CARBON/AIRSS/Generating-Clusters/REBO/Only-C1/SD-CG/HFTN-CG
REM
REM
REM
REM
REM
REM ./C.cell (11c1c37f851c82e70ff6c80c92926a4b)
REM
REM compiler GCC version 9.2.1 20190827 (Red Hat 9.2.1-1)
REM options -cpp -mtune=generic -march=x86-64 -g -O0 -fpre-include=/usr/include/finclude/math-vector-fortran.h
REM seed 1441974349 1022165706 1587153769 -1447714000 -855690447 1142592598 873972403 1699214882 -406363846 -1830668368 855462504 -172002130 -1017688834 269806376 795308154 620227559 823777417 674023248 1844530538 -147469589 1781466743 1492607418 -1652388337 2042317599 1346020917 157402810 1567133192 1993586994 -1105804901 -241175410 -701125505 -1772378391 -1684460658
REM
CELL 1.54180   50.00000   50.00000   50.00000   90.00000   90.00000   90.00000
LATT -1
SFAC C  
C      1  0.4492120000000  0.4326150000000  0.4147840000000 1.0
C      1  0.5094660000000  0.4428770000000  0.3871620000000 1.0
C      1  0.5114810000000  0.4115430000000  0.5111150000000 1.0
C      1  0.5132350000000  0.5499910000000  0.4059020000000 1.0
C      1  0.4741480000000  0.4918330000000  0.5386260000000 1.0
C      1  0.5806660000000  0.4403170000000  0.4855560000000 1.0
C      1  0.4493860000000  0.4219620000000  0.5535850000000 1.0
C      1  0.4539290000000  0.6124890000000  0.5727080000000 1.0
C      1  0.4239670000000  0.4338000000000  0.5581480000000 1.0
C      1  0.4861330000000  0.5450320000000  0.5369610000000 1.0
C      1  0.5940380000000  0.5296620000000  0.5496220000000 1.0
C      1  0.5646460000000  0.5019480000000  0.4137850000000 1.0
C      1  0.5765620000000  0.5404290000000  0.5838440000000 1.0
C      1  0.5371120000000  0.5793520000000  0.5581220000000 1.0
C      1  0.4698210000000  0.4982300000000  0.5064750000000 1.0
C      1  0.5821200000000  0.4793680000000  0.5781140000000 1.0
C      1  0.4522170000000  0.5477530000000  0.5169930000000 1.0
C      1  0.5602070000000  0.4015540000000  0.4808290000000 1.0
C      1  0.5376950000000  0.4408600000000  0.5832680000000 1.0
C      1  0.5836920000000  0.4510600000000  0.5706520000000 1.0
C      1  0.5236600000000  0.5482980000000  0.4879080000000 1.0
C      1  0.5298410000000  0.4733990000000  0.4410670000000 1.0
C      1  0.5283260000000  0.5089220000000  0.5987750000000 1.0
C      1  0.4732970000000  0.4588930000000  0.5393160000000 1.0
C      1  0.3979000000000  0.4636140000000  0.4925860000000 1.0
C      1  0.4948270000000  0.5321580000000  0.5735950000000 1.0
C      1  0.4057910000000  0.5457940000000  0.4944600000000 1.0
C      1  0.4170130000000  0.5676780000000  0.5259400000000 1.0
C      1  0.4450990000000  0.5599700000000  0.4788670000000 1.0
C      1  0.4240250000000  0.4931830000000  0.4604730000000 1.0
C      1  0.4624690000000  0.6002940000000  0.4564050000000 1.0
C      1  0.4119770000000  0.4512210000000  0.4438180000000 1.0
C      1  0.5410670000000  0.5263060000000  0.5539030000000 1.0
C      1  0.4938670000000  0.6078020000000  0.5455870000000 1.0
C      1  0.5953440000000  0.5627040000000  0.5094800000000 1.0
C      1  0.6106580000000  0.4570930000000  0.5056860000000 1.0
C      1  0.5704390000000  0.5492010000000  0.4346960000000 1.0
C      1  0.4529500000000  0.5740220000000  0.4278030000000 1.0
C      1  0.4789110000000  0.3829200000000  0.5287750000000 1.0
C      1  0.4362480000000  0.5805420000000  0.4555540000000 1.0
C      1  0.4646000000000  0.5674660000000  0.5513140000000 1.0
C      1  0.4111290000000  0.4728830000000  0.5213020000000 1.0
C      1  0.4042480000000  0.5052470000000  0.5292260000000 1.0
C      1  0.4515610000000  0.4272310000000  0.4419990000000 1.0
C      1  0.4650530000000  0.3982600000000  0.5087860000000 1.0
C      1  0.5812450000000  0.5309170000000  0.4107900000000 1.0
C      1  0.4465810000000  0.5561160000000  0.5753540000000 1.0
C      1  0.5005620000000  0.5170800000000  0.5234920000000 1.0
C      1  0.4866910000000  0.5007310000000  0.4350630000000 1.0
C      1  0.4411890000000  0.5834790000000  0.5352430000000 1.0
C      1  0.5179260000000  0.5938470000000  0.5344200000000 1.0
C      1  0.5149140000000  0.4863230000000  0.5169480000000 1.0
C      1  0.5714220000000  0.4703210000000  0.4915390000000 1.0
C      1  0.4366950000000  0.5160180000000  0.5771450000000 1.0
C      1  0.4792400000000  0.4449430000000  0.4862960000000 1.0
C      1  0.4047040000000  0.4357790000000  0.5078370000000 1.0
C      1  0.4889930000000  0.3876420000000  0.4604130000000 1.0
C      1  0.4547600000000  0.4800450000000  0.4669100000000 1.0
C      1  0.4397950000000  0.5102240000000  0.4115620000000 1.0
C      1  0.3945280000000  0.5370580000000  0.4633510000000 1.0
C      1  0.5161830000000  0.4215500000000  0.5816590000000 1.0
C      1  0.5769530000000  0.5343490000000  0.5139200000000 1.0
C      1  0.4494760000000  0.6009390000000  0.5116270000000 1.0
C      1  0.6023260000000  0.5016700000000  0.5319080000000 1.0
C      1  0.5553580000000  0.5470780000000  0.4794060000000 1.0
C      1  0.4699070000000  0.5457780000000  0.4224230000000 1.0
C      1  0.4617530000000  0.4960170000000  0.3982160000000 1.0
C      1  0.4223310000000  0.5593030000000  0.4246880000000 1.0
C      1  0.4985320000000  0.4253130000000  0.4126420000000 1.0
C      1  0.5383640000000  0.4685870000000  0.4996280000000 1.0
C      1  0.4738960000000  0.4430320000000  0.4539270000000 1.0
C      1  0.5119770000000  0.3725720000000  0.4686900000000 1.0
C      1  0.4706270000000  0.4107880000000  0.5689170000000 1.0
C      1  0.4942780000000  0.4638360000000  0.5840470000000 1.0
C      1  0.5069050000000  0.4644360000000  0.4601900000000 1.0
C      1  0.5529630000000  0.4888610000000  0.5285600000000 1.0
C      1  0.4387070000000  0.4526410000000  0.5204000000000 1.0
C      1  0.5504830000000  0.4557540000000  0.4276020000000 1.0
C      1  0.5336890000000  0.3879530000000  0.4771140000000 1.0
C      1  0.5886820000000  0.4751660000000  0.4430060000000 1.0
C      1  0.5070750000000  0.5724870000000  0.5746080000000 1.0
C      1  0.5072150000000  0.5881530000000  0.4264400000000 1.0
C      1  0.4658040000000  0.5296030000000  0.5676220000000 1.0
C      1  0.4703190000000  0.4730510000000  0.4396370000000 1.0
C      1  0.4550180000000  0.4642990000000  0.4038250000000 1.0
C      1  0.5687010000000  0.5786430000000  0.5473220000000 1.0
C      1  0.4272650000000  0.5805370000000  0.4981260000000 1.0
C      1  0.4714400000000  0.5981220000000  0.5568340000000 1.0
C      1  0.4964590000000  0.5096360000000  0.4905560000000 1.0
C      1  0.5964770000000  0.4860250000000  0.5059390000000 1.0
C      1  0.4949530000000  0.4037220000000  0.4382760000000 1.0
C      1  0.5235120000000  0.4177810000000  0.4337430000000 1.0
C      1  0.4457310000000  0.5015040000000  0.5478470000000 1.0
C      1  0.4516800000000  0.5304920000000  0.4914320000000 1.0
C      1  0.5293950000000  0.4120280000000  0.5346880000000 1.0
C      1  0.4973180000000  0.5666210000000  0.4798810000000 1.0
C      1  0.5440510000000  0.4947840000000  0.4559270000000 1.0
C      1  0.4036020000000  0.4697870000000  0.4658360000000 1.0
C      1  0.4269620000000  0.4372020000000  0.4855580000000 1.0
C      1  0.5325720000000  0.6008790000000  0.4840770000000 1.0
C      1  0.4882170000000  0.5390340000000  0.3999440000000 1.0
C      1  0.4393510000000  0.5019710000000  0.4962130000000 1.0
C      1  0.4873180000000  0.4837060000000  0.4738670000000 1.0
C      1  0.5655830000000  0.5163880000000  0.5368860000000 1.0
C      1  0.4064300000000  0.4314870000000  0.5356550000000 1.0
C      1  0.4375990000000  0.4683100000000  0.4916740000000 1.0
C      1  0.5452100000000  0.5086220000000  0.5034270000000 1.0
C      1  0.5810210000000  0.5868880000000  0.5209570000000 1.0
C      1  0.6115800000000  0.5417250000000  0.4956030000000 1.0
C      1  0.5159350000000  0.5411810000000  0.5514050000000 1.0
C      1  0.4262630000000  0.4652080000000  0.4220780000000 1.0
C      1  0.4827030000000  0.5956780000000  0.4742330000000 1.0
C      1  0.5015060000000  0.5031650000000  0.5845280000000 1.0
C      1  0.5161300000000  0.5850270000000  0.5014920000000 1.0
C      1  0.4828050000000  0.5860120000000  0.4250680000000 1.0
C      1  0.5814720000000  0.4467270000000  0.5419590000000 1.0
C      1  0.4454990000000  0.4753170000000  0.5931080000000 1.0
C      1  0.5499640000000  0.5926550000000  0.4610040000000 1.0
C      1  0.5021290000000  0.4991480000000  0.5524070000000 1.0
C      1  0.4703360000000  0.3936310000000  0.4813260000000 1.0
C      1  0.5475450000000  0.4371240000000  0.4938380000000 1.0
C      1  0.4796470000000  0.5386060000000  0.6100210000000 1.0
C      1  0.5354230000000  0.5348580000000  0.5170850000000 1.0
C      1  0.5339430000000  0.4415220000000  0.5321450000000 1.0
C      1  0.5130260000000  0.4997540000000  0.3902240000000 1.0
C      1  0.5534630000000  0.4891990000000  0.5891920000000 1.0
C      1  0.4756430000000  0.5925730000000  0.5030670000000 1.0
C      1  0.4747040000000  0.5463350000000  0.4728730000000 1.0
C      1  0.5664340000000  0.5186350000000  0.4787110000000 1.0
C      1  0.4439810000000  0.5340410000000  0.5422100000000 1.0
C      1  0.5351670000000  0.4680240000000  0.5746480000000 1.0
C      1  0.5375520000000  0.5183560000000  0.4048860000000 1.0
C      1  0.5682470000000  0.5836090000000  0.4889580000000 1.0
C      1  0.4740780000000  0.4671480000000  0.5076640000000 1.0
C      1  0.5039350000000  0.4330750000000  0.4667340000000 1.0
C      1  0.4865630000000  0.5111940000000  0.3923500000000 1.0
C      1  0.5948890000000  0.4981170000000  0.5626620000000 1.0
C      1  0.5199800000000  0.5625830000000  0.5262290000000 1.0
C      1  0.4873760000000  0.4307200000000  0.5147960000000 1.0
C      1  0.5242950000000  0.4187930000000  0.4836010000000 1.0
C      1  0.5927570000000  0.4314510000000  0.5164300000000 1.0
C      1  0.5727530000000  0.4825990000000  0.4640140000000 1.0
C      1  0.4274860000000  0.4305320000000  0.4572020000000 1.0
C      1  0.4920320000000  0.4517020000000  0.5622750000000 1.0
C      1  0.5844220000000  0.5586520000000  0.5609940000000 1.0
C      1  0.5664490000000  0.4121470000000  0.5089320000000 1.0
C      1  0.4047590000000  0.4814130000000  0.5537900000000 1.0
C      1  0.4079250000000  0.5728350000000  0.4732260000000 1.0
C      1  0.4162400000000  0.5175610000000  0.4784820000000 1.0
C      1  0.4560220000000  0.4263820000000  0.5229810000000 1.0
C      1  0.5466660000000  0.5509230000000  0.4112450000000 1.0
C      1  0.4253300000000  0.4935820000000  0.4290840000000 1.0
C      1  0.4235230000000  0.4622170000000  0.5724430000000 1.0
C      1  0.5334540000000  0.5360130000000  0.6012260000000 1.0
C      1  0.5555860000000  0.5595890000000  0.5089270000000 1.0
C      1  0.5661360000000  0.5169330000000  0.4446680000000 1.0
C      1  0.5163000000000  0.4028370000000  0.5585710000000 1.0
C      1  0.4021420000000  0.5588680000000  0.4432710000000 1.0
C      1  0.5333230000000  0.5585670000000  0.5849200000000 1.0
C      1  0.4182660000000  0.5464030000000  0.5589520000000 1.0
C      1  0.5565660000000  0.4577230000000  0.5334420000000 1.0
C      1  0.5655170000000  0.4228900000000  0.4605960000000 1.0
C      1  0.5174890000000  0.5513970000000  0.4380480000000 1.0
C      1  0.4877600000000  0.4228390000000  0.5895660000000 1.0
C      1  0.5134990000000  0.4695760000000  0.3914970000000 1.0
C      1  0.5097740000000  0.4538640000000  0.5231550000000 1.0
C      1  0.5128800000000  0.5160640000000  0.4266190000000 1.0
C      1  0.5486790000000  0.4291100000000  0.4384270000000 1.0
C      1  0.5723900000000  0.4725540000000  0.4192510000000 1.0
C      1  0.4887970000000  0.3931600000000  0.5535020000000 1.0
C      1  0.5268050000000  0.4796660000000  0.5484910000000 1.0
C      1  0.4079540000000  0.5140830000000  0.5616220000000 1.0
C      1  0.5109830000000  0.5335660000000  0.4623110000000 1.0
C      1  0.4423340000000  0.4698490000000  0.5475870000000 1.0
C      1  0.5598700000000  0.5188650000000  0.5766780000000 1.0
C      1  0.4070330000000  0.5372570000000  0.5273630000000 1.0
C      1  0.4839050000000  0.4523590000000  0.4163620000000 1.0
C      1  0.4764710000000  0.5144160000000  0.6135130000000 1.0
C      1  0.6365420000000  0.5447070000000  0.4844520000000 1.0
C      1  0.4786930000000  0.5612470000000  0.5879930000000 1.0
C      1  0.5370640000000  0.5772320000000  0.4343670000000 1.0
C      1  0.5057900000000  0.4771740000000  0.4223240000000 1.0
C      1  0.4813800000000  0.5305470000000  0.4465660000000 1.0
C      1  0.5943750000000  0.5147810000000  0.4935430000000 1.0
C      1  0.5269180000000  0.5081930000000  0.4767330000000 1.0
C      1  0.4408130000000  0.5377860000000  0.4161880000000 1.0
C      1  0.5655870000000  0.4340820000000  0.5856800000000 1.0
C      1  0.5685300000000  0.5660440000000  0.4589690000000 1.0
C      1  0.4752950000000  0.4860400000000  0.5979970000000 1.0
C      1  0.4775720000000  0.5663000000000  0.5141140000000 1.0
END
