TITL C-2778433-5640-1366 0.00222653452828342 125000 -283.742919500126 0 0 50 (C1) n - 1
REM
REM in /home/nfs/bkarasulu/CARBON/AIRSS/Generating-Clusters/REBO/Only-C1/SD-CG/HFTN-CG
REM
REM
REM
REM
REM
REM ./C.cell (11c1c37f851c82e70ff6c80c92926a4b)
REM
REM compiler GCC version 9.2.1 20190827 (Red Hat 9.2.1-1)
REM options -cpp -mtune=generic -march=x86-64 -g -O0 -fpre-include=/usr/include/finclude/math-vector-fortran.h
REM seed 2114805480 382344002 -704910103 -1988068643 -510206284 -1138629065 1483470053 958090223 -1481440199 -23521523 1679287645 819676252 611525213 171134405 -285218764 490870326 -139285569 1740906683 -87864744 666247328 1349698568 266719270 -2097157914 1159918727 -1750633719 -454377209 851168541 2120433412 -1604259399 875742957 377251758 1644643621 218058571
REM
CELL 1.54180   50.00000   50.00000   50.00000   90.00000   90.00000   90.00000
LATT -1
SFAC C  
C      1  0.5014700000000  0.5101600000000  0.5096110000000 1.0
C      1  0.5058740000000  0.5285040000000  0.5582500000000 1.0
C      1  0.5383780000000  0.5584860000000  0.5005950000000 1.0
C      1  0.5506860000000  0.4664260000000  0.4646560000000 1.0
C      1  0.4316010000000  0.4864130000000  0.5109170000000 1.0
C      1  0.4952370000000  0.4471510000000  0.5502500000000 1.0
C      1  0.4619520000000  0.5354030000000  0.4757120000000 1.0
C      1  0.5155940000000  0.5435260000000  0.4424150000000 1.0
C      1  0.4326300000000  0.5032570000000  0.5341660000000 1.0
C      1  0.4687570000000  0.5387280000000  0.5345120000000 1.0
C      1  0.5198800000000  0.5176130000000  0.4386430000000 1.0
C      1  0.5701810000000  0.4894110000000  0.4821060000000 1.0
C      1  0.5506610000000  0.4993810000000  0.4562750000000 1.0
C      1  0.5194160000000  0.4871090000000  0.4507910000000 1.0
C      1  0.4643380000000  0.4639830000000  0.4740330000000 1.0
C      1  0.4884750000000  0.4838020000000  0.5799670000000 1.0
C      1  0.4535140000000  0.5179960000000  0.5478290000000 1.0
C      1  0.5077940000000  0.4837760000000  0.4898410000000 1.0
C      1  0.5291790000000  0.5201900000000  0.4953360000000 1.0
C      1  0.5045480000000  0.5614410000000  0.4982390000000 1.0
C      1  0.4693270000000  0.5021800000000  0.5132370000000 1.0
C      1  0.4786320000000  0.4482800000000  0.5000260000000 1.0
C      1  0.5250470000000  0.4325580000000  0.5117910000000 1.0
C      1  0.4893830000000  0.5407710000000  0.5163600000000 1.0
C      1  0.4534820000000  0.5217350000000  0.4511750000000 1.0
C      1  0.5484310000000  0.5325170000000  0.5171080000000 1.0
C      1  0.5254510000000  0.4842980000000  0.5503380000000 1.0
C      1  0.4804510000000  0.5563590000000  0.4750180000000 1.0
C      1  0.5125470000000  0.5077590000000  0.5410640000000 1.0
C      1  0.5594380000000  0.5006840000000  0.5123690000000 1.0
C      1  0.5200610000000  0.4583900000000  0.4693990000000 1.0
C      1  0.5180420000000  0.5672400000000  0.4674760000000 1.0
C      1  0.4491280000000  0.4656030000000  0.5034040000000 1.0
C      1  0.5429220000000  0.5252430000000  0.4703990000000 1.0
C      1  0.4587050000000  0.4882580000000  0.4515190000000 1.0
C      1  0.5647980000000  0.4580440000000  0.4942740000000 1.0
C      1  0.4912190000000  0.5635620000000  0.4475150000000 1.0
C      1  0.5475260000000  0.5541480000000  0.4700630000000 1.0
C      1  0.4669750000000  0.4827850000000  0.5347960000000 1.0
C      1  0.4769280000000  0.4564740000000  0.5304620000000 1.0
C      1  0.4516490000000  0.5181560000000  0.4973440000000 1.0
C      1  0.5482870000000  0.4451230000000  0.5190110000000 1.0
C      1  0.4692520000000  0.4961580000000  0.5632840000000 1.0
C      1  0.5080200000000  0.4678060000000  0.5659060000000 1.0
C      1  0.5366140000000  0.4780720000000  0.5000170000000 1.0
C      1  0.4291420000000  0.5019990000000  0.4582500000000 1.0
C      1  0.5071980000000  0.4411270000000  0.4927830000000 1.0
C      1  0.4250870000000  0.5039170000000  0.4869910000000 1.0
C      1  0.4890410000000  0.4822270000000  0.4623890000000 1.0
C      1  0.5470550000000  0.4757710000000  0.5320870000000 1.0
END
