TITL C-2778432-5617-713 0.0811035024202559 125000 -463.61643337078 0 0 82 (C1) n - 1
REM
REM in /home/nfs/bkarasulu/CARBON/AIRSS/Generating-Clusters/REBO/Only-C1/SD-CG/HFTN-CG
REM
REM
REM
REM
REM
REM ./C.cell (11c1c37f851c82e70ff6c80c92926a4b)
REM
REM compiler GCC version 9.2.1 20190827 (Red Hat 9.2.1-1)
REM options -cpp -mtune=generic -march=x86-64 -g -O0 -fpre-include=/usr/include/finclude/math-vector-fortran.h
REM seed 654449181 1075953473 1622065765 1146314155 -848795022 -595730533 -1249957742 -772457729 -525462995 -1795595607 -533128351 703828682 1772236095 -1223915477 -2082825608 822736629 1537172945 2044803100 -194168923 1466817287 -1880110237 -1328157486 -1614185485 279483064 -1860751596 237329633 115525810 -80385129 165741509 -1368880592 -1209151567 -390411892 -1282375189
REM
CELL 1.54180   50.00000   50.00000   50.00000   90.00000   90.00000   90.00000
LATT -1
SFAC C  
C      1  0.4646890000000  0.4819870000000  0.5324170000000 1.0
C      1  0.4732120000000  0.4731160000000  0.5644230000000 1.0
C      1  0.5624070000000  0.4957410000000  0.4849550000000 1.0
C      1  0.4229630000000  0.5307350000000  0.4800790000000 1.0
C      1  0.5364950000000  0.4998450000000  0.5300460000000 1.0
C      1  0.5044020000000  0.5535410000000  0.5539620000000 1.0
C      1  0.4250610000000  0.5022900000000  0.4996670000000 1.0
C      1  0.5216750000000  0.4635440000000  0.5491490000000 1.0
C      1  0.5117890000000  0.5819780000000  0.5061330000000 1.0
C      1  0.5526290000000  0.4763150000000  0.5579260000000 1.0
C      1  0.5160960000000  0.4593110000000  0.4703300000000 1.0
C      1  0.5838220000000  0.5379610000000  0.4935540000000 1.0
C      1  0.4642980000000  0.5265220000000  0.4229660000000 1.0
C      1  0.5851120000000  0.4720050000000  0.4824440000000 1.0
C      1  0.5741050000000  0.5314840000000  0.5184210000000 1.0
C      1  0.4302230000000  0.4729480000000  0.4834190000000 1.0
C      1  0.5158770000000  0.5029820000000  0.4297230000000 1.0
C      1  0.5009980000000  0.5228800000000  0.4735020000000 1.0
C      1  0.4538330000000  0.4506420000000  0.5545390000000 1.0
C      1  0.4398860000000  0.5393570000000  0.5353130000000 1.0
C      1  0.5005650000000  0.5751270000000  0.5316880000000 1.0
C      1  0.4415740000000  0.5293420000000  0.5070120000000 1.0
C      1  0.5285120000000  0.5311160000000  0.5530600000000 1.0
C      1  0.4590610000000  0.4636100000000  0.4397290000000 1.0
C      1  0.4418500000000  0.5562190000000  0.4722810000000 1.0
C      1  0.4906000000000  0.5385390000000  0.5193280000000 1.0
C      1  0.4613750000000  0.5102650000000  0.5433290000000 1.0
C      1  0.5392170000000  0.4520830000000  0.5027330000000 1.0
C      1  0.4938030000000  0.5510740000000  0.4339640000000 1.0
C      1  0.4904560000000  0.4718150000000  0.4860140000000 1.0
C      1  0.4387480000000  0.4575990000000  0.4619770000000 1.0
C      1  0.4819850000000  0.5035840000000  0.5766360000000 1.0
C      1  0.5790200000000  0.4893730000000  0.5510330000000 1.0
C      1  0.5171550000000  0.4536690000000  0.4366920000000 1.0
C      1  0.4600790000000  0.4350200000000  0.4670130000000 1.0
C      1  0.5238940000000  0.5887500000000  0.4765610000000 1.0
C      1  0.4885560000000  0.4794820000000  0.4468120000000 1.0
C      1  0.4618600000000  0.5499340000000  0.4456250000000 1.0
C      1  0.4748860000000  0.5529800000000  0.5708400000000 1.0
C      1  0.5105000000000  0.5678690000000  0.4529460000000 1.0
C      1  0.4967510000000  0.4716640000000  0.5276720000000 1.0
C      1  0.4612860000000  0.4324960000000  0.5278270000000 1.0
C      1  0.4720290000000  0.5740300000000  0.5145950000000 1.0
C      1  0.5303270000000  0.4996760000000  0.5635350000000 1.0
C      1  0.6242310000000  0.4555800000000  0.4519270000000 1.0
C      1  0.5078020000000  0.4868580000000  0.5784940000000 1.0
C      1  0.5332830000000  0.4852800000000  0.4812860000000 1.0
C      1  0.5241530000000  0.4002650000000  0.4720740000000 1.0
C      1  0.4763490000000  0.4176840000000  0.5520220000000 1.0
C      1  0.5180190000000  0.4243370000000  0.4518470000000 1.0
C      1  0.4775680000000  0.4993460000000  0.4810290000000 1.0
C      1  0.4794760000000  0.4530880000000  0.5091030000000 1.0
C      1  0.4920370000000  0.4263760000000  0.5695100000000 1.0
C      1  0.5186610000000  0.5426590000000  0.5059590000000 1.0
C      1  0.5697200000000  0.5232230000000  0.4736330000000 1.0
C      1  0.4638520000000  0.4290030000000  0.4943460000000 1.0
C      1  0.4371010000000  0.5225710000000  0.5627950000000 1.0
C      1  0.5223390000000  0.4800350000000  0.5126310000000 1.0
C      1  0.5055110000000  0.5286730000000  0.4229440000000 1.0
C      1  0.5275240000000  0.4319920000000  0.4838820000000 1.0
C      1  0.4435290000000  0.4770570000000  0.5124400000000 1.0
C      1  0.5489110000000  0.4539480000000  0.5341960000000 1.0
C      1  0.4676290000000  0.5011200000000  0.4321150000000 1.0
C      1  0.5681330000000  0.4983330000000  0.5200720000000 1.0
C      1  0.5119470000000  0.4976920000000  0.4606820000000 1.0
C      1  0.4544620000000  0.5706950000000  0.4925780000000 1.0
C      1  0.4624050000000  0.5277650000000  0.5794650000000 1.0
C      1  0.4926290000000  0.5753610000000  0.4803920000000 1.0
C      1  0.5004570000000  0.4556630000000  0.5714700000000 1.0
C      1  0.4673230000000  0.5543710000000  0.5393770000000 1.0
C      1  0.4862760000000  0.4451750000000  0.4478360000000 1.0
C      1  0.5416140000000  0.5318170000000  0.5234150000000 1.0
C      1  0.4807220000000  0.5480660000000  0.4726610000000 1.0
C      1  0.4898140000000  0.5229770000000  0.5495570000000 1.0
C      1  0.6046150000000  0.4638170000000  0.4672300000000 1.0
C      1  0.4702520000000  0.5279560000000  0.4979770000000 1.0
C      1  0.4554090000000  0.4979340000000  0.4591060000000 1.0
C      1  0.5212000000000  0.4781940000000  0.4185820000000 1.0
C      1  0.5496020000000  0.5367740000000  0.4617250000000 1.0
C      1  0.4295340000000  0.5064320000000  0.4603580000000 1.0
C      1  0.5692530000000  0.4651190000000  0.5095240000000 1.0
C      1  0.5229960000000  0.5462620000000  0.4738900000000 1.0
END
