TITL C-2778432-5617-347 0.000174341425129835 125000 -698.775197270753 0 0 119 (C1) n - 1
REM
REM in /home/nfs/bkarasulu/CARBON/AIRSS/Generating-Clusters/REBO/Only-C1/SD-CG/HFTN-CG
REM
REM
REM
REM
REM
REM ./C.cell (11c1c37f851c82e70ff6c80c92926a4b)
REM
REM compiler GCC version 9.2.1 20190827 (Red Hat 9.2.1-1)
REM options -cpp -mtune=generic -march=x86-64 -g -O0 -fpre-include=/usr/include/finclude/math-vector-fortran.h
REM seed 552320990 1402430000 1056735102 -904514467 -2114116075 -1228819121 -856414432 -672877177 1897766895 -1853895252 -205194909 1095336300 18946375 731051090 -2121487464 745336126 27306616 723472811 -2142183987 -1274518502 -824797795 847070601 -260209285 -2013302373 -1129739903 -1930209028 471412560 -42593039 -1150614371 -1716520856 -93416829 897278651 -474986570
REM
CELL 1.54180   50.00000   50.00000   50.00000   90.00000   90.00000   90.00000
LATT -1
SFAC C  
C      1  0.4637970000000  0.5595390000000  0.5566150000000 1.0
C      1  0.5187810000000  0.5607060000000  0.4417160000000 1.0
C      1  0.5212690000000  0.3991100000000  0.5007710000000 1.0
C      1  0.5033500000000  0.5849330000000  0.4529050000000 1.0
C      1  0.5651130000000  0.4713200000000  0.4746940000000 1.0
C      1  0.4622410000000  0.4307490000000  0.5760310000000 1.0
C      1  0.4347050000000  0.5169350000000  0.5503620000000 1.0
C      1  0.4897520000000  0.4068690000000  0.5471150000000 1.0
C      1  0.5655220000000  0.4801420000000  0.4432400000000 1.0
C      1  0.4727800000000  0.4066360000000  0.5691100000000 1.0
C      1  0.4647060000000  0.5256940000000  0.4850740000000 1.0
C      1  0.4033260000000  0.5290260000000  0.4669100000000 1.0
C      1  0.4141520000000  0.4881820000000  0.5044020000000 1.0
C      1  0.5234890000000  0.5163910000000  0.4257070000000 1.0
C      1  0.5261920000000  0.5164680000000  0.4672100000000 1.0
C      1  0.5221660000000  0.5945700000000  0.4755510000000 1.0
C      1  0.5911440000000  0.4838180000000  0.4865350000000 1.0
C      1  0.5020160000000  0.4559020000000  0.5536850000000 1.0
C      1  0.4952740000000  0.5766010000000  0.5141810000000 1.0
C      1  0.4793560000000  0.5492360000000  0.4111480000000 1.0
C      1  0.5439010000000  0.4131970000000  0.5507630000000 1.0
C      1  0.5090380000000  0.4625170000000  0.4899730000000 1.0
C      1  0.4439030000000  0.5069280000000  0.4140910000000 1.0
C      1  0.5933570000000  0.4961690000000  0.5114590000000 1.0
C      1  0.4620140000000  0.4386140000000  0.4783670000000 1.0
C      1  0.5059470000000  0.4806680000000  0.5347250000000 1.0
C      1  0.5088180000000  0.5095550000000  0.6001870000000 1.0
C      1  0.5684300000000  0.5440810000000  0.4689250000000 1.0
C      1  0.5074940000000  0.5344890000000  0.4574300000000 1.0
C      1  0.4173850000000  0.5547110000000  0.4778110000000 1.0
C      1  0.4469000000000  0.4849890000000  0.5099640000000 1.0
C      1  0.5342010000000  0.5426400000000  0.5172840000000 1.0
C      1  0.4493890000000  0.4590340000000  0.4361620000000 1.0
C      1  0.5414000000000  0.4696840000000  0.4942520000000 1.0
C      1  0.5112370000000  0.5663410000000  0.5398670000000 1.0
C      1  0.4340960000000  0.5492570000000  0.5579410000000 1.0
C      1  0.4938160000000  0.4857450000000  0.5931120000000 1.0
C      1  0.4684960000000  0.4435660000000  0.4496930000000 1.0
C      1  0.4583610000000  0.5129520000000  0.5735670000000 1.0
C      1  0.5325050000000  0.4886060000000  0.4106970000000 1.0
C      1  0.4667520000000  0.4884260000000  0.5842850000000 1.0
C      1  0.4764920000000  0.5397530000000  0.4614470000000 1.0
C      1  0.5421700000000  0.4259970000000  0.4471920000000 1.0
C      1  0.5482470000000  0.4694170000000  0.4224260000000 1.0
C      1  0.4575970000000  0.4575370000000  0.5045840000000 1.0
C      1  0.4646970000000  0.5866360000000  0.5434480000000 1.0
C      1  0.4575450000000  0.3990010000000  0.5046570000000 1.0
C      1  0.4574210000000  0.5010180000000  0.5333490000000 1.0
C      1  0.5459070000000  0.4757750000000  0.5444910000000 1.0
C      1  0.5275270000000  0.4977110000000  0.4941990000000 1.0
C      1  0.4256400000000  0.5448020000000  0.4462070000000 1.0
C      1  0.5735060000000  0.5245270000000  0.5493960000000 1.0
C      1  0.5951430000000  0.5327430000000  0.5634660000000 1.0
C      1  0.5121030000000  0.4680950000000  0.5794080000000 1.0
C      1  0.5338040000000  0.5635510000000  0.5652730000000 1.0
C      1  0.4841610000000  0.5252440000000  0.5082160000000 1.0
C      1  0.4445980000000  0.5038820000000  0.4843090000000 1.0
C      1  0.4233470000000  0.4648230000000  0.5824870000000 1.0
C      1  0.5289820000000  0.5038840000000  0.5441300000000 1.0
C      1  0.4749890000000  0.5692930000000  0.4640770000000 1.0
C      1  0.5118010000000  0.5329480000000  0.5415710000000 1.0
C      1  0.5712160000000  0.4281370000000  0.4928270000000 1.0
C      1  0.4217220000000  0.5411630000000  0.5299320000000 1.0
C      1  0.5457530000000  0.5785990000000  0.4771090000000 1.0
C      1  0.5241340000000  0.4036100000000  0.5278760000000 1.0
C      1  0.4587450000000  0.4842670000000  0.4233630000000 1.0
C      1  0.5496430000000  0.5180570000000  0.5079290000000 1.0
C      1  0.4233720000000  0.5129610000000  0.4366930000000 1.0
C      1  0.5378960000000  0.5056210000000  0.5911460000000 1.0
C      1  0.5137910000000  0.4280270000000  0.5495910000000 1.0
C      1  0.4201550000000  0.5541250000000  0.5056010000000 1.0
C      1  0.4740290000000  0.5365380000000  0.5766830000000 1.0
C      1  0.5147910000000  0.4240610000000  0.4551690000000 1.0
C      1  0.4362610000000  0.4913220000000  0.4556760000000 1.0
C      1  0.4101130000000  0.5066130000000  0.4816090000000 1.0
C      1  0.4982290000000  0.4972350000000  0.5059650000000 1.0
C      1  0.5083610000000  0.4908290000000  0.4424890000000 1.0
C      1  0.5535140000000  0.5686070000000  0.5084270000000 1.0
C      1  0.5546220000000  0.5210060000000  0.4766440000000 1.0
C      1  0.5499100000000  0.5607690000000  0.4488020000000 1.0
C      1  0.4485380000000  0.4106950000000  0.4837970000000 1.0
C      1  0.4893380000000  0.5073650000000  0.5434760000000 1.0
C      1  0.4664980000000  0.4449630000000  0.5260610000000 1.0
C      1  0.5094210000000  0.6008530000000  0.4988840000000 1.0
C      1  0.5745250000000  0.5126240000000  0.5239030000000 1.0
C      1  0.4019800000000  0.4486990000000  0.4595750000000 1.0
C      1  0.5464800000000  0.4413920000000  0.4236470000000 1.0
C      1  0.5711760000000  0.5125700000000  0.4412610000000 1.0
C      1  0.5048230000000  0.5476510000000  0.5053770000000 1.0
C      1  0.4958690000000  0.4418970000000  0.4421500000000 1.0
C      1  0.4703560000000  0.4923130000000  0.4547890000000 1.0
C      1  0.4761260000000  0.6032480000000  0.4621610000000 1.0
C      1  0.5471480000000  0.5255640000000  0.5583460000000 1.0
C      1  0.4780740000000  0.4164250000000  0.5203940000000 1.0
C      1  0.5384350000000  0.4805400000000  0.5751210000000 1.0
C      1  0.5690270000000  0.4220830000000  0.5422830000000 1.0
C      1  0.4712060000000  0.4530750000000  0.5541120000000 1.0
C      1  0.4981140000000  0.5355160000000  0.5900930000000 1.0
C      1  0.4506560000000  0.4626730000000  0.5783450000000 1.0
C      1  0.5779380000000  0.5589850000000  0.4901130000000 1.0
C      1  0.5053040000000  0.5424660000000  0.4185920000000 1.0
C      1  0.4720590000000  0.5881360000000  0.4923990000000 1.0
C      1  0.5429040000000  0.5765760000000  0.5364270000000 1.0
C      1  0.4881150000000  0.5075850000000  0.4097050000000 1.0
C      1  0.4616700000000  0.5969810000000  0.5211460000000 1.0
C      1  0.5305710000000  0.5383230000000  0.5831240000000 1.0
C      1  0.4950540000000  0.4869980000000  0.4735470000000 1.0
C      1  0.5921740000000  0.4954110000000  0.4583540000000 1.0
C      1  0.5093190000000  0.4159270000000  0.4816490000000 1.0
C      1  0.5528630000000  0.4619040000000  0.5216090000000 1.0
C      1  0.4687870000000  0.5333520000000  0.5371880000000 1.0
C      1  0.4907270000000  0.4364160000000  0.4955230000000 1.0
C      1  0.5498830000000  0.5298970000000  0.4364990000000 1.0
C      1  0.4234910000000  0.4627270000000  0.4510130000000 1.0
C      1  0.5063340000000  0.4657410000000  0.4303070000000 1.0
C      1  0.5615090000000  0.4235810000000  0.4678800000000 1.0
C      1  0.4507340000000  0.5388360000000  0.4246550000000 1.0
C      1  0.5688620000000  0.4385680000000  0.5191990000000 1.0
C      1  0.4754060000000  0.5182660000000  0.4359140000000 1.0
END
