TITL C-2778436-5916-1483 0.0075478394437867 125000 -802.502671859532 0 0 140 (C1) n - 1
REM
REM in /home/nfs/bkarasulu/CARBON/AIRSS/Generating-Clusters/REBO/Only-C1/SD-CG/HFTN-CG
REM
REM
REM
REM
REM
REM ./C.cell (11c1c37f851c82e70ff6c80c92926a4b)
REM
REM compiler GCC version 9.2.1 20190827 (Red Hat 9.2.1-1)
REM options -cpp -mtune=generic -march=x86-64 -g -O0 -fpre-include=/usr/include/finclude/math-vector-fortran.h
REM seed 2132786570 -1143320825 -1566203445 -1222766854 -231429632 338084677 1672784058 -1186454999 -276462489 1860705032 978492468 -322960832 338514509 -1800732602 -1974822231 1884635964 632730083 85945231 -651184801 335833272 -753058520 -1987470444 -1711397698 -367669684 414176449 2132359135 1599799619 1194362774 1455280827 1570167815 -621116584 2127096608 2035194193
REM
CELL 1.54180   50.00000   50.00000   50.00000   90.00000   90.00000   90.00000
LATT -1
SFAC C  
C      1  0.4746630000000  0.6089500000000  0.5272510000000 1.0
C      1  0.4055800000000  0.5146850000000  0.5435530000000 1.0
C      1  0.5331140000000  0.5631130000000  0.5369200000000 1.0
C      1  0.5299310000000  0.5831480000000  0.4732670000000 1.0
C      1  0.3983870000000  0.4667010000000  0.4538550000000 1.0
C      1  0.5187950000000  0.5077230000000  0.4220300000000 1.0
C      1  0.4700160000000  0.5066450000000  0.5071400000000 1.0
C      1  0.5442880000000  0.5753260000000  0.4508520000000 1.0
C      1  0.4624670000000  0.4668030000000  0.4792530000000 1.0
C      1  0.4848320000000  0.5986340000000  0.4829260000000 1.0
C      1  0.4442360000000  0.5212250000000  0.5743830000000 1.0
C      1  0.5397640000000  0.5232210000000  0.4940600000000 1.0
C      1  0.4802880000000  0.5018230000000  0.4127640000000 1.0
C      1  0.5076780000000  0.5511230000000  0.4292150000000 1.0
C      1  0.4257250000000  0.5155390000000  0.5199650000000 1.0
C      1  0.4577980000000  0.5576000000000  0.4396270000000 1.0
C      1  0.4646010000000  0.5194750000000  0.4776380000000 1.0
C      1  0.5240300000000  0.4551650000000  0.5000270000000 1.0
C      1  0.5555240000000  0.5695500000000  0.5593650000000 1.0
C      1  0.4348720000000  0.5328580000000  0.4351900000000 1.0
C      1  0.5239380000000  0.4488450000000  0.4623880000000 1.0
C      1  0.4573280000000  0.4507180000000  0.4508800000000 1.0
C      1  0.4827020000000  0.4632140000000  0.4228660000000 1.0
C      1  0.5258790000000  0.3998870000000  0.5068330000000 1.0
C      1  0.5244180000000  0.4222800000000  0.5400010000000 1.0
C      1  0.5978050000000  0.5258660000000  0.5478100000000 1.0
C      1  0.5664160000000  0.4551660000000  0.4337720000000 1.0
C      1  0.4740570000000  0.5298860000000  0.4308500000000 1.0
C      1  0.5027740000000  0.4954560000000  0.4803670000000 1.0
C      1  0.5621210000000  0.5019740000000  0.5721890000000 1.0
C      1  0.5018230000000  0.4295390000000  0.4752510000000 1.0
C      1  0.5362260000000  0.5043010000000  0.5548730000000 1.0
C      1  0.4908370000000  0.4538190000000  0.4546030000000 1.0
C      1  0.4653910000000  0.5626020000000  0.5105130000000 1.0
C      1  0.4923500000000  0.4710800000000  0.5729990000000 1.0
C      1  0.4888800000000  0.5261750000000  0.4595700000000 1.0
C      1  0.3947100000000  0.4818790000000  0.5234910000000 1.0
C      1  0.4906100000000  0.4732250000000  0.5200320000000 1.0
C      1  0.4466010000000  0.4458870000000  0.5477290000000 1.0
C      1  0.4243840000000  0.4339210000000  0.4835420000000 1.0
C      1  0.4938270000000  0.4096620000000  0.4501020000000 1.0
C      1  0.5787860000000  0.4552070000000  0.5212600000000 1.0
C      1  0.5024090000000  0.4151790000000  0.5609130000000 1.0
C      1  0.4845490000000  0.4229670000000  0.4995990000000 1.0
C      1  0.5624660000000  0.5490420000000  0.5780760000000 1.0
C      1  0.4635870000000  0.4455360000000  0.5028820000000 1.0
C      1  0.6046370000000  0.5221160000000  0.5223890000000 1.0
C      1  0.4837370000000  0.4942800000000  0.5937960000000 1.0
C      1  0.5421930000000  0.4284260000000  0.5049590000000 1.0
C      1  0.5026360000000  0.5881460000000  0.5468050000000 1.0
C      1  0.4451390000000  0.4880320000000  0.5210530000000 1.0
C      1  0.5233130000000  0.4533400000000  0.5313980000000 1.0
C      1  0.4896150000000  0.5636040000000  0.4455010000000 1.0
C      1  0.5511930000000  0.4353330000000  0.4531320000000 1.0
C      1  0.5511290000000  0.4983360000000  0.4285420000000 1.0
C      1  0.4164120000000  0.5196480000000  0.4921060000000 1.0
C      1  0.5564080000000  0.4790690000000  0.5918740000000 1.0
C      1  0.4988770000000  0.5208950000000  0.4978080000000 1.0
C      1  0.4510590000000  0.5455780000000  0.4874010000000 1.0
C      1  0.4989450000000  0.5298500000000  0.4075490000000 1.0
C      1  0.5305960000000  0.5016280000000  0.5135010000000 1.0
C      1  0.4220730000000  0.4935100000000  0.4716210000000 1.0
C      1  0.4930710000000  0.5544450000000  0.4972470000000 1.0
C      1  0.4869650000000  0.5172650000000  0.5452420000000 1.0
C      1  0.5537860000000  0.4854500000000  0.4855960000000 1.0
C      1  0.4526600000000  0.4932050000000  0.4643640000000 1.0
C      1  0.4176160000000  0.5784840000000  0.5162780000000 1.0
C      1  0.4339570000000  0.4885480000000  0.5776210000000 1.0
C      1  0.5905460000000  0.4836230000000  0.4710310000000 1.0
C      1  0.4773580000000  0.3998030000000  0.5455180000000 1.0
C      1  0.5201920000000  0.4284880000000  0.4266500000000 1.0
C      1  0.5506170000000  0.4604490000000  0.5486210000000 1.0
C      1  0.5507360000000  0.4578880000000  0.5791170000000 1.0
C      1  0.5102070000000  0.5391540000000  0.5212530000000 1.0
C      1  0.5314310000000  0.4817210000000  0.4059010000000 1.0
C      1  0.5045780000000  0.5595060000000  0.5603520000000 1.0
C      1  0.5009000000000  0.5325750000000  0.5691160000000 1.0
C      1  0.4895100000000  0.4738060000000  0.4923420000000 1.0
C      1  0.4440730000000  0.5694200000000  0.4650950000000 1.0
C      1  0.5863150000000  0.5486700000000  0.4439980000000 1.0
C      1  0.5226910000000  0.5268650000000  0.4648700000000 1.0
C      1  0.4190080000000  0.5244200000000  0.4577800000000 1.0
C      1  0.5280340000000  0.4099110000000  0.4523800000000 1.0
C      1  0.5993360000000  0.5097500000000  0.4911180000000 1.0
C      1  0.4545390000000  0.5537770000000  0.5729140000000 1.0
C      1  0.4446010000000  0.4113880000000  0.4975550000000 1.0
C      1  0.4692060000000  0.4067560000000  0.4737410000000 1.0
C      1  0.5692730000000  0.4314860000000  0.4781550000000 1.0
C      1  0.5953350000000  0.4705870000000  0.5422350000000 1.0
C      1  0.5734050000000  0.5635270000000  0.4969650000000 1.0
C      1  0.5878220000000  0.4884150000000  0.5576610000000 1.0
C      1  0.4123560000000  0.4647800000000  0.4304020000000 1.0
C      1  0.5176610000000  0.5263200000000  0.5898810000000 1.0
C      1  0.5001620000000  0.5742540000000  0.4730560000000 1.0
C      1  0.4722860000000  0.4307900000000  0.5586640000000 1.0
C      1  0.4955430000000  0.6073740000000  0.5080510000000 1.0
C      1  0.4839210000000  0.4545100000000  0.5377480000000 1.0
C      1  0.5639030000000  0.5585520000000  0.4325970000000 1.0
C      1  0.5764550000000  0.4819410000000  0.4442600000000 1.0
C      1  0.4567150000000  0.5246660000000  0.5314070000000 1.0
C      1  0.5342890000000  0.5461750000000  0.4416550000000 1.0
C      1  0.4138510000000  0.4623360000000  0.4819890000000 1.0
C      1  0.5435720000000  0.5802250000000  0.5000980000000 1.0
C      1  0.4650460000000  0.5842550000000  0.5342450000000 1.0
C      1  0.4454950000000  0.4255680000000  0.4619310000000 1.0
C      1  0.4607450000000  0.4868950000000  0.4343930000000 1.0
C      1  0.4990460000000  0.4072890000000  0.5219140000000 1.0
C      1  0.4416770000000  0.4359680000000  0.5211140000000 1.0
C      1  0.4391950000000  0.4636450000000  0.4279360000000 1.0
C      1  0.5222830000000  0.5919620000000  0.5213100000000 1.0
C      1  0.4167090000000  0.4781520000000  0.5090540000000 1.0
C      1  0.5788700000000  0.5277850000000  0.5684270000000 1.0
C      1  0.5012050000000  0.4983040000000  0.4473570000000 1.0
C      1  0.4613320000000  0.4707090000000  0.5873430000000 1.0
C      1  0.5469150000000  0.5486260000000  0.5087880000000 1.0
C      1  0.5682200000000  0.5149070000000  0.4813480000000 1.0
C      1  0.5567920000000  0.4317060000000  0.5325610000000 1.0
C      1  0.4502040000000  0.4771640000000  0.5497070000000 1.0
C      1  0.4412020000000  0.5837060000000  0.5022610000000 1.0
C      1  0.4192100000000  0.5504460000000  0.4785130000000 1.0
C      1  0.4083500000000  0.5042730000000  0.5661550000000 1.0
C      1  0.5308610000000  0.5281870000000  0.5432970000000 1.0
C      1  0.5388280000000  0.4983090000000  0.4603950000000 1.0
C      1  0.5052150000000  0.4987450000000  0.5304200000000 1.0
C      1  0.5149140000000  0.4775950000000  0.5527930000000 1.0
C      1  0.5455100000000  0.4067050000000  0.4799160000000 1.0
C      1  0.5230530000000  0.4748980000000  0.4443570000000 1.0
C      1  0.4565730000000  0.5961710000000  0.4787890000000 1.0
C      1  0.4999680000000  0.4793810000000  0.4010910000000 1.0
C      1  0.4348390000000  0.5412810000000  0.5494090000000 1.0
C      1  0.4749760000000  0.5731660000000  0.5613610000000 1.0
C      1  0.4151560000000  0.5594050000000  0.5355230000000 1.0
C      1  0.6016640000000  0.5446600000000  0.4998050000000 1.0
C      1  0.4685260000000  0.5020740000000  0.5643140000000 1.0
C      1  0.5361960000000  0.4543520000000  0.4215470000000 1.0
C      1  0.4897430000000  0.4299340000000  0.4230070000000 1.0
C      1  0.5414160000000  0.5394540000000  0.5951540000000 1.0
C      1  0.5525210000000  0.4772100000000  0.5185830000000 1.0
C      1  0.5837500000000  0.5416800000000  0.4729620000000 1.0
C      1  0.5758890000000  0.4597180000000  0.4902890000000 1.0
END
