TITL C-2778422-5617-854 0.000592323144796248 125000 -970.523255105768 0 0 168 (C1) n - 1
REM
REM in /home/nfs/bkarasulu/CARBON/AIRSS/Generating-Clusters/REBO/Only-C1/SD-CG/HFTN-CG
REM
REM
REM
REM
REM
REM ./C.cell (11c1c37f851c82e70ff6c80c92926a4b)
REM
REM compiler GCC version 9.2.1 20190827 (Red Hat 9.2.1-1)
REM options -cpp -mtune=generic -march=x86-64 -g -O0 -fpre-include=/usr/include/finclude/math-vector-fortran.h
REM seed -1887649036 -2117396756 -1515250183 -516538593 480397240 -1155350593 -1279767981 329628154 -761509134 -1645143006 992805812 2005823626 220390440 -1985363991 -1175195664 1012618902 -600614064 927719929 48494072 362597300 925826608 1095218348 -296151302 -1234069304 1501918924 -459269128 830792 1645791290 -385838506 -768862725 -75767943 544572352 1892497763
REM
CELL 1.54180   50.00000   50.00000   50.00000   90.00000   90.00000   90.00000
LATT -1
SFAC C  
C      1  0.5304400000000  0.5869040000000  0.4371360000000 1.0
C      1  0.5054540000000  0.5493920000000  0.5207280000000 1.0
C      1  0.4691910000000  0.5015070000000  0.6081220000000 1.0
C      1  0.4695990000000  0.5331600000000  0.5990060000000 1.0
C      1  0.4286570000000  0.5124980000000  0.4194740000000 1.0
C      1  0.6040610000000  0.4653890000000  0.4903760000000 1.0
C      1  0.3921420000000  0.4882900000000  0.5130100000000 1.0
C      1  0.5797280000000  0.5365670000000  0.5100080000000 1.0
C      1  0.5451320000000  0.5098030000000  0.5332530000000 1.0
C      1  0.5134480000000  0.4205510000000  0.5216100000000 1.0
C      1  0.5512880000000  0.5957480000000  0.4759860000000 1.0
C      1  0.5216310000000  0.4197250000000  0.5719210000000 1.0
C      1  0.5728490000000  0.4896620000000  0.4878620000000 1.0
C      1  0.5220250000000  0.4529700000000  0.5505960000000 1.0
C      1  0.4783840000000  0.5435830000000  0.5692350000000 1.0
C      1  0.4365260000000  0.4791450000000  0.4180100000000 1.0
C      1  0.4955540000000  0.5600060000000  0.4447210000000 1.0
C      1  0.5323680000000  0.5410640000000  0.5365970000000 1.0
C      1  0.4333770000000  0.5338140000000  0.4884650000000 1.0
C      1  0.3955780000000  0.4919840000000  0.5410680000000 1.0
C      1  0.4774990000000  0.4243610000000  0.4500040000000 1.0
C      1  0.5624580000000  0.5290600000000  0.4395260000000 1.0
C      1  0.4446970000000  0.5628290000000  0.4156790000000 1.0
C      1  0.5625280000000  0.5943270000000  0.5218730000000 1.0
C      1  0.4151490000000  0.5516850000000  0.4508180000000 1.0
C      1  0.4137320000000  0.5337480000000  0.5335880000000 1.0
C      1  0.4635280000000  0.5084910000000  0.4486770000000 1.0
C      1  0.4722120000000  0.5994550000000  0.5078850000000 1.0
C      1  0.5021070000000  0.5497960000000  0.4163720000000 1.0
C      1  0.5246450000000  0.5169160000000  0.4811620000000 1.0
C      1  0.4432020000000  0.4928610000000  0.5280480000000 1.0
C      1  0.4814520000000  0.4039100000000  0.4948290000000 1.0
C      1  0.5425920000000  0.4294900000000  0.4958560000000 1.0
C      1  0.6036690000000  0.5050410000000  0.4866470000000 1.0
C      1  0.5471770000000  0.4688730000000  0.4953830000000 1.0
C      1  0.5659330000000  0.4396270000000  0.4498800000000 1.0
C      1  0.4982620000000  0.5008480000000  0.4669520000000 1.0
C      1  0.4419160000000  0.4886830000000  0.6006780000000 1.0
C      1  0.4584550000000  0.5009810000000  0.4071690000000 1.0
C      1  0.5718750000000  0.4040950000000  0.5556650000000 1.0
C      1  0.4634090000000  0.4165610000000  0.5163640000000 1.0
C      1  0.5483350000000  0.4454760000000  0.5441510000000 1.0
C      1  0.5697230000000  0.4316180000000  0.5625930000000 1.0
C      1  0.5438080000000  0.5048780000000  0.4549600000000 1.0
C      1  0.5843940000000  0.4719280000000  0.5320910000000 1.0
C      1  0.5227180000000  0.5284530000000  0.4430070000000 1.0
C      1  0.4616320000000  0.5667420000000  0.4645980000000 1.0
C      1  0.5836490000000  0.5473890000000  0.5563400000000 1.0
C      1  0.5796160000000  0.5675600000000  0.5350780000000 1.0
C      1  0.4138910000000  0.5506770000000  0.4791670000000 1.0
C      1  0.4899420000000  0.4533360000000  0.4201180000000 1.0
C      1  0.4716100000000  0.4776320000000  0.4367840000000 1.0
C      1  0.6074160000000  0.5360540000000  0.4954640000000 1.0
C      1  0.4455600000000  0.4674530000000  0.5814220000000 1.0
C      1  0.5699910000000  0.5538340000000  0.4596550000000 1.0
C      1  0.4747910000000  0.4665430000000  0.5742920000000 1.0
C      1  0.5550700000000  0.5211730000000  0.5867490000000 1.0
C      1  0.5403920000000  0.5675770000000  0.4919960000000 1.0
C      1  0.5226050000000  0.4634420000000  0.4412640000000 1.0
C      1  0.4581760000000  0.4468940000000  0.4434680000000 1.0
C      1  0.5504860000000  0.3947510000000  0.5393620000000 1.0
C      1  0.5135640000000  0.4023570000000  0.4938250000000 1.0
C      1  0.5504980000000  0.4507090000000  0.4298650000000 1.0
C      1  0.4090980000000  0.4534070000000  0.4679060000000 1.0
C      1  0.5070550000000  0.5034440000000  0.5732920000000 1.0
C      1  0.3947290000000  0.4774060000000  0.4506360000000 1.0
C      1  0.5094850000000  0.5700790000000  0.4995880000000 1.0
C      1  0.4269330000000  0.5153670000000  0.5121270000000 1.0
C      1  0.5774100000000  0.4611290000000  0.4704820000000 1.0
C      1  0.4552980000000  0.5828670000000  0.4920230000000 1.0
C      1  0.6017600000000  0.4892300000000  0.5146660000000 1.0
C      1  0.5901430000000  0.5073870000000  0.4574620000000 1.0
C      1  0.4892450000000  0.5859350000000  0.5341720000000 1.0
C      1  0.3995350000000  0.5059480000000  0.4632320000000 1.0
C      1  0.5792650000000  0.5112440000000  0.5285810000000 1.0
C      1  0.5292970000000  0.4464070000000  0.5915810000000 1.0
C      1  0.4795810000000  0.5543300000000  0.5379700000000 1.0
C      1  0.4285650000000  0.4524160000000  0.5593800000000 1.0
C      1  0.5607970000000  0.5479010000000  0.5750130000000 1.0
C      1  0.4479710000000  0.5365700000000  0.5556110000000 1.0
C      1  0.4128230000000  0.4646600000000  0.4998100000000 1.0
C      1  0.5348510000000  0.4786770000000  0.3991780000000 1.0
C      1  0.4766240000000  0.4722900000000  0.5115600000000 1.0
C      1  0.5671310000000  0.4077380000000  0.4877420000000 1.0
C      1  0.4700990000000  0.4586170000000  0.4715590000000 1.0
C      1  0.4306590000000  0.5595250000000  0.5411670000000 1.0
C      1  0.4226340000000  0.4956730000000  0.4858870000000 1.0
C      1  0.4905400000000  0.4998210000000  0.4084510000000 1.0
C      1  0.4467980000000  0.4312210000000  0.5427590000000 1.0
C      1  0.5512650000000  0.5108850000000  0.4995200000000 1.0
C      1  0.6259830000000  0.4508890000000  0.4874820000000 1.0
C      1  0.4385800000000  0.5661650000000  0.4420380000000 1.0
C      1  0.5542100000000  0.5556370000000  0.5165590000000 1.0
C      1  0.5723680000000  0.5280550000000  0.4780930000000 1.0
C      1  0.4373320000000  0.5223410000000  0.5974400000000 1.0
C      1  0.5318790000000  0.5476270000000  0.4695640000000 1.0
C      1  0.5177510000000  0.4741240000000  0.5016150000000 1.0
C      1  0.5167560000000  0.5005390000000  0.5167680000000 1.0
C      1  0.4406070000000  0.4348080000000  0.5036030000000 1.0
C      1  0.5132960000000  0.6005520000000  0.4863880000000 1.0
C      1  0.4486680000000  0.4851390000000  0.4686650000000 1.0
C      1  0.4718970000000  0.4062880000000  0.4692030000000 1.0
C      1  0.5064150000000  0.4341300000000  0.4435560000000 1.0
C      1  0.5101920000000  0.5468170000000  0.5622060000000 1.0
C      1  0.5346900000000  0.4908290000000  0.5645290000000 1.0
C      1  0.4225370000000  0.4294350000000  0.4835770000000 1.0
C      1  0.4610030000000  0.6028960000000  0.5380360000000 1.0
C      1  0.4633860000000  0.5118050000000  0.5416680000000 1.0
C      1  0.4828040000000  0.5318580000000  0.4066610000000 1.0
C      1  0.5183670000000  0.4399370000000  0.4812780000000 1.0
C      1  0.4511120000000  0.5344810000000  0.4064890000000 1.0
C      1  0.5145040000000  0.4814080000000  0.5408060000000 1.0
C      1  0.5142340000000  0.4624330000000  0.4022390000000 1.0
C      1  0.4760000000000  0.4940220000000  0.4890540000000 1.0
C      1  0.5422800000000  0.5631950000000  0.4423120000000 1.0
C      1  0.4021330000000  0.4401930000000  0.5183360000000 1.0
C      1  0.4845550000000  0.4711910000000  0.5446460000000 1.0
C      1  0.5623670000000  0.5362540000000  0.4075510000000 1.0
C      1  0.5757830000000  0.5781080000000  0.4766300000000 1.0
C      1  0.5415340000000  0.6053230000000  0.5049460000000 1.0
C      1  0.4907630000000  0.5265870000000  0.4468020000000 1.0
C      1  0.4071680000000  0.4356270000000  0.5424410000000 1.0
C      1  0.5430220000000  0.5112410000000  0.3949620000000 1.0
C      1  0.5012970000000  0.5238630000000  0.5050190000000 1.0
C      1  0.5559810000000  0.4154900000000  0.4609580000000 1.0
C      1  0.5146080000000  0.5784700000000  0.5505700000000 1.0
C      1  0.4408830000000  0.5664140000000  0.5098980000000 1.0
C      1  0.5255740000000  0.4094540000000  0.5451600000000 1.0
C      1  0.4453150000000  0.4652440000000  0.5109210000000 1.0
C      1  0.4390500000000  0.5898050000000  0.5477130000000 1.0
C      1  0.5781090000000  0.5140840000000  0.5625710000000 1.0
C      1  0.4372800000000  0.4392350000000  0.4195590000000 1.0
C      1  0.5633270000000  0.4886410000000  0.4102200000000 1.0
C      1  0.4589290000000  0.5436180000000  0.5181660000000 1.0
C      1  0.5613140000000  0.4591350000000  0.5225420000000 1.0
C      1  0.4240970000000  0.4829470000000  0.5515420000000 1.0
C      1  0.5309470000000  0.5196980000000  0.6008940000000 1.0
C      1  0.5713950000000  0.4605670000000  0.5742980000000 1.0
C      1  0.5019350000000  0.4492230000000  0.5165260000000 1.0
C      1  0.5437700000000  0.3977680000000  0.5091430000000 1.0
C      1  0.4967740000000  0.4598490000000  0.4788170000000 1.0
C      1  0.4068720000000  0.5245820000000  0.5820780000000 1.0
C      1  0.5178500000000  0.6037990000000  0.4544400000000 1.0
C      1  0.4709060000000  0.5243260000000  0.4982920000000 1.0
C      1  0.4909010000000  0.4857370000000  0.5947680000000 1.0
C      1  0.5470490000000  0.4745100000000  0.4616360000000 1.0
C      1  0.5836820000000  0.4807530000000  0.5587110000000 1.0
C      1  0.4771600000000  0.4401440000000  0.5351890000000 1.0
C      1  0.5300170000000  0.5365880000000  0.4136150000000 1.0
C      1  0.4593800000000  0.5342570000000  0.4700800000000 1.0
C      1  0.4273280000000  0.4717020000000  0.4457410000000 1.0
C      1  0.4927940000000  0.5774680000000  0.4711300000000 1.0
C      1  0.5244890000000  0.4133560000000  0.4632790000000 1.0
C      1  0.3974470000000  0.5198140000000  0.5524620000000 1.0
C      1  0.5843480000000  0.5785050000000  0.5035790000000 1.0
C      1  0.5019680000000  0.4562590000000  0.6011450000000 1.0
C      1  0.4595110000000  0.4572690000000  0.4052250000000 1.0
C      1  0.5021610000000  0.5238420000000  0.5985590000000 1.0
C      1  0.4328020000000  0.5083530000000  0.5670750000000 1.0
C      1  0.4963750000000  0.4421380000000  0.5701650000000 1.0
C      1  0.4891590000000  0.5106250000000  0.5494150000000 1.0
C      1  0.5452010000000  0.4686040000000  0.5813340000000 1.0
C      1  0.3848600000000  0.5063660000000  0.4931910000000 1.0
C      1  0.4107390000000  0.5247980000000  0.4410510000000 1.0
C      1  0.5761880000000  0.4981360000000  0.4326740000000 1.0
C      1  0.5034460000000  0.4867850000000  0.4371360000000 1.0
C      1  0.5383060000000  0.5638350000000  0.5688430000000 1.0
C      1  0.5029190000000  0.4939610000000  0.3806850000000 1.0
END
