TITL C-2778429-3646-1290 0.318192672387652 125000 -705.724635243576 0 0 121 (C1) n - 1
REM
REM in /home/nfs/bkarasulu/CARBON/AIRSS/Generating-Clusters/REBO/Only-C1/SD-CG/HFTN-CG
REM
REM
REM
REM
REM
REM ./C.cell (11c1c37f851c82e70ff6c80c92926a4b)
REM
REM compiler GCC version 9.2.1 20190827 (Red Hat 9.2.1-1)
REM options -cpp -mtune=generic -march=x86-64 -g -O0 -fpre-include=/usr/include/finclude/math-vector-fortran.h
REM seed 1514498653 1659923977 -223190879 1346086454 -1893879173 -546170087 216039877 1654769785 1921137782 1582266018 972255787 960627111 1503200205 1367139754 -1490927422 -1172084243 308749848 -943224980 -1809279223 -2138797668 -1418591002 -672168532 3979760 -537129586 -1247446788 -1612463385 1004635156 -2027220997 747723942 -813257872 867039275 -976507148 -1799876211
REM
CELL 1.54180   50.00000   50.00000   50.00000   90.00000   90.00000   90.00000
LATT -1
SFAC C  
C      1  0.4844160000000  0.4412820000000  0.5990100000000 1.0
C      1  0.4288100000000  0.4615470000000  0.4920360000000 1.0
C      1  0.4675400000000  0.4595920000000  0.4827500000000 1.0
C      1  0.5044990000000  0.4707550000000  0.5508030000000 1.0
C      1  0.4611580000000  0.5760600000000  0.4562800000000 1.0
C      1  0.4407540000000  0.5227600000000  0.4325500000000 1.0
C      1  0.4589300000000  0.5088730000000  0.4086400000000 1.0
C      1  0.4833780000000  0.5223570000000  0.4077290000000 1.0
C      1  0.5224030000000  0.5534950000000  0.4968540000000 1.0
C      1  0.4526020000000  0.5547200000000  0.4329980000000 1.0
C      1  0.4551370000000  0.5031590000000  0.4537110000000 1.0
C      1  0.5205610000000  0.4665220000000  0.5733850000000 1.0
C      1  0.5221960000000  0.4229220000000  0.5044060000000 1.0
C      1  0.5000400000000  0.4937920000000  0.5058360000000 1.0
C      1  0.4823360000000  0.5290790000000  0.5409180000000 1.0
C      1  0.5086820000000  0.4525790000000  0.5943640000000 1.0
C      1  0.4534080000000  0.4822670000000  0.5040290000000 1.0
C      1  0.4921510000000  0.5216180000000  0.5007560000000 1.0
C      1  0.4780280000000  0.5077010000000  0.5626480000000 1.0
C      1  0.5008450000000  0.5976720000000  0.4848040000000 1.0
C      1  0.5467530000000  0.4819320000000  0.5683230000000 1.0
C      1  0.4656380000000  0.5339050000000  0.5135630000000 1.0
C      1  0.5481340000000  0.5106350000000  0.5821040000000 1.0
C      1  0.4284290000000  0.5456740000000  0.5393630000000 1.0
C      1  0.5025400000000  0.5473740000000  0.5204930000000 1.0
C      1  0.4895210000000  0.5820920000000  0.4586510000000 1.0
C      1  0.5608320000000  0.4477930000000  0.5023990000000 1.0
C      1  0.5177210000000  0.4671820000000  0.4133300000000 1.0
C      1  0.5817980000000  0.4875540000000  0.5057300000000 1.0
C      1  0.5310090000000  0.4260810000000  0.5327360000000 1.0
C      1  0.4394430000000  0.4166560000000  0.5087060000000 1.0
C      1  0.4176320000000  0.5444430000000  0.4857910000000 1.0
C      1  0.5189220000000  0.4796190000000  0.5247270000000 1.0
C      1  0.4162450000000  0.5168070000000  0.4947300000000 1.0
C      1  0.4286870000000  0.4405640000000  0.5154030000000 1.0
C      1  0.4594490000000  0.4078450000000  0.4927960000000 1.0
C      1  0.4564180000000  0.4373980000000  0.5602690000000 1.0
C      1  0.5178780000000  0.4380010000000  0.4281100000000 1.0
C      1  0.5372730000000  0.5559710000000  0.5381250000000 1.0
C      1  0.5414610000000  0.4867100000000  0.4248080000000 1.0
C      1  0.5552190000000  0.4978560000000  0.4878900000000 1.0
C      1  0.5000300000000  0.5646100000000  0.5495360000000 1.0
C      1  0.5018630000000  0.5234890000000  0.4620710000000 1.0
C      1  0.5325020000000  0.4987880000000  0.4551300000000 1.0
C      1  0.4264920000000  0.5650830000000  0.5115010000000 1.0
C      1  0.5395840000000  0.5436620000000  0.4283750000000 1.0
C      1  0.5232870000000  0.4501020000000  0.4656230000000 1.0
C      1  0.5340300000000  0.5262510000000  0.4670610000000 1.0
C      1  0.5265410000000  0.5572710000000  0.5677930000000 1.0
C      1  0.5373770000000  0.5278980000000  0.5278970000000 1.0
C      1  0.4632380000000  0.4196380000000  0.4611160000000 1.0
C      1  0.5623010000000  0.4848740000000  0.4565240000000 1.0
C      1  0.5086380000000  0.5542620000000  0.4377610000000 1.0
C      1  0.4548680000000  0.5461690000000  0.4718090000000 1.0
C      1  0.5446550000000  0.4555320000000  0.4401430000000 1.0
C      1  0.4263500000000  0.5456040000000  0.4534070000000 1.0
C      1  0.5915460000000  0.5062620000000  0.4718050000000 1.0
C      1  0.5870050000000  0.5196940000000  0.4984190000000 1.0
C      1  0.4785430000000  0.4817810000000  0.5518910000000 1.0
C      1  0.5300920000000  0.4764950000000  0.4780940000000 1.0
C      1  0.4834090000000  0.5913540000000  0.5101610000000 1.0
C      1  0.4584370000000  0.4373340000000  0.5885240000000 1.0
C      1  0.5738630000000  0.5324540000000  0.5436100000000 1.0
C      1  0.5829480000000  0.4834810000000  0.5350160000000 1.0
C      1  0.4294030000000  0.5173310000000  0.5384040000000 1.0
C      1  0.5067750000000  0.5550800000000  0.4704560000000 1.0
C      1  0.5751430000000  0.5403030000000  0.5141550000000 1.0
C      1  0.4862160000000  0.4324520000000  0.4393330000000 1.0
C      1  0.5023120000000  0.4077690000000  0.5356250000000 1.0
C      1  0.5179420000000  0.4060800000000  0.4615820000000 1.0
C      1  0.4856700000000  0.4590680000000  0.4192520000000 1.0
C      1  0.4345440000000  0.4568660000000  0.5429770000000 1.0
C      1  0.5426570000000  0.5707460000000  0.4497080000000 1.0
C      1  0.5127750000000  0.5378720000000  0.4080410000000 1.0
C      1  0.4721890000000  0.5616700000000  0.5617450000000 1.0
C      1  0.4782860000000  0.4454640000000  0.5207810000000 1.0
C      1  0.5530920000000  0.5512270000000  0.4697190000000 1.0
C      1  0.5329770000000  0.4991050000000  0.5438810000000 1.0
C      1  0.4364640000000  0.4365020000000  0.6045430000000 1.0
C      1  0.4747690000000  0.4846680000000  0.4362280000000 1.0
C      1  0.4427010000000  0.4462430000000  0.4655300000000 1.0
C      1  0.4898430000000  0.3998240000000  0.5048910000000 1.0
C      1  0.4699950000000  0.5519460000000  0.5875780000000 1.0
C      1  0.4776500000000  0.4275740000000  0.5435880000000 1.0
C      1  0.4918010000000  0.4035840000000  0.4710440000000 1.0
C      1  0.4706980000000  0.5221440000000  0.4740050000000 1.0
C      1  0.4435210000000  0.5748390000000  0.4842950000000 1.0
C      1  0.5205970000000  0.5285760000000  0.5831810000000 1.0
C      1  0.5576560000000  0.5166810000000  0.4302060000000 1.0
C      1  0.5548740000000  0.4431160000000  0.5330700000000 1.0
C      1  0.5416860000000  0.5252220000000  0.4982950000000 1.0
C      1  0.4418060000000  0.4765780000000  0.4573740000000 1.0
C      1  0.5293960000000  0.5963250000000  0.5249450000000 1.0
C      1  0.4497000000000  0.5658780000000  0.5451580000000 1.0
C      1  0.4918690000000  0.5140360000000  0.5856910000000 1.0
C      1  0.4618890000000  0.4693630000000  0.5302340000000 1.0
C      1  0.4227050000000  0.4873020000000  0.5331920000000 1.0
C      1  0.4453570000000  0.5105620000000  0.5096100000000 1.0
C      1  0.4936520000000  0.4935670000000  0.4584550000000 1.0
C      1  0.5617960000000  0.5596740000000  0.4965000000000 1.0
C      1  0.5650300000000  0.4658940000000  0.5482660000000 1.0
C      1  0.4941280000000  0.4434190000000  0.4687470000000 1.0
C      1  0.5845580000000  0.4726890000000  0.4762040000000 1.0
C      1  0.4808120000000  0.5505740000000  0.4217850000000 1.0
C      1  0.5810190000000  0.5183500000000  0.4465090000000 1.0
C      1  0.4510250000000  0.5881560000000  0.5210750000000 1.0
C      1  0.5560230000000  0.5361430000000  0.5666830000000 1.0
C      1  0.4926860000000  0.4327560000000  0.4982830000000 1.0
C      1  0.5378590000000  0.4670480000000  0.5061760000000 1.0
C      1  0.5127680000000  0.5237830000000  0.5511210000000 1.0
C      1  0.5054420000000  0.3855430000000  0.5526890000000 1.0
C      1  0.4137460000000  0.4870170000000  0.5047400000000 1.0
C      1  0.4659590000000  0.5622770000000  0.5065700000000 1.0
C      1  0.5415170000000  0.5794450000000  0.5063350000000 1.0
C      1  0.4906370000000  0.4803460000000  0.4829110000000 1.0
C      1  0.5397500000000  0.4243330000000  0.4779630000000 1.0
C      1  0.5228930000000  0.5898300000000  0.4598930000000 1.0
C      1  0.4611770000000  0.4784730000000  0.4060580000000 1.0
C      1  0.5893510000000  0.5080650000000  0.5479190000000 1.0
C      1  0.5630150000000  0.4472350000000  0.4682920000000 1.0
C      1  0.5037240000000  0.5904520000000  0.5326900000000 1.0
END
