TITL C-2778432-5617-836 0.0060152164914721 125000 -859.063162180019 0 0 149 (C1) n - 1
REM
REM in /home/nfs/bkarasulu/CARBON/AIRSS/Generating-Clusters/REBO/Only-C1/SD-CG/HFTN-CG
REM
REM
REM
REM
REM
REM ./C.cell (11c1c37f851c82e70ff6c80c92926a4b)
REM
REM compiler GCC version 9.2.1 20190827 (Red Hat 9.2.1-1)
REM options -cpp -mtune=generic -march=x86-64 -g -O0 -fpre-include=/usr/include/finclude/math-vector-fortran.h
REM seed -1275906289 1672403099 -1765248139 290693893 691394861 49788798 1374739563 -220382990 -1267264097 399835404 2090186687 1936134302 -1469358091 1956161184 -787620521 -1573704669 -543567835 1290044915 451653243 1339822906 1052478302 -1456829388 -1014028519 -1151149022 245465727 -222023702 -1565364582 -1815362131 2120152637 -1670422577 1836055830 -1560950932 -2147266270
REM
CELL 1.54180   50.00000   50.00000   50.00000   90.00000   90.00000   90.00000
LATT -1
SFAC C  
C      1  0.5260570000000  0.5398290000000  0.4666730000000 1.0
C      1  0.5936570000000  0.4713390000000  0.4686780000000 1.0
C      1  0.5531300000000  0.4413710000000  0.5243130000000 1.0
C      1  0.4855180000000  0.4879460000000  0.5409920000000 1.0
C      1  0.4192060000000  0.5399430000000  0.5665590000000 1.0
C      1  0.5986630000000  0.5262710000000  0.4819870000000 1.0
C      1  0.4916930000000  0.5240870000000  0.3968470000000 1.0
C      1  0.4561910000000  0.5765630000000  0.5474620000000 1.0
C      1  0.5138590000000  0.5504840000000  0.5028660000000 1.0
C      1  0.5229820000000  0.4664240000000  0.5744400000000 1.0
C      1  0.4437780000000  0.5166560000000  0.4996850000000 1.0
C      1  0.5981140000000  0.5641600000000  0.5168350000000 1.0
C      1  0.4499600000000  0.5012960000000  0.4176680000000 1.0
C      1  0.4782460000000  0.3958970000000  0.4935550000000 1.0
C      1  0.4537230000000  0.5527540000000  0.4160410000000 1.0
C      1  0.5938060000000  0.5301740000000  0.5151250000000 1.0
C      1  0.5554490000000  0.4298890000000  0.4936630000000 1.0
C      1  0.5063650000000  0.5934220000000  0.5483530000000 1.0
C      1  0.4407110000000  0.4503660000000  0.4432080000000 1.0
C      1  0.5628580000000  0.5431390000000  0.4516610000000 1.0
C      1  0.5203380000000  0.5144660000000  0.4611170000000 1.0
C      1  0.4815310000000  0.5796960000000  0.5591620000000 1.0
C      1  0.4608340000000  0.5272570000000  0.4034900000000 1.0
C      1  0.4876510000000  0.4287230000000  0.4573610000000 1.0
C      1  0.4550510000000  0.4064890000000  0.5137590000000 1.0
C      1  0.5872460000000  0.4595670000000  0.5341580000000 1.0
C      1  0.5211090000000  0.4874920000000  0.6000020000000 1.0
C      1  0.5461660000000  0.4750850000000  0.4203460000000 1.0
C      1  0.4725970000000  0.4914220000000  0.4656210000000 1.0
C      1  0.5712860000000  0.5420190000000  0.5364510000000 1.0
C      1  0.5037090000000  0.4375500000000  0.4864590000000 1.0
C      1  0.4929330000000  0.4841940000000  0.5939620000000 1.0
C      1  0.5437410000000  0.5483380000000  0.4311420000000 1.0
C      1  0.4172710000000  0.5442890000000  0.5164370000000 1.0
C      1  0.5579210000000  0.5244380000000  0.5032960000000 1.0
C      1  0.4271690000000  0.4308380000000  0.4679140000000 1.0
C      1  0.5622550000000  0.4956420000000  0.5593880000000 1.0
C      1  0.4680710000000  0.5840100000000  0.4826950000000 1.0
C      1  0.4214360000000  0.5286780000000  0.4494720000000 1.0
C      1  0.5310650000000  0.5722520000000  0.4376710000000 1.0
C      1  0.5273110000000  0.5690300000000  0.5492470000000 1.0
C      1  0.5851830000000  0.4309690000000  0.5190930000000 1.0
C      1  0.4697980000000  0.4516680000000  0.5433390000000 1.0
C      1  0.4343470000000  0.5421620000000  0.5911050000000 1.0
C      1  0.5393400000000  0.5078020000000  0.5241080000000 1.0
C      1  0.4462760000000  0.4602360000000  0.4968950000000 1.0
C      1  0.5530890000000  0.5454750000000  0.5717070000000 1.0
C      1  0.5164630000000  0.4581450000000  0.4548300000000 1.0
C      1  0.4359080000000  0.5847690000000  0.5241230000000 1.0
C      1  0.5280850000000  0.4972030000000  0.5606200000000 1.0
C      1  0.5241970000000  0.5303460000000  0.5615700000000 1.0
C      1  0.4381670000000  0.5829680000000  0.4938090000000 1.0
C      1  0.4607630000000  0.5063450000000  0.5454460000000 1.0
C      1  0.5057130000000  0.6046180000000  0.4959340000000 1.0
C      1  0.5573320000000  0.4065050000000  0.4713920000000 1.0
C      1  0.4929760000000  0.4783720000000  0.5108460000000 1.0
C      1  0.5436810000000  0.4831640000000  0.4850690000000 1.0
C      1  0.5015790000000  0.5573590000000  0.5324570000000 1.0
C      1  0.5132550000000  0.4899320000000  0.4551380000000 1.0
C      1  0.5676590000000  0.4718270000000  0.4390230000000 1.0
C      1  0.4628020000000  0.5254760000000  0.5206740000000 1.0
C      1  0.5327470000000  0.4514890000000  0.4910910000000 1.0
C      1  0.4930040000000  0.4496150000000  0.4237600000000 1.0
C      1  0.4178950000000  0.4959210000000  0.4560000000000 1.0
C      1  0.4168080000000  0.5103880000000  0.5651530000000 1.0
C      1  0.4898590000000  0.5381820000000  0.4507210000000 1.0
C      1  0.4998920000000  0.5533340000000  0.4218850000000 1.0
C      1  0.4162910000000  0.5170770000000  0.4812680000000 1.0
C      1  0.4503980000000  0.4686750000000  0.5763160000000 1.0
C      1  0.5073730000000  0.4214940000000  0.5441270000000 1.0
C      1  0.5751630000000  0.5195530000000  0.4618940000000 1.0
C      1  0.4335710000000  0.4917720000000  0.5888230000000 1.0
C      1  0.4743640000000  0.4871250000000  0.4029180000000 1.0
C      1  0.5866380000000  0.5789010000000  0.5363300000000 1.0
C      1  0.4944090000000  0.5245400000000  0.5079860000000 1.0
C      1  0.5393420000000  0.5406170000000  0.5345950000000 1.0
C      1  0.4343350000000  0.4922170000000  0.5485450000000 1.0
C      1  0.4734830000000  0.4176650000000  0.5401420000000 1.0
C      1  0.4529550000000  0.5136220000000  0.4488210000000 1.0
C      1  0.4812190000000  0.5222800000000  0.4767030000000 1.0
C      1  0.5604110000000  0.5696110000000  0.5522660000000 1.0
C      1  0.5939090000000  0.5582910000000  0.4871700000000 1.0
C      1  0.4740260000000  0.5225840000000  0.5723370000000 1.0
C      1  0.4781490000000  0.5682100000000  0.4132300000000 1.0
C      1  0.5561710000000  0.5944410000000  0.4876600000000 1.0
C      1  0.4562840000000  0.4203220000000  0.4082840000000 1.0
C      1  0.4804130000000  0.5406520000000  0.5442350000000 1.0
C      1  0.5688710000000  0.4656390000000  0.5552960000000 1.0
C      1  0.5164000000000  0.4933260000000  0.4948110000000 1.0
C      1  0.4296280000000  0.5530950000000  0.4922390000000 1.0
C      1  0.5650150000000  0.4183940000000  0.4459480000000 1.0
C      1  0.4982380000000  0.4486490000000  0.5369820000000 1.0
C      1  0.5290610000000  0.4984160000000  0.4125410000000 1.0
C      1  0.4259340000000  0.4442760000000  0.5146740000000 1.0
C      1  0.5041260000000  0.4066460000000  0.4971290000000 1.0
C      1  0.5544190000000  0.5174130000000  0.5838410000000 1.0
C      1  0.4849320000000  0.4625160000000  0.4616950000000 1.0
C      1  0.5979990000000  0.4639150000000  0.5020650000000 1.0
C      1  0.4919240000000  0.5757710000000  0.5055330000000 1.0
C      1  0.5194280000000  0.4621140000000  0.5193860000000 1.0
C      1  0.5064460000000  0.4191290000000  0.4310600000000 1.0
C      1  0.5033500000000  0.5326840000000  0.5847400000000 1.0
C      1  0.4277670000000  0.5576430000000  0.5432670000000 1.0
C      1  0.4899190000000  0.5153320000000  0.4280660000000 1.0
C      1  0.5272960000000  0.4519180000000  0.4239890000000 1.0
C      1  0.4182150000000  0.4841390000000  0.6110260000000 1.0
C      1  0.4508210000000  0.5361190000000  0.4746090000000 1.0
C      1  0.4878060000000  0.5609060000000  0.5802020000000 1.0
C      1  0.3886640000000  0.4751580000000  0.4938420000000 1.0
C      1  0.5442250000000  0.5468210000000  0.4902240000000 1.0
C      1  0.3927710000000  0.5015430000000  0.4975810000000 1.0
C      1  0.4440050000000  0.5732040000000  0.4613240000000 1.0
C      1  0.4731840000000  0.4447200000000  0.5840770000000 1.0
C      1  0.5006510000000  0.4828880000000  0.4241180000000 1.0
C      1  0.4308420000000  0.4805500000000  0.4310480000000 1.0
C      1  0.5147380000000  0.6104930000000  0.5273010000000 1.0
C      1  0.5663970000000  0.4909600000000  0.4649680000000 1.0
C      1  0.5290060000000  0.5138280000000  0.5974080000000 1.0
C      1  0.5820890000000  0.4440150000000  0.4523770000000 1.0
C      1  0.4443350000000  0.4130710000000  0.4820050000000 1.0
C      1  0.4954710000000  0.5905160000000  0.4689890000000 1.0
C      1  0.5490040000000  0.4751210000000  0.5219790000000 1.0
C      1  0.4975550000000  0.4475450000000  0.5787180000000 1.0
C      1  0.5376420000000  0.6066410000000  0.5027030000000 1.0
C      1  0.5403330000000  0.4210580000000  0.4251970000000 1.0
C      1  0.4778590000000  0.4577100000000  0.4938070000000 1.0
C      1  0.4403290000000  0.4265560000000  0.5369430000000 1.0
C      1  0.5461440000000  0.4497690000000  0.5626840000000 1.0
C      1  0.4510290000000  0.5198230000000  0.5923860000000 1.0
C      1  0.4787220000000  0.4820650000000  0.5713980000000 1.0
C      1  0.5358350000000  0.4255690000000  0.5468860000000 1.0
C      1  0.4085530000000  0.4512320000000  0.4878550000000 1.0
C      1  0.5656400000000  0.5665380000000  0.4764440000000 1.0
C      1  0.5868470000000  0.4362750000000  0.4853450000000 1.0
C      1  0.4629220000000  0.4399700000000  0.4251030000000 1.0
C      1  0.4381910000000  0.5547090000000  0.4405770000000 1.0
C      1  0.5274450000000  0.4278230000000  0.4558890000000 1.0
C      1  0.5078620000000  0.5663500000000  0.4582550000000 1.0
C      1  0.5770650000000  0.5098150000000  0.5370080000000 1.0
C      1  0.4549090000000  0.4901460000000  0.4916680000000 1.0
C      1  0.4295650000000  0.4698000000000  0.4688170000000 1.0
C      1  0.5271330000000  0.4060170000000  0.4789580000000 1.0
C      1  0.5228220000000  0.5302790000000  0.4111900000000 1.0
C      1  0.3980140000000  0.5239690000000  0.5161480000000 1.0
C      1  0.5990610000000  0.4955750000000  0.4903310000000 1.0
C      1  0.4380270000000  0.4591690000000  0.5476660000000 1.0
C      1  0.4690980000000  0.4058730000000  0.4663050000000 1.0
C      1  0.5094130000000  0.5070520000000  0.5330060000000 1.0
C      1  0.5726270000000  0.4943420000000  0.5071700000000 1.0
END
