TITL C-2778437-8639-727 0.00413586751757604 125000 -1047.10621374895 0 0 180 (C1) n - 1
REM
REM in /home/nfs/bkarasulu/CARBON/AIRSS/Generating-Clusters/REBO/Only-C1/SD-CG/HFTN-CG
REM
REM
REM
REM
REM
REM ./C.cell (11c1c37f851c82e70ff6c80c92926a4b)
REM
REM compiler GCC version 9.2.1 20190827 (Red Hat 9.2.1-1)
REM options -cpp -mtune=generic -march=x86-64 -g -O0 -fpre-include=/usr/include/finclude/math-vector-fortran.h
REM seed -1019095230 1604119136 321521172 1644283834 69070547 -1031837317 1302084867 -707388192 2086113104 -664937126 -1929936394 2033337012 -1318207806 1738138725 1045950080 645640852 -711525189 1918461673 1320138595 320701589 -59457310 -80831666 2026173524 -1236183848 -1405820714 -1955780705 1364068868 192510921 -2126017444 1842407534 -206294457 7561908 -1979197478
REM
CELL 1.54180   50.00000   50.00000   50.00000   90.00000   90.00000   90.00000
LATT -1
SFAC C  
C      1  0.5115760000000  0.4014770000000  0.4643160000000 1.0
C      1  0.4769030000000  0.5760570000000  0.5841450000000 1.0
C      1  0.4603590000000  0.5975460000000  0.4766700000000 1.0
C      1  0.4902480000000  0.4226660000000  0.5144350000000 1.0
C      1  0.5652260000000  0.4945720000000  0.4228030000000 1.0
C      1  0.4973610000000  0.5803220000000  0.5109210000000 1.0
C      1  0.5601930000000  0.4879950000000  0.4950310000000 1.0
C      1  0.4738080000000  0.4677140000000  0.4905880000000 1.0
C      1  0.5127730000000  0.5502600000000  0.5169710000000 1.0
C      1  0.5401860000000  0.5112160000000  0.5741600000000 1.0
C      1  0.4506880000000  0.4887500000000  0.4833560000000 1.0
C      1  0.5226110000000  0.5456320000000  0.6016850000000 1.0
C      1  0.5319100000000  0.5060360000000  0.4925920000000 1.0
C      1  0.4882200000000  0.4506230000000  0.5818600000000 1.0
C      1  0.5000990000000  0.4832240000000  0.4852080000000 1.0
C      1  0.5034540000000  0.4410460000000  0.4903000000000 1.0
C      1  0.5394790000000  0.5072980000000  0.4414970000000 1.0
C      1  0.5779520000000  0.5342660000000  0.4800350000000 1.0
C      1  0.5844380000000  0.5109390000000  0.5017910000000 1.0
C      1  0.4482340000000  0.5127260000000  0.4385410000000 1.0
C      1  0.5902290000000  0.4893080000000  0.4687550000000 1.0
C      1  0.5281240000000  0.4773410000000  0.4739210000000 1.0
C      1  0.4753510000000  0.4271680000000  0.5604770000000 1.0
C      1  0.5886160000000  0.4673120000000  0.5217910000000 1.0
C      1  0.4059250000000  0.5130170000000  0.5230700000000 1.0
C      1  0.4913340000000  0.4740080000000  0.4473850000000 1.0
C      1  0.4547650000000  0.5881780000000  0.5624220000000 1.0
C      1  0.5978860000000  0.5014740000000  0.5400010000000 1.0
C      1  0.5892200000000  0.5276580000000  0.4526420000000 1.0
C      1  0.5189710000000  0.4957100000000  0.3998850000000 1.0
C      1  0.5145490000000  0.5514620000000  0.5609990000000 1.0
C      1  0.4435140000000  0.4907050000000  0.4047650000000 1.0
C      1  0.4467870000000  0.3971610000000  0.5148940000000 1.0
C      1  0.4319930000000  0.5377440000000  0.4873500000000 1.0
C      1  0.4777020000000  0.5466610000000  0.5827180000000 1.0
C      1  0.4179790000000  0.5700160000000  0.4684850000000 1.0
C      1  0.4881000000000  0.4124010000000  0.4415800000000 1.0
C      1  0.5262450000000  0.5196990000000  0.5235650000000 1.0
C      1  0.5504190000000  0.5685270000000  0.5567960000000 1.0
C      1  0.5508410000000  0.5952980000000  0.4758300000000 1.0
C      1  0.4481950000000  0.4492740000000  0.4776630000000 1.0
C      1  0.4238290000000  0.4704700000000  0.4770710000000 1.0
C      1  0.4450110000000  0.4074180000000  0.4823640000000 1.0
C      1  0.4170820000000  0.5341200000000  0.5667980000000 1.0
C      1  0.4676400000000  0.4067580000000  0.5343520000000 1.0
C      1  0.4822900000000  0.5402330000000  0.4759750000000 1.0
C      1  0.4178500000000  0.5275910000000  0.4313270000000 1.0
C      1  0.5180020000000  0.5236110000000  0.4708390000000 1.0
C      1  0.4718110000000  0.5043460000000  0.6081370000000 1.0
C      1  0.4920150000000  0.6074090000000  0.4659070000000 1.0
C      1  0.5036010000000  0.5893980000000  0.5809560000000 1.0
C      1  0.5677910000000  0.5876630000000  0.5349830000000 1.0
C      1  0.4102670000000  0.5458320000000  0.4548130000000 1.0
C      1  0.5301550000000  0.5748190000000  0.5329390000000 1.0
C      1  0.4723380000000  0.3999530000000  0.4687590000000 1.0
C      1  0.3939750000000  0.4813240000000  0.4482360000000 1.0
C      1  0.5994160000000  0.5330190000000  0.5338720000000 1.0
C      1  0.4990750000000  0.5844750000000  0.4418760000000 1.0
C      1  0.5064290000000  0.5022300000000  0.4479410000000 1.0
C      1  0.3963990000000  0.4720610000000  0.4944340000000 1.0
C      1  0.4823340000000  0.4463170000000  0.4036010000000 1.0
C      1  0.4614280000000  0.4786010000000  0.4542550000000 1.0
C      1  0.5802710000000  0.5673550000000  0.4862010000000 1.0
C      1  0.4010900000000  0.4282090000000  0.5130470000000 1.0
C      1  0.4564090000000  0.4522210000000  0.5739960000000 1.0
C      1  0.5351250000000  0.4099570000000  0.4784130000000 1.0
C      1  0.5751940000000  0.4529520000000  0.5479540000000 1.0
C      1  0.5322310000000  0.6020470000000  0.5039780000000 1.0
C      1  0.4712370000000  0.5743860000000  0.4586040000000 1.0
C      1  0.5347660000000  0.5468320000000  0.4571530000000 1.0
C      1  0.3946200000000  0.5028520000000  0.4968290000000 1.0
C      1  0.4913910000000  0.5618820000000  0.5485270000000 1.0
C      1  0.5659580000000  0.4895330000000  0.5349250000000 1.0
C      1  0.5402950000000  0.4368150000000  0.5922280000000 1.0
C      1  0.5563060000000  0.4257600000000  0.5457420000000 1.0
C      1  0.5439470000000  0.4581200000000  0.4938520000000 1.0
C      1  0.4795330000000  0.5223780000000  0.4482440000000 1.0
C      1  0.5550590000000  0.4636200000000  0.5911600000000 1.0
C      1  0.4897860000000  0.6092560000000  0.5282970000000 1.0
C      1  0.5304930000000  0.4749440000000  0.4199360000000 1.0
C      1  0.5464010000000  0.4514080000000  0.4060120000000 1.0
C      1  0.4274720000000  0.4689390000000  0.5256560000000 1.0
C      1  0.5008150000000  0.4996240000000  0.5957450000000 1.0
C      1  0.4977310000000  0.3982810000000  0.5445540000000 1.0
C      1  0.4947480000000  0.3847260000000  0.4857620000000 1.0
C      1  0.5771670000000  0.4675740000000  0.5740400000000 1.0
C      1  0.3971250000000  0.4560170000000  0.5211790000000 1.0
C      1  0.4995330000000  0.4787400000000  0.5685930000000 1.0
C      1  0.5092030000000  0.4239910000000  0.5591290000000 1.0
C      1  0.4810130000000  0.4551410000000  0.5202420000000 1.0
C      1  0.4637440000000  0.4313480000000  0.4282830000000 1.0
C      1  0.5072080000000  0.3931900000000  0.5137920000000 1.0
C      1  0.5160200000000  0.4279320000000  0.4352330000000 1.0
C      1  0.4518020000000  0.5487720000000  0.4681470000000 1.0
C      1  0.4100920000000  0.4346590000000  0.4532680000000 1.0
C      1  0.4928180000000  0.5140480000000  0.4923570000000 1.0
C      1  0.6167460000000  0.5185820000000  0.5096610000000 1.0
C      1  0.5376750000000  0.5358320000000  0.4258410000000 1.0
C      1  0.5864700000000  0.4497020000000  0.4972150000000 1.0
C      1  0.5016880000000  0.4668720000000  0.3937860000000 1.0
C      1  0.4419320000000  0.4257570000000  0.4538460000000 1.0
C      1  0.5453480000000  0.5697770000000  0.5053810000000 1.0
C      1  0.5323890000000  0.4861680000000  0.5298990000000 1.0
C      1  0.5085200000000  0.6102850000000  0.5634920000000 1.0
C      1  0.4883550000000  0.5529280000000  0.4385330000000 1.0
C      1  0.4716940000000  0.5365220000000  0.5507100000000 1.0
C      1  0.5178550000000  0.5219650000000  0.5561550000000 1.0
C      1  0.4163100000000  0.5412340000000  0.5174920000000 1.0
C      1  0.4086590000000  0.5184090000000  0.4737280000000 1.0
C      1  0.4234060000000  0.4967760000000  0.4555130000000 1.0
C      1  0.5369700000000  0.4210380000000  0.5689850000000 1.0
C      1  0.4888740000000  0.5080300000000  0.5588250000000 1.0
C      1  0.5204140000000  0.4510230000000  0.5155020000000 1.0
C      1  0.6151500000000  0.4850930000000  0.5170440000000 1.0
C      1  0.4795340000000  0.5868860000000  0.5460180000000 1.0
C      1  0.4556710000000  0.5361670000000  0.5217360000000 1.0
C      1  0.5287470000000  0.5701050000000  0.5830080000000 1.0
C      1  0.4480340000000  0.5077730000000  0.6029550000000 1.0
C      1  0.5170730000000  0.5889970000000  0.4772450000000 1.0
C      1  0.5177280000000  0.5266220000000  0.4027070000000 1.0
C      1  0.4155420000000  0.4611810000000  0.4391000000000 1.0
C      1  0.4376590000000  0.4785380000000  0.5630940000000 1.0
C      1  0.5832660000000  0.4605510000000  0.4717890000000 1.0
C      1  0.5706250000000  0.5927770000000  0.5042970000000 1.0
C      1  0.5798690000000  0.5525520000000  0.5155500000000 1.0
C      1  0.5210190000000  0.6059800000000  0.5332850000000 1.0
C      1  0.5762770000000  0.4222440000000  0.5009920000000 1.0
C      1  0.5705750000000  0.5448620000000  0.5476830000000 1.0
C      1  0.5033410000000  0.5596520000000  0.4858080000000 1.0
C      1  0.4397170000000  0.5655280000000  0.5150370000000 1.0
C      1  0.5252290000000  0.5404060000000  0.3762800000000 1.0
C      1  0.5706390000000  0.5270940000000  0.4263900000000 1.0
C      1  0.4757680000000  0.4316290000000  0.4741340000000 1.0
C      1  0.4098030000000  0.4613280000000  0.5524940000000 1.0
C      1  0.5649200000000  0.5146230000000  0.5580400000000 1.0
C      1  0.5470750000000  0.5453370000000  0.4876070000000 1.0
C      1  0.5430520000000  0.5273400000000  0.6011210000000 1.0
C      1  0.5691990000000  0.4661860000000  0.4220790000000 1.0
C      1  0.5346040000000  0.4272830000000  0.4159120000000 1.0
C      1  0.5579830000000  0.5274450000000  0.5140070000000 1.0
C      1  0.5606020000000  0.5689510000000  0.4584700000000 1.0
C      1  0.4823510000000  0.6073550000000  0.4976800000000 1.0
C      1  0.5001480000000  0.4850910000000  0.5189410000000 1.0
C      1  0.5446130000000  0.4557970000000  0.5363400000000 1.0
C      1  0.6135490000000  0.5079200000000  0.4539150000000 1.0
C      1  0.3883340000000  0.4552320000000  0.4672570000000 1.0
C      1  0.4427260000000  0.4671820000000  0.4368610000000 1.0
C      1  0.4484500000000  0.4455520000000  0.5222310000000 1.0
C      1  0.4307270000000  0.4236760000000  0.5067020000000 1.0
C      1  0.4337410000000  0.5791790000000  0.5458510000000 1.0
C      1  0.4207470000000  0.5051110000000  0.4105810000000 1.0
C      1  0.5164700000000  0.4558220000000  0.5963890000000 1.0
C      1  0.4484430000000  0.5525510000000  0.4350390000000 1.0
C      1  0.4884850000000  0.4831950000000  0.4177870000000 1.0
C      1  0.4588530000000  0.4992510000000  0.5460990000000 1.0
C      1  0.5873700000000  0.4936340000000  0.5695470000000 1.0
C      1  0.4363810000000  0.4404830000000  0.5520770000000 1.0
C      1  0.5607350000000  0.5020120000000  0.4640160000000 1.0
C      1  0.5739820000000  0.5595750000000  0.4341060000000 1.0
C      1  0.4789240000000  0.5110960000000  0.5208090000000 1.0
C      1  0.4442920000000  0.5110590000000  0.5013090000000 1.0
C      1  0.5662170000000  0.4534870000000  0.4502210000000 1.0
C      1  0.5544140000000  0.4317580000000  0.4815660000000 1.0
C      1  0.5310800000000  0.4861630000000  0.5919050000000 1.0
C      1  0.5043310000000  0.4540800000000  0.5455730000000 1.0
C      1  0.4583580000000  0.5453950000000  0.4133230000000 1.0
C      1  0.4191370000000  0.5537040000000  0.5470660000000 1.0
C      1  0.5383050000000  0.4679410000000  0.4473990000000 1.0
C      1  0.4977650000000  0.5325160000000  0.5967450000000 1.0
C      1  0.4338050000000  0.4972380000000  0.5274940000000 1.0
C      1  0.4890480000000  0.5330770000000  0.4109260000000 1.0
C      1  0.5005510000000  0.4470770000000  0.4570870000000 1.0
C      1  0.5594640000000  0.4086150000000  0.5208290000000 1.0
C      1  0.4361830000000  0.5802580000000  0.4872340000000 1.0
C      1  0.4059790000000  0.5069280000000  0.5544920000000 1.0
C      1  0.4699340000000  0.5067860000000  0.4129620000000 1.0
C      1  0.4529930000000  0.4582510000000  0.4089340000000 1.0
C      1  0.4286910000000  0.5049390000000  0.5798850000000 1.0
C      1  0.5363560000000  0.3988580000000  0.5068090000000 1.0
C      1  0.6182630000000  0.4964820000000  0.4851480000000 1.0
END
