TITL C-2778434-4341-1363 -0.0448141447934993 125000 -392.627495464575 0 0 68 (C1) n - 1
REM
REM in /home/nfs/bkarasulu/CARBON/AIRSS/Generating-Clusters/REBO/Only-C1/SD-CG/HFTN-CG
REM
REM
REM
REM
REM
REM ./C.cell (11c1c37f851c82e70ff6c80c92926a4b)
REM
REM compiler GCC version 9.2.1 20190827 (Red Hat 9.2.1-1)
REM options -cpp -mtune=generic -march=x86-64 -g -O0 -fpre-include=/usr/include/finclude/math-vector-fortran.h
REM seed -437095371 -1616668800 -1999296710 980625178 1242824209 -1918423338 296646244 -463473041 894717006 -1151581647 -1981556875 -856973596 174876671 -464185560 1103963906 -593330721 1088387349 787436538 -990696535 126701064 -636223203 -158641480 -1437332430 -1705024093 467548830 595621642 -1101487006 -583991445 -672318848 349148577 -1200907073 -1464873788 -1478229274
REM
CELL 1.54180   50.00000   50.00000   50.00000   90.00000   90.00000   90.00000
LATT -1
SFAC C  
C      1  0.4301160000000  0.4998940000000  0.4617910000000 1.0
C      1  0.4979740000000  0.4398840000000  0.5535540000000 1.0
C      1  0.5143190000000  0.4309440000000  0.4994190000000 1.0
C      1  0.4103640000000  0.5074960000000  0.5312580000000 1.0
C      1  0.4701760000000  0.4577380000000  0.5493470000000 1.0
C      1  0.4618590000000  0.5014950000000  0.5280990000000 1.0
C      1  0.4218920000000  0.4785340000000  0.5392360000000 1.0
C      1  0.5487700000000  0.4659450000000  0.4457750000000 1.0
C      1  0.5066180000000  0.4906840000000  0.5269630000000 1.0
C      1  0.5112490000000  0.5690960000000  0.4938840000000 1.0
C      1  0.4937440000000  0.5446340000000  0.4535030000000 1.0
C      1  0.4292620000000  0.5282980000000  0.5272310000000 1.0
C      1  0.4830540000000  0.5519840000000  0.4962500000000 1.0
C      1  0.4077210000000  0.4824690000000  0.5106920000000 1.0
C      1  0.5113880000000  0.4859230000000  0.4152700000000 1.0
C      1  0.5437360000000  0.5598060000000  0.4987390000000 1.0
C      1  0.4361970000000  0.5346900000000  0.4975820000000 1.0
C      1  0.5287130000000  0.5033360000000  0.4915650000000 1.0
C      1  0.5481710000000  0.4501690000000  0.4902300000000 1.0
C      1  0.5486650000000  0.5458510000000  0.4293190000000 1.0
C      1  0.4879850000000  0.5111400000000  0.5310380000000 1.0
C      1  0.5102680000000  0.4210150000000  0.5301820000000 1.0
C      1  0.4992510000000  0.4789450000000  0.5029350000000 1.0
C      1  0.5229780000000  0.5650600000000  0.5246850000000 1.0
C      1  0.4986010000000  0.5314190000000  0.4292330000000 1.0
C      1  0.4879450000000  0.5396140000000  0.5588500000000 1.0
C      1  0.4863890000000  0.5261750000000  0.4773010000000 1.0
C      1  0.5096360000000  0.5225390000000  0.4997090000000 1.0
C      1  0.5258540000000  0.5323630000000  0.4174480000000 1.0
C      1  0.5335540000000  0.4936100000000  0.5442450000000 1.0
C      1  0.5290260000000  0.4955170000000  0.4637840000000 1.0
C      1  0.5786500000000  0.5235160000000  0.5152900000000 1.0
C      1  0.4993400000000  0.4548610000000  0.4601070000000 1.0
C      1  0.5718240000000  0.4679050000000  0.4940530000000 1.0
C      1  0.4569550000000  0.5373620000000  0.5447910000000 1.0
C      1  0.5406850000000  0.4623810000000  0.5352310000000 1.0
C      1  0.5658300000000  0.5271750000000  0.4413450000000 1.0
C      1  0.4795610000000  0.4357810000000  0.5248380000000 1.0
C      1  0.4328080000000  0.5270340000000  0.4698050000000 1.0
C      1  0.4684840000000  0.5129450000000  0.5657590000000 1.0
C      1  0.6040850000000  0.5334090000000  0.5153270000000 1.0
C      1  0.5345930000000  0.5036370000000  0.4137160000000 1.0
C      1  0.4338390000000  0.5465230000000  0.4506630000000 1.0
C      1  0.4686810000000  0.4360510000000  0.4985980000000 1.0
C      1  0.4498750000000  0.4786770000000  0.5398070000000 1.0
C      1  0.4573400000000  0.4812980000000  0.4837640000000 1.0
C      1  0.4232640000000  0.4786420000000  0.4867790000000 1.0
C      1  0.5557180000000  0.5423170000000  0.5218110000000 1.0
C      1  0.5073410000000  0.4835520000000  0.5725690000000 1.0
C      1  0.5030310000000  0.5686380000000  0.4630050000000 1.0
C      1  0.4812750000000  0.4966630000000  0.4886040000000 1.0
C      1  0.5031260000000  0.5396410000000  0.5284030000000 1.0
C      1  0.5731660000000  0.4968490000000  0.5066900000000 1.0
C      1  0.5192860000000  0.5346710000000  0.5650760000000 1.0
C      1  0.5190960000000  0.4602240000000  0.5606770000000 1.0
C      1  0.4402780000000  0.4669810000000  0.4592420000000 1.0
C      1  0.5373960000000  0.5470270000000  0.5475110000000 1.0
C      1  0.5032430000000  0.4545430000000  0.4909250000000 1.0
C      1  0.4678420000000  0.4515280000000  0.4727690000000 1.0
C      1  0.5248650000000  0.5078720000000  0.5701500000000 1.0
C      1  0.5335750000000  0.4533810000000  0.4651640000000 1.0
C      1  0.4789520000000  0.4860420000000  0.5662430000000 1.0
C      1  0.5053270000000  0.4820390000000  0.4479200000000 1.0
C      1  0.5393220000000  0.4358490000000  0.5196320000000 1.0
C      1  0.4886580000000  0.5040070000000  0.4281910000000 1.0
C      1  0.5440670000000  0.4887860000000  0.5134970000000 1.0
C      1  0.5529780000000  0.4979180000000  0.4402930000000 1.0
C      1  0.4601670000000  0.5480080000000  0.5126390000000 1.0
END
