TITL C-2778434-4341-536 0.00155169233064477 125000 -857.751748975223 0 0 147 (C1) n - 1
REM
REM in /home/nfs/bkarasulu/CARBON/AIRSS/Generating-Clusters/REBO/Only-C1/SD-CG/HFTN-CG
REM
REM
REM
REM
REM
REM ./C.cell (11c1c37f851c82e70ff6c80c92926a4b)
REM
REM compiler GCC version 9.2.1 20190827 (Red Hat 9.2.1-1)
REM options -cpp -mtune=generic -march=x86-64 -g -O0 -fpre-include=/usr/include/finclude/math-vector-fortran.h
REM seed 844989715 37792923 1472799388 1906539592 490947885 -667164555 786646680 940736901 554848734 -1128284052 -1758995758 726477472 646569480 1959089220 985045269 -399346447 1181825621 -1445360172 1376999279 1018635981 -1108668319 1407557898 1633613752 -1953969854 -920518112 -1429069349 1468668457 595053456 776326386 2119092251 2141405106 -55590096 -1339400541
REM
CELL 1.54180   50.00000   50.00000   50.00000   90.00000   90.00000   90.00000
LATT -1
SFAC C  
C      1  0.5187800000000  0.4952500000000  0.5654290000000 1.0
C      1  0.4939100000000  0.5092630000000  0.4677900000000 1.0
C      1  0.4507460000000  0.5430320000000  0.4264730000000 1.0
C      1  0.5239750000000  0.5915490000000  0.5425610000000 1.0
C      1  0.5869640000000  0.4956870000000  0.5448940000000 1.0
C      1  0.4817030000000  0.4847140000000  0.3983940000000 1.0
C      1  0.4542000000000  0.4302610000000  0.5225390000000 1.0
C      1  0.4112590000000  0.4425670000000  0.5417950000000 1.0
C      1  0.4212850000000  0.5425660000000  0.4330900000000 1.0
C      1  0.4023880000000  0.4959790000000  0.4918390000000 1.0
C      1  0.4998180000000  0.4052340000000  0.5265770000000 1.0
C      1  0.4668110000000  0.5955120000000  0.4804950000000 1.0
C      1  0.5730280000000  0.5102760000000  0.4335970000000 1.0
C      1  0.4979400000000  0.4919920000000  0.5254520000000 1.0
C      1  0.5392170000000  0.5136350000000  0.5453500000000 1.0
C      1  0.4808700000000  0.4126220000000  0.4749850000000 1.0
C      1  0.4063880000000  0.4732620000000  0.4754730000000 1.0
C      1  0.4799670000000  0.5020390000000  0.5744430000000 1.0
C      1  0.4641820000000  0.5165190000000  0.4422370000000 1.0
C      1  0.4638200000000  0.5526110000000  0.5737940000000 1.0
C      1  0.5844810000000  0.4839410000000  0.4477060000000 1.0
C      1  0.4394320000000  0.5888350000000  0.4802380000000 1.0
C      1  0.4934220000000  0.5910540000000  0.5555630000000 1.0
C      1  0.5397080000000  0.5445900000000  0.4457580000000 1.0
C      1  0.4671730000000  0.4712790000000  0.5805040000000 1.0
C      1  0.4832000000000  0.4387750000000  0.4364550000000 1.0
C      1  0.4964110000000  0.5659980000000  0.4181470000000 1.0
C      1  0.5992920000000  0.4314270000000  0.5377580000000 1.0
C      1  0.5229310000000  0.5010510000000  0.4010630000000 1.0
C      1  0.4749210000000  0.5430420000000  0.4582080000000 1.0
C      1  0.5032700000000  0.4155770000000  0.5773260000000 1.0
C      1  0.5135150000000  0.4207550000000  0.4696430000000 1.0
C      1  0.4954900000000  0.5439290000000  0.5389600000000 1.0
C      1  0.5885220000000  0.4776490000000  0.5195030000000 1.0
C      1  0.4645040000000  0.4947520000000  0.5466990000000 1.0
C      1  0.4426040000000  0.5183740000000  0.4892040000000 1.0
C      1  0.4338210000000  0.4281210000000  0.5487180000000 1.0
C      1  0.5346430000000  0.5439940000000  0.5315940000000 1.0
C      1  0.5488770000000  0.4706660000000  0.5196690000000 1.0
C      1  0.5020130000000  0.4751070000000  0.4227260000000 1.0
C      1  0.5120980000000  0.4257350000000  0.4379010000000 1.0
C      1  0.4657700000000  0.5683740000000  0.4436950000000 1.0
C      1  0.5316580000000  0.4977630000000  0.4614740000000 1.0
C      1  0.4718920000000  0.4392210000000  0.5478390000000 1.0
C      1  0.5665150000000  0.4875810000000  0.4953240000000 1.0
C      1  0.4121600000000  0.5667300000000  0.4418850000000 1.0
C      1  0.5612370000000  0.4976620000000  0.5746030000000 1.0
C      1  0.5995780000000  0.5193800000000  0.4963110000000 1.0
C      1  0.5000350000000  0.4569680000000  0.4593580000000 1.0
C      1  0.5055690000000  0.5416990000000  0.4672170000000 1.0
C      1  0.4717440000000  0.4602800000000  0.4174720000000 1.0
C      1  0.4648400000000  0.5255570000000  0.5903140000000 1.0
C      1  0.4926540000000  0.5166180000000  0.3991240000000 1.0
C      1  0.4622730000000  0.4828760000000  0.4986210000000 1.0
C      1  0.4704580000000  0.5341080000000  0.4883810000000 1.0
C      1  0.5591560000000  0.4776780000000  0.5465660000000 1.0
C      1  0.5399590000000  0.5100720000000  0.5957360000000 1.0
C      1  0.5241550000000  0.5244030000000  0.4262910000000 1.0
C      1  0.4899380000000  0.5176550000000  0.6096340000000 1.0
C      1  0.4373040000000  0.4708810000000  0.5635150000000 1.0
C      1  0.4707880000000  0.4525010000000  0.4743390000000 1.0
C      1  0.5193390000000  0.5410150000000  0.5046900000000 1.0
C      1  0.5161730000000  0.5963960000000  0.5105420000000 1.0
C      1  0.5696960000000  0.5334970000000  0.4554140000000 1.0
C      1  0.5398570000000  0.4169660000000  0.4908190000000 1.0
C      1  0.4457740000000  0.5188300000000  0.5626790000000 1.0
C      1  0.4986280000000  0.5199330000000  0.4998090000000 1.0
C      1  0.5322250000000  0.5730240000000  0.4513850000000 1.0
C      1  0.5513290000000  0.5317280000000  0.4974100000000 1.0
C      1  0.5124100000000  0.5661160000000  0.4852630000000 1.0
C      1  0.5580310000000  0.4407680000000  0.5070900000000 1.0
C      1  0.4834440000000  0.4665200000000  0.5436620000000 1.0
C      1  0.4281400000000  0.5160770000000  0.5173440000000 1.0
C      1  0.4698220000000  0.5411590000000  0.5203320000000 1.0
C      1  0.5630820000000  0.4297230000000  0.4693270000000 1.0
C      1  0.4349470000000  0.4254570000000  0.4464300000000 1.0
C      1  0.4733980000000  0.4071960000000  0.5077160000000 1.0
C      1  0.5339410000000  0.4486220000000  0.5570070000000 1.0
C      1  0.4615560000000  0.5080140000000  0.4108430000000 1.0
C      1  0.5426110000000  0.5777910000000  0.4834470000000 1.0
C      1  0.5663320000000  0.5555240000000  0.5255720000000 1.0
C      1  0.5660950000000  0.5518910000000  0.5695220000000 1.0
C      1  0.4886010000000  0.5670700000000  0.5708320000000 1.0
C      1  0.5337730000000  0.4393450000000  0.4262320000000 1.0
C      1  0.4111060000000  0.4801060000000  0.4448940000000 1.0
C      1  0.5137680000000  0.5489670000000  0.5666200000000 1.0
C      1  0.4256760000000  0.4939430000000  0.5548420000000 1.0
C      1  0.4536920000000  0.5681360000000  0.5249830000000 1.0
C      1  0.5544820000000  0.4645270000000  0.5771300000000 1.0
C      1  0.4189270000000  0.5433210000000  0.4902810000000 1.0
C      1  0.5920560000000  0.5448350000000  0.5067480000000 1.0
C      1  0.5963170000000  0.4706720000000  0.4747490000000 1.0
C      1  0.4677150000000  0.5079160000000  0.5184790000000 1.0
C      1  0.5399940000000  0.4784450000000  0.4816570000000 1.0
C      1  0.4216680000000  0.4483480000000  0.4372580000000 1.0
C      1  0.4423110000000  0.5486340000000  0.5495800000000 1.0
C      1  0.5075810000000  0.4984280000000  0.4409930000000 1.0
C      1  0.5126380000000  0.5811090000000  0.4342990000000 1.0
C      1  0.4727120000000  0.5919950000000  0.5327590000000 1.0
C      1  0.5400640000000  0.5668880000000  0.5546830000000 1.0
C      1  0.5079400000000  0.4368840000000  0.5942010000000 1.0
C      1  0.5256310000000  0.4520890000000  0.4787140000000 1.0
C      1  0.4443930000000  0.4572990000000  0.5064860000000 1.0
C      1  0.5659970000000  0.5207840000000  0.5251920000000 1.0
C      1  0.5294730000000  0.4599490000000  0.5950770000000 1.0
C      1  0.5339110000000  0.5254070000000  0.4709800000000 1.0
C      1  0.4312630000000  0.5710630000000  0.5026110000000 1.0
C      1  0.4935230000000  0.4741700000000  0.4882790000000 1.0
C      1  0.4622110000000  0.4999050000000  0.4696270000000 1.0
C      1  0.4168250000000  0.4627880000000  0.5243470000000 1.0
C      1  0.4810480000000  0.5444100000000  0.4118900000000 1.0
C      1  0.4921040000000  0.4166140000000  0.5517460000000 1.0
C      1  0.4988790000000  0.5149600000000  0.5492070000000 1.0
C      1  0.5757660000000  0.5235160000000  0.5580200000000 1.0
C      1  0.5120320000000  0.4423610000000  0.5037250000000 1.0
C      1  0.4335880000000  0.4975270000000  0.4250110000000 1.0
C      1  0.5660880000000  0.5559490000000  0.4785360000000 1.0
C      1  0.4226420000000  0.5864890000000  0.4576750000000 1.0
C      1  0.5847370000000  0.4481500000000  0.5237970000000 1.0
C      1  0.5274920000000  0.4099400000000  0.5207580000000 1.0
C      1  0.4513400000000  0.4419250000000  0.5734150000000 1.0
C      1  0.4089930000000  0.4926300000000  0.5250980000000 1.0
C      1  0.5585910000000  0.4380790000000  0.4429730000000 1.0
C      1  0.4854160000000  0.4362820000000  0.4986080000000 1.0
C      1  0.4490170000000  0.4631180000000  0.4615930000000 1.0
C      1  0.4957150000000  0.5713450000000  0.5212320000000 1.0
C      1  0.5395180000000  0.5314140000000  0.5727690000000 1.0
C      1  0.5794220000000  0.5068230000000  0.4726590000000 1.0
C      1  0.5127300000000  0.4675220000000  0.5545630000000 1.0
C      1  0.5821600000000  0.4479440000000  0.4838600000000 1.0
C      1  0.5617940000000  0.4668130000000  0.4318820000000 1.0
C      1  0.5956770000000  0.5672050000000  0.4872920000000 1.0
C      1  0.5508720000000  0.5061520000000  0.4188870000000 1.0
C      1  0.4203310000000  0.5467680000000  0.5245460000000 1.0
C      1  0.6062870000000  0.4889220000000  0.4958690000000 1.0
C      1  0.5192140000000  0.4812220000000  0.5067360000000 1.0
C      1  0.4124120000000  0.5144880000000  0.4455140000000 1.0
C      1  0.5113670000000  0.4973230000000  0.5985720000000 1.0
C      1  0.5391430000000  0.4258140000000  0.5416090000000 1.0
C      1  0.4049940000000  0.5196080000000  0.4759920000000 1.0
C      1  0.5332410000000  0.4707860000000  0.4135300000000 1.0
C      1  0.4919570000000  0.5906830000000  0.4873510000000 1.0
C      1  0.4460190000000  0.4689440000000  0.4297580000000 1.0
C      1  0.4196320000000  0.4520010000000  0.4861680000000 1.0
C      1  0.4963670000000  0.4684640000000  0.5932310000000 1.0
C      1  0.4616950000000  0.4209920000000  0.4514530000000 1.0
C      1  0.5453780000000  0.5803160000000  0.5173890000000 1.0
END
