TITL C-2778426-5645-1312 0.00620064659951366 125000 -530.602270177977 0 0 94 (C1) n - 1
REM
REM in /home/nfs/bkarasulu/CARBON/AIRSS/Generating-Clusters/REBO/Only-C1/SD-CG/HFTN-CG
REM
REM
REM
REM
REM
REM ./C.cell (11c1c37f851c82e70ff6c80c92926a4b)
REM
REM compiler GCC version 9.2.1 20190827 (Red Hat 9.2.1-1)
REM options -cpp -mtune=generic -march=x86-64 -g -O0 -fpre-include=/usr/include/finclude/math-vector-fortran.h
REM seed -1618483224 -1325142756 1145711455 885724069 1905131215 109462229 -712598439 -2106322760 -1481983543 -1345741453 -798869356 -982055421 -850237584 -168861359 2138309750 -1015560710 1421310324 -749898652 -945547227 -2081552750 -153727631 -2145254340 -694965950 75430286 -1027530208 -1341877482 1810828502 -120672038 -152010801 -1826116020 1653795427 1310846556 1236939784
REM
CELL 1.54180   50.00000   50.00000   50.00000   90.00000   90.00000   90.00000
LATT -1
SFAC C  
C      1  0.4661170000000  0.4853620000000  0.5519100000000 1.0
C      1  0.5405570000000  0.4979830000000  0.5011780000000 1.0
C      1  0.4852740000000  0.4602170000000  0.4255850000000 1.0
C      1  0.4955460000000  0.4501570000000  0.5014290000000 1.0
C      1  0.4367380000000  0.4839620000000  0.4264400000000 1.0
C      1  0.4755340000000  0.5498260000000  0.6004980000000 1.0
C      1  0.4281710000000  0.4779230000000  0.5012630000000 1.0
C      1  0.4974640000000  0.4628510000000  0.5809930000000 1.0
C      1  0.5119450000000  0.4434950000000  0.4500960000000 1.0
C      1  0.5847440000000  0.4868990000000  0.4104880000000 1.0
C      1  0.5389960000000  0.5480940000000  0.4951600000000 1.0
C      1  0.5748020000000  0.5153130000000  0.5209870000000 1.0
C      1  0.4894210000000  0.5660410000000  0.4542260000000 1.0
C      1  0.5164550000000  0.4664310000000  0.4250220000000 1.0
C      1  0.5548400000000  0.5354440000000  0.4498690000000 1.0
C      1  0.5379440000000  0.5597070000000  0.5209630000000 1.0
C      1  0.4386060000000  0.5735460000000  0.5193670000000 1.0
C      1  0.5139820000000  0.4999450000000  0.4207430000000 1.0
C      1  0.5696320000000  0.4889180000000  0.5324130000000 1.0
C      1  0.5169540000000  0.4385330000000  0.4836030000000 1.0
C      1  0.5828570000000  0.5195510000000  0.4903020000000 1.0
C      1  0.5645040000000  0.4849850000000  0.4263240000000 1.0
C      1  0.5412210000000  0.5199390000000  0.5236240000000 1.0
C      1  0.5754730000000  0.4643030000000  0.4953210000000 1.0
C      1  0.4503920000000  0.5711810000000  0.4706000000000 1.0
C      1  0.5123430000000  0.5759600000000  0.5245210000000 1.0
C      1  0.4887830000000  0.4810580000000  0.4976930000000 1.0
C      1  0.4489750000000  0.4764740000000  0.4572700000000 1.0
C      1  0.4803550000000  0.4384100000000  0.4451290000000 1.0
C      1  0.4319050000000  0.4627070000000  0.4780700000000 1.0
C      1  0.4439850000000  0.4624000000000  0.5266150000000 1.0
C      1  0.5479050000000  0.5426260000000  0.5486280000000 1.0
C      1  0.5613320000000  0.5419050000000  0.4789310000000 1.0
C      1  0.4818800000000  0.4558880000000  0.5572110000000 1.0
C      1  0.4905610000000  0.5425700000000  0.5242730000000 1.0
C      1  0.5138110000000  0.5252760000000  0.5374110000000 1.0
C      1  0.5235990000000  0.4514660000000  0.5788630000000 1.0
C      1  0.5023800000000  0.4468340000000  0.5315780000000 1.0
C      1  0.4712750000000  0.5381770000000  0.5759350000000 1.0
C      1  0.4630440000000  0.4151960000000  0.5366840000000 1.0
C      1  0.5415870000000  0.5123280000000  0.5628180000000 1.0
C      1  0.4874760000000  0.4195120000000  0.5420090000000 1.0
C      1  0.5755300000000  0.5108520000000  0.4587300000000 1.0
C      1  0.4768290000000  0.5351840000000  0.4491520000000 1.0
C      1  0.4878400000000  0.4884940000000  0.5912030000000 1.0
C      1  0.4704610000000  0.5063210000000  0.4838640000000 1.0
C      1  0.5366830000000  0.5737800000000  0.5934160000000 1.0
C      1  0.4996240000000  0.4914130000000  0.5531140000000 1.0
C      1  0.4720120000000  0.5097260000000  0.5755150000000 1.0
C      1  0.4321430000000  0.5072370000000  0.4502550000000 1.0
C      1  0.4323680000000  0.4833040000000  0.5511370000000 1.0
C      1  0.4260790000000  0.5330580000000  0.4924550000000 1.0
C      1  0.5191480000000  0.4731340000000  0.5433250000000 1.0
C      1  0.5401620000000  0.4682880000000  0.4715000000000 1.0
C      1  0.5670310000000  0.4904230000000  0.4910530000000 1.0
C      1  0.4708350000000  0.4342850000000  0.4935040000000 1.0
C      1  0.5447880000000  0.5038630000000  0.4455380000000 1.0
C      1  0.4317830000000  0.4358190000000  0.4862450000000 1.0
C      1  0.5145660000000  0.4934560000000  0.4541240000000 1.0
C      1  0.5640860000000  0.4428120000000  0.5078410000000 1.0
C      1  0.4662050000000  0.4872310000000  0.5186240000000 1.0
C      1  0.4589650000000  0.5556860000000  0.4899260000000 1.0
C      1  0.4679460000000  0.5566160000000  0.5539700000000 1.0
C      1  0.4640360000000  0.5093700000000  0.4406810000000 1.0
C      1  0.5135810000000  0.5402790000000  0.4855130000000 1.0
C      1  0.5386380000000  0.4232500000000  0.5009610000000 1.0
C      1  0.5377980000000  0.4409240000000  0.5579340000000 1.0
C      1  0.5452500000000  0.4350510000000  0.5322670000000 1.0
C      1  0.4680540000000  0.4814230000000  0.4214530000000 1.0
C      1  0.5324860000000  0.5615690000000  0.5711190000000 1.0
C      1  0.5411790000000  0.3960270000000  0.4961440000000 1.0
C      1  0.5505960000000  0.4401640000000  0.4597880000000 1.0
C      1  0.5304280000000  0.4167470000000  0.4605170000000 1.0
C      1  0.5113680000000  0.5260970000000  0.4143440000000 1.0
C      1  0.4225490000000  0.5558790000000  0.5064300000000 1.0
C      1  0.4861490000000  0.5841430000000  0.4829500000000 1.0
C      1  0.5114330000000  0.5134930000000  0.5686610000000 1.0
C      1  0.4864000000000  0.5982600000000  0.4482770000000 1.0
C      1  0.4409560000000  0.5147640000000  0.4796070000000 1.0
C      1  0.5454750000000  0.4867930000000  0.5474930000000 1.0
C      1  0.4282810000000  0.4988480000000  0.5232720000000 1.0
C      1  0.4871690000000  0.5805590000000  0.5124370000000 1.0
C      1  0.4821500000000  0.6152880000000  0.4725750000000 1.0
C      1  0.4997170000000  0.5458510000000  0.4287040000000 1.0
C      1  0.4663730000000  0.4293970000000  0.4672250000000 1.0
C      1  0.4483330000000  0.4331610000000  0.5159100000000 1.0
C      1  0.5167640000000  0.4857410000000  0.4856090000000 1.0
C      1  0.4898330000000  0.5312180000000  0.4783000000000 1.0
C      1  0.4522290000000  0.5168100000000  0.5179300000000 1.0
C      1  0.4816360000000  0.4862640000000  0.4587240000000 1.0
C      1  0.4671750000000  0.5386410000000  0.5103730000000 1.0
C      1  0.4648010000000  0.5732300000000  0.5302490000000 1.0
C      1  0.5444740000000  0.4645770000000  0.4386150000000 1.0
C      1  0.5102340000000  0.5558060000000  0.5494070000000 1.0
END
