TITL C-2778427-5640-528 -0.00213062917236465 125000 -223.402857229346 0 0 40 (C1) n - 1
REM
REM in /home/nfs/bkarasulu/CARBON/AIRSS/Generating-Clusters/REBO/Only-C1/SD-CG/HFTN-CG
REM
REM
REM
REM
REM
REM ./C.cell (11c1c37f851c82e70ff6c80c92926a4b)
REM
REM compiler GCC version 9.2.1 20190827 (Red Hat 9.2.1-1)
REM options -cpp -mtune=generic -march=x86-64 -g -O0 -fpre-include=/usr/include/finclude/math-vector-fortran.h
REM seed -1613560078 -1849142341 -1074182816 998598667 703191776 417816512 304147556 314924507 1053782148 -894997409 271453187 -303861869 1359966778 1227683932 138895304 -1512969368 -575195898 -1448416306 135779997 -1723566628 -102687962 1223664405 -817318102 -1919034900 -1134512075 -709957260 1937608233 1671099135 2057505235 -1725116684 -1490644197 1609613802 -194563372
REM
CELL 1.54180   50.00000   50.00000   50.00000   90.00000   90.00000   90.00000
LATT -1
SFAC C  
C      1  0.5067550000000  0.5114790000000  0.4911880000000 1.0
C      1  0.5733710000000  0.4944580000000  0.5183540000000 1.0
C      1  0.4934460000000  0.5016520000000  0.4217020000000 1.0
C      1  0.5129280000000  0.5244300000000  0.5497920000000 1.0
C      1  0.4999310000000  0.5668970000000  0.5170240000000 1.0
C      1  0.4765160000000  0.5496250000000  0.5221100000000 1.0
C      1  0.5445440000000  0.5251730000000  0.5414780000000 1.0
C      1  0.5100250000000  0.5597120000000  0.4902800000000 1.0
C      1  0.4888850000000  0.5086460000000  0.4486940000000 1.0
C      1  0.5374970000000  0.4627670000000  0.4476470000000 1.0
C      1  0.4720400000000  0.5300730000000  0.4607260000000 1.0
C      1  0.4957740000000  0.4466240000000  0.4717800000000 1.0
C      1  0.4242260000000  0.4945370000000  0.5455290000000 1.0
C      1  0.4749260000000  0.4495850000000  0.4880720000000 1.0
C      1  0.5329270000000  0.4650870000000  0.5015060000000 1.0
C      1  0.5293340000000  0.4972820000000  0.5469200000000 1.0
C      1  0.5632510000000  0.5223440000000  0.5199010000000 1.0
C      1  0.5243570000000  0.5345050000000  0.4909980000000 1.0
C      1  0.5185980000000  0.4679880000000  0.4719790000000 1.0
C      1  0.4838430000000  0.5044030000000  0.5085250000000 1.0
C      1  0.5130810000000  0.4860640000000  0.4106870000000 1.0
C      1  0.5170580000000  0.4779910000000  0.5270870000000 1.0
C      1  0.4775020000000  0.4735480000000  0.5105410000000 1.0
C      1  0.5580290000000  0.5027730000000  0.4771750000000 1.0
C      1  0.4492930000000  0.4528320000000  0.5067100000000 1.0
C      1  0.4634220000000  0.5490140000000  0.4947470000000 1.0
C      1  0.5598720000000  0.4804360000000  0.4962620000000 1.0
C      1  0.4394290000000  0.4972910000000  0.5688090000000 1.0
C      1  0.5377800000000  0.4373900000000  0.5069260000000 1.0
C      1  0.4646660000000  0.4860820000000  0.5670510000000 1.0
C      1  0.5522520000000  0.5274770000000  0.4922210000000 1.0
C      1  0.4853760000000  0.5567480000000  0.4732500000000 1.0
C      1  0.5324310000000  0.4704400000000  0.4220170000000 1.0
C      1  0.4521810000000  0.5027210000000  0.5011630000000 1.0
C      1  0.4643840000000  0.4679910000000  0.5398550000000 1.0
C      1  0.4852290000000  0.5221940000000  0.5351730000000 1.0
C      1  0.5060220000000  0.4959730000000  0.4678580000000 1.0
C      1  0.4902960000000  0.4896230000000  0.5447930000000 1.0
C      1  0.4488600000000  0.5244130000000  0.4832050000000 1.0
C      1  0.4396620000000  0.4817350000000  0.5202670000000 1.0
END
