TITL C-2778422-5617-756 -0.00178065380336888 125000 -819.773285926705 0 0 138 (C1) n - 1
REM
REM in /home/nfs/bkarasulu/CARBON/AIRSS/Generating-Clusters/REBO/Only-C1/SD-CG/HFTN-CG
REM
REM
REM
REM
REM
REM ./C.cell (11c1c37f851c82e70ff6c80c92926a4b)
REM
REM compiler GCC version 9.2.1 20190827 (Red Hat 9.2.1-1)
REM options -cpp -mtune=generic -march=x86-64 -g -O0 -fpre-include=/usr/include/finclude/math-vector-fortran.h
REM seed 1473465939 296895927 122740674 221719445 1028561586 125989575 -953307573 974392374 875156786 -1718259606 883596755 1965509693 -462729351 1758603188 1722899094 1888854748 -815058141 2081948309 222105816 -1130642292 -1954505437 479379866 -930872428 243000643 567752127 1732623363 -33007088 -1125096122 -1922902780 1101710960 214325069 446460976 -1980011805
REM
CELL 1.54180   50.00000   50.00000   50.00000   90.00000   90.00000   90.00000
LATT -1
SFAC C  
C      1  0.5014910000000  0.5799710000000  0.4547950000000 1.0
C      1  0.5062510000000  0.5121770000000  0.4800990000000 1.0
C      1  0.4952250000000  0.5339490000000  0.4157400000000 1.0
C      1  0.4158510000000  0.4604190000000  0.5520810000000 1.0
C      1  0.4443650000000  0.4349850000000  0.4773550000000 1.0
C      1  0.5256830000000  0.5682360000000  0.4452380000000 1.0
C      1  0.5879590000000  0.4421790000000  0.4663070000000 1.0
C      1  0.5507530000000  0.4816240000000  0.5786920000000 1.0
C      1  0.5235340000000  0.5448010000000  0.4251930000000 1.0
C      1  0.4757940000000  0.5672280000000  0.4486160000000 1.0
C      1  0.4742300000000  0.4642800000000  0.5742870000000 1.0
C      1  0.5676370000000  0.5721300000000  0.5480020000000 1.0
C      1  0.5025540000000  0.4193760000000  0.5545900000000 1.0
C      1  0.4735990000000  0.4087010000000  0.5393470000000 1.0
C      1  0.5884760000000  0.4936680000000  0.5199110000000 1.0
C      1  0.4974120000000  0.5873610000000  0.5139570000000 1.0
C      1  0.4509450000000  0.5455650000000  0.4840690000000 1.0
C      1  0.5381530000000  0.4810640000000  0.5140220000000 1.0
C      1  0.4643940000000  0.5373650000000  0.5525780000000 1.0
C      1  0.4629070000000  0.4706740000000  0.5994600000000 1.0
C      1  0.4319980000000  0.4853650000000  0.4325580000000 1.0
C      1  0.4974760000000  0.5021730000000  0.4487600000000 1.0
C      1  0.5583430000000  0.5102450000000  0.4636070000000 1.0
C      1  0.4306720000000  0.5614290000000  0.5281910000000 1.0
C      1  0.4531200000000  0.5250320000000  0.4604750000000 1.0
C      1  0.5795200000000  0.5460840000000  0.5554090000000 1.0
C      1  0.4501230000000  0.4443710000000  0.4512890000000 1.0
C      1  0.4464490000000  0.4946610000000  0.4706520000000 1.0
C      1  0.5024770000000  0.5073070000000  0.4031040000000 1.0
C      1  0.4419130000000  0.4365470000000  0.5170100000000 1.0
C      1  0.4433420000000  0.4963310000000  0.5027890000000 1.0
C      1  0.4507200000000  0.5111690000000  0.4300660000000 1.0
C      1  0.4188640000000  0.4822520000000  0.4587120000000 1.0
C      1  0.5437250000000  0.4901210000000  0.5464190000000 1.0
C      1  0.3940580000000  0.4800670000000  0.4989250000000 1.0
C      1  0.5373580000000  0.5860980000000  0.5563340000000 1.0
C      1  0.4390900000000  0.4702220000000  0.5213370000000 1.0
C      1  0.4691620000000  0.4446380000000  0.4987830000000 1.0
C      1  0.4255310000000  0.5457700000000  0.5025780000000 1.0
C      1  0.4525670000000  0.4215550000000  0.5609000000000 1.0
C      1  0.4797960000000  0.4070660000000  0.4886170000000 1.0
C      1  0.4715670000000  0.5101810000000  0.5425950000000 1.0
C      1  0.5581580000000  0.5207170000000  0.4959940000000 1.0
C      1  0.4660160000000  0.5986010000000  0.5171790000000 1.0
C      1  0.5244050000000  0.4445040000000  0.5061330000000 1.0
C      1  0.4826260000000  0.4679770000000  0.4861950000000 1.0
C      1  0.5052450000000  0.4684720000000  0.5741620000000 1.0
C      1  0.4080220000000  0.5524870000000  0.4780290000000 1.0
C      1  0.4054320000000  0.4650470000000  0.4770840000000 1.0
C      1  0.4331430000000  0.4376890000000  0.5477370000000 1.0
C      1  0.5422050000000  0.4451610000000  0.4226860000000 1.0
C      1  0.5092780000000  0.5327570000000  0.4530800000000 1.0
C      1  0.5678970000000  0.4677550000000  0.5238960000000 1.0
C      1  0.4791160000000  0.4337150000000  0.5696160000000 1.0
C      1  0.5957100000000  0.5314440000000  0.5093200000000 1.0
C      1  0.5305120000000  0.5020970000000  0.4054300000000 1.0
C      1  0.4433970000000  0.5862230000000  0.5263730000000 1.0
C      1  0.4889910000000  0.4311390000000  0.5189530000000 1.0
C      1  0.5149860000000  0.5864660000000  0.5801190000000 1.0
C      1  0.5062040000000  0.5986660000000  0.4767000000000 1.0
C      1  0.5567680000000  0.4471470000000  0.5039620000000 1.0
C      1  0.5301400000000  0.4696390000000  0.4845330000000 1.0
C      1  0.4556530000000  0.4744650000000  0.5508610000000 1.0
C      1  0.5415120000000  0.4785020000000  0.4218710000000 1.0
C      1  0.5464790000000  0.5103610000000  0.5965160000000 1.0
C      1  0.5587210000000  0.5813250000000  0.4881130000000 1.0
C      1  0.5016050000000  0.5329390000000  0.5903000000000 1.0
C      1  0.5320570000000  0.5409930000000  0.6002200000000 1.0
C      1  0.4918650000000  0.4941560000000  0.5002230000000 1.0
C      1  0.5937100000000  0.5152340000000  0.4425140000000 1.0
C      1  0.5273990000000  0.5256140000000  0.5004080000000 1.0
C      1  0.5248280000000  0.5951280000000  0.5267880000000 1.0
C      1  0.4906210000000  0.5434710000000  0.5317330000000 1.0
C      1  0.4882680000000  0.4498910000000  0.4407290000000 1.0
C      1  0.4800940000000  0.4971360000000  0.4232950000000 1.0
C      1  0.5833040000000  0.5623960000000  0.5022700000000 1.0
C      1  0.5190380000000  0.5498500000000  0.4800490000000 1.0
C      1  0.5118410000000  0.4955070000000  0.5234560000000 1.0
C      1  0.4821080000000  0.6093060000000  0.4919200000000 1.0
C      1  0.4689390000000  0.5092850000000  0.5124140000000 1.0
C      1  0.4140350000000  0.5199710000000  0.4242270000000 1.0
C      1  0.5640560000000  0.4884540000000  0.4407790000000 1.0
C      1  0.5767630000000  0.4272010000000  0.4878650000000 1.0
C      1  0.4815340000000  0.4199530000000  0.4634260000000 1.0
C      1  0.5906450000000  0.5223280000000  0.5390810000000 1.0
C      1  0.4720130000000  0.5378150000000  0.4347610000000 1.0
C      1  0.5345230000000  0.4292180000000  0.4482810000000 1.0
C      1  0.4363920000000  0.5417300000000  0.5486630000000 1.0
C      1  0.5676950000000  0.4608790000000  0.5573640000000 1.0
C      1  0.4584040000000  0.4077470000000  0.5090470000000 1.0
C      1  0.5072450000000  0.4073420000000  0.5039230000000 1.0
C      1  0.5448560000000  0.5260640000000  0.4135250000000 1.0
C      1  0.5878370000000  0.5051220000000  0.4901250000000 1.0
C      1  0.5017250000000  0.5078080000000  0.5786290000000 1.0
C      1  0.5099590000000  0.4506190000000  0.5307900000000 1.0
C      1  0.5426260000000  0.5353490000000  0.5445240000000 1.0
C      1  0.5863970000000  0.4679860000000  0.4552560000000 1.0
C      1  0.5051430000000  0.4213380000000  0.4412800000000 1.0
C      1  0.3956220000000  0.5086170000000  0.4940210000000 1.0
C      1  0.5589630000000  0.5287270000000  0.5738060000000 1.0
C      1  0.5772000000000  0.4938640000000  0.5519380000000 1.0
C      1  0.4033220000000  0.4219800000000  0.5010190000000 1.0
C      1  0.5472290000000  0.5613930000000  0.4674050000000 1.0
C      1  0.3968270000000  0.5200260000000  0.4446240000000 1.0
C      1  0.4228140000000  0.5161580000000  0.5424460000000 1.0
C      1  0.4198940000000  0.5164970000000  0.5112160000000 1.0
C      1  0.5516550000000  0.5780220000000  0.5200620000000 1.0
C      1  0.5077680000000  0.5642540000000  0.5937980000000 1.0
C      1  0.5072350000000  0.4753380000000  0.4650460000000 1.0
C      1  0.3941830000000  0.5276570000000  0.4717050000000 1.0
C      1  0.5688170000000  0.5190200000000  0.4262470000000 1.0
C      1  0.4734650000000  0.4675530000000  0.4186510000000 1.0
C      1  0.4986400000000  0.5590050000000  0.5025320000000 1.0
C      1  0.5512060000000  0.4334100000000  0.5556680000000 1.0
C      1  0.5679530000000  0.5390550000000  0.4618480000000 1.0
C      1  0.4961800000000  0.5005650000000  0.5519840000000 1.0
C      1  0.5327050000000  0.4070570000000  0.5173140000000 1.0
C      1  0.4680360000000  0.4716730000000  0.4579860000000 1.0
C      1  0.5215100000000  0.4873430000000  0.5940720000000 1.0
C      1  0.5919980000000  0.5430880000000  0.4773820000000 1.0
C      1  0.5170910000000  0.4632490000000  0.4369870000000 1.0
C      1  0.5596040000000  0.5447900000000  0.5200050000000 1.0
C      1  0.5193090000000  0.4667320000000  0.5500500000000 1.0
C      1  0.5430380000000  0.4413380000000  0.4725400000000 1.0
C      1  0.5576380000000  0.4073250000000  0.5024980000000 1.0
C      1  0.5172480000000  0.5269610000000  0.5306360000000 1.0
C      1  0.5390240000000  0.5561040000000  0.5703740000000 1.0
C      1  0.5958120000000  0.4959640000000  0.4635480000000 1.0
C      1  0.4521820000000  0.5707420000000  0.4646780000000 1.0
C      1  0.4168200000000  0.4391790000000  0.4848320000000 1.0
C      1  0.5028140000000  0.4030560000000  0.4202650000000 1.0
C      1  0.4277340000000  0.4905030000000  0.5538870000000 1.0
C      1  0.4461610000000  0.4613470000000  0.4261490000000 1.0
C      1  0.5295210000000  0.4182450000000  0.5447020000000 1.0
C      1  0.4224360000000  0.5715660000000  0.4618830000000 1.0
C      1  0.4047990000000  0.4711660000000  0.5239870000000 1.0
C      1  0.4723580000000  0.5393490000000  0.5032220000000 1.0
C      1  0.5299640000000  0.5974570000000  0.4931250000000 1.0
END
