TITL C-2778432-5617-993 -0.460607605875604 125000 -623.825989876724 0 0 108 (C1) n - 1
REM
REM in /home/nfs/bkarasulu/CARBON/AIRSS/Generating-Clusters/REBO/Only-C1/SD-CG/HFTN-CG
REM
REM
REM
REM
REM
REM ./C.cell (11c1c37f851c82e70ff6c80c92926a4b)
REM
REM compiler GCC version 9.2.1 20190827 (Red Hat 9.2.1-1)
REM options -cpp -mtune=generic -march=x86-64 -g -O0 -fpre-include=/usr/include/finclude/math-vector-fortran.h
REM seed -1601105163 -1840616934 -142928524 -288850199 -2115876034 -508049300 -956961423 -1976987603 1059265254 1579420822 -1498383711 -1656302488 -1716852887 1618722028 1697456237 -213575416 -1263160890 176779943 599270184 -235523084 -306494062 309344734 -1726961447 1850586014 -1642132875 1418855994 -1723607687 -184948618 1199082988 1334809318 -12802443 2043285275 -2032320339
REM
CELL 1.54180   50.00000   50.00000   50.00000   90.00000   90.00000   90.00000
LATT -1
SFAC C  
C      1  0.4185100000000  0.4927500000000  0.5239460000000 1.0
C      1  0.4742430000000  0.5819940000000  0.4773150000000 1.0
C      1  0.5794530000000  0.4391830000000  0.5063680000000 1.0
C      1  0.6054590000000  0.4881130000000  0.4906910000000 1.0
C      1  0.5906110000000  0.5337360000000  0.5226710000000 1.0
C      1  0.5618150000000  0.5091280000000  0.4375770000000 1.0
C      1  0.4987880000000  0.5864420000000  0.4603220000000 1.0
C      1  0.4843460000000  0.4579400000000  0.4614450000000 1.0
C      1  0.4976630000000  0.4089980000000  0.4983750000000 1.0
C      1  0.5216140000000  0.4372120000000  0.4373210000000 1.0
C      1  0.4820830000000  0.5085640000000  0.5172070000000 1.0
C      1  0.4283100000000  0.4779790000000  0.4420760000000 1.0
C      1  0.4242730000000  0.5192700000000  0.5373990000000 1.0
C      1  0.4196100000000  0.4485260000000  0.4989750000000 1.0
C      1  0.4943430000000  0.5981220000000  0.5399150000000 1.0
C      1  0.5899020000000  0.5735820000000  0.4329880000000 1.0
C      1  0.5251610000000  0.4664320000000  0.5396170000000 1.0
C      1  0.4955100000000  0.4580940000000  0.5037970000000 1.0
C      1  0.5164780000000  0.5369780000000  0.6077120000000 1.0
C      1  0.4953770000000  0.4457650000000  0.4326200000000 1.0
C      1  0.5126390000000  0.5644030000000  0.5054020000000 1.0
C      1  0.5514130000000  0.4898250000000  0.4916770000000 1.0
C      1  0.5410830000000  0.5906850000000  0.5153450000000 1.0
C      1  0.5129120000000  0.4729120000000  0.4557230000000 1.0
C      1  0.4757600000000  0.5063850000000  0.5485580000000 1.0
C      1  0.5164620000000  0.4577580000000  0.5848150000000 1.0
C      1  0.4231300000000  0.5402350000000  0.4804050000000 1.0
C      1  0.5219070000000  0.4560790000000  0.4827580000000 1.0
C      1  0.4380190000000  0.4221800000000  0.4866300000000 1.0
C      1  0.5447270000000  0.4424790000000  0.4617250000000 1.0
C      1  0.4714290000000  0.5502060000000  0.4878660000000 1.0
C      1  0.5699020000000  0.4765960000000  0.5504110000000 1.0
C      1  0.5490380000000  0.5688730000000  0.5298580000000 1.0
C      1  0.4128330000000  0.4775700000000  0.4710580000000 1.0
C      1  0.4637620000000  0.5253840000000  0.4993600000000 1.0
C      1  0.5126030000000  0.5010910000000  0.4659850000000 1.0
C      1  0.5425240000000  0.5676580000000  0.4592640000000 1.0
C      1  0.4410890000000  0.5209090000000  0.5619680000000 1.0
C      1  0.5616670000000  0.5384040000000  0.5383410000000 1.0
C      1  0.5845790000000  0.4738780000000  0.4695990000000 1.0
C      1  0.5400640000000  0.6046270000000  0.4886690000000 1.0
C      1  0.4224400000000  0.4951710000000  0.4956240000000 1.0
C      1  0.4761200000000  0.4169480000000  0.5686110000000 1.0
C      1  0.4445260000000  0.4531200000000  0.4382490000000 1.0
C      1  0.5588180000000  0.5065800000000  0.5387060000000 1.0
C      1  0.5323090000000  0.5495580000000  0.5518030000000 1.0
C      1  0.4645440000000  0.4135370000000  0.4914260000000 1.0
C      1  0.4904560000000  0.5072040000000  0.4155890000000 1.0
C      1  0.4478120000000  0.4967790000000  0.5751850000000 1.0
C      1  0.5090480000000  0.5969920000000  0.5125340000000 1.0
C      1  0.5274890000000  0.5016740000000  0.4890350000000 1.0
C      1  0.5662640000000  0.4627600000000  0.4522100000000 1.0
C      1  0.4977400000000  0.4512430000000  0.5328410000000 1.0
C      1  0.4703900000000  0.5379340000000  0.5581480000000 1.0
C      1  0.5667510000000  0.5706880000000  0.4458280000000 1.0
C      1  0.4987590000000  0.5687370000000  0.4369050000000 1.0
C      1  0.4502970000000  0.4530510000000  0.5086740000000 1.0
C      1  0.4256340000000  0.5606980000000  0.5023110000000 1.0
C      1  0.5806670000000  0.4618330000000  0.5258420000000 1.0
C      1  0.5186810000000  0.5402000000000  0.4931020000000 1.0
C      1  0.4260210000000  0.4464240000000  0.4659460000000 1.0
C      1  0.5261980000000  0.4200860000000  0.5421270000000 1.0
C      1  0.4673850000000  0.4917760000000  0.4208470000000 1.0
C      1  0.4985410000000  0.5211430000000  0.4537330000000 1.0
C      1  0.5146800000000  0.5292330000000  0.5812830000000 1.0
C      1  0.4902820000000  0.4539420000000  0.5656140000000 1.0
C      1  0.4256130000000  0.5225430000000  0.4446290000000 1.0
C      1  0.5266460000000  0.5903160000000  0.4681850000000 1.0
C      1  0.5265780000000  0.4833560000000  0.5878350000000 1.0
C      1  0.5959910000000  0.5108760000000  0.5084200000000 1.0
C      1  0.5072890000000  0.5667590000000  0.5380190000000 1.0
C      1  0.4498770000000  0.5588710000000  0.5448870000000 1.0
C      1  0.5126250000000  0.5134740000000  0.5137050000000 1.0
C      1  0.6126840000000  0.5764310000000  0.4203520000000 1.0
C      1  0.5726060000000  0.4905430000000  0.5133540000000 1.0
C      1  0.5272660000000  0.4996640000000  0.5393530000000 1.0
C      1  0.4587460000000  0.4465670000000  0.5673410000000 1.0
C      1  0.4536590000000  0.4297310000000  0.5291370000000 1.0
C      1  0.4663890000000  0.4798120000000  0.5204340000000 1.0
C      1  0.4864280000000  0.5435760000000  0.4422520000000 1.0
C      1  0.5362040000000  0.5237310000000  0.4407650000000 1.0
C      1  0.4990940000000  0.5468010000000  0.5613840000000 1.0
C      1  0.4419270000000  0.5751060000000  0.4778340000000 1.0
C      1  0.4692380000000  0.4615330000000  0.4247810000000 1.0
C      1  0.5181080000000  0.4343630000000  0.5628030000000 1.0
C      1  0.5990740000000  0.4555780000000  0.4909560000000 1.0
C      1  0.4598120000000  0.4760610000000  0.5525820000000 1.0
C      1  0.4331060000000  0.4472680000000  0.5456120000000 1.0
C      1  0.5312040000000  0.5412050000000  0.4651380000000 1.0
C      1  0.4688290000000  0.4701930000000  0.4876350000000 1.0
C      1  0.5512960000000  0.4311640000000  0.4931100000000 1.0
C      1  0.4789490000000  0.4956960000000  0.5812370000000 1.0
C      1  0.5330070000000  0.4498930000000  0.5143040000000 1.0
C      1  0.5277000000000  0.4792120000000  0.4293280000000 1.0
C      1  0.4332980000000  0.5529850000000  0.4526690000000 1.0
C      1  0.4067570000000  0.5094650000000  0.4608080000000 1.0
C      1  0.4290450000000  0.5481560000000  0.5280910000000 1.0
C      1  0.5233420000000  0.5054310000000  0.5706220000000 1.0
C      1  0.5254000000000  0.4165360000000  0.5100120000000 1.0
C      1  0.5479750000000  0.4630080000000  0.5609250000000 1.0
C      1  0.5178680000000  0.5064560000000  0.4220920000000 1.0
C      1  0.4173990000000  0.4637910000000  0.5284670000000 1.0
C      1  0.5563000000000  0.4808010000000  0.4332460000000 1.0
C      1  0.4637960000000  0.5490820000000  0.4575540000000 1.0
C      1  0.4419440000000  0.5018870000000  0.4322860000000 1.0
C      1  0.4382130000000  0.5174030000000  0.4892010000000 1.0
C      1  0.4789570000000  0.4254560000000  0.5401630000000 1.0
C      1  0.4868170000000  0.4349600000000  0.4825640000000 1.0
END
