TITL C-2778431-5191-202 0.00379551747081721 125000 -272.244635381256 0 0 47 (C1) n - 1
REM
REM in /home/nfs/bkarasulu/CARBON/AIRSS/Generating-Clusters/REBO/Only-C1/SD-CG/HFTN-CG
REM
REM
REM
REM
REM
REM ./C.cell (11c1c37f851c82e70ff6c80c92926a4b)
REM
REM compiler GCC version 9.2.1 20190827 (Red Hat 9.2.1-1)
REM options -cpp -mtune=generic -march=x86-64 -g -O0 -fpre-include=/usr/include/finclude/math-vector-fortran.h
REM seed 60722751 -2055719295 -1061348263 -1471311930 -1188890715 1268416642 -1903243275 -1821034650 1005002166 -7578414 2099961588 1172428360 -607809663 -858688545 47450467 746372408 591173251 -1033154791 -1365549033 1485511547 -3244387 -710953664 -816925102 1638729311 -732271150 -49767137 -1988161983 1897687224 -296084606 -2069870326 739665759 -1460744214 1337108791
REM
CELL 1.54180   50.00000   50.00000   50.00000   90.00000   90.00000   90.00000
LATT -1
SFAC C  
C      1  0.5247520000000  0.4949990000000  0.5616130000000 1.0
C      1  0.4501420000000  0.5577940000000  0.5485570000000 1.0
C      1  0.5216580000000  0.5434370000000  0.4388500000000 1.0
C      1  0.4945460000000  0.4156410000000  0.4877240000000 1.0
C      1  0.5071510000000  0.5187500000000  0.4340410000000 1.0
C      1  0.5411490000000  0.4797820000000  0.4273580000000 1.0
C      1  0.5424940000000  0.4871850000000  0.5427600000000 1.0
C      1  0.4569340000000  0.5436300000000  0.4806840000000 1.0
C      1  0.5207160000000  0.4970430000000  0.4230200000000 1.0
C      1  0.4424380000000  0.5179080000000  0.4880940000000 1.0
C      1  0.4885230000000  0.5480860000000  0.6069240000000 1.0
C      1  0.4680390000000  0.4653920000000  0.5288670000000 1.0
C      1  0.5670970000000  0.4958290000000  0.4703360000000 1.0
C      1  0.5719130000000  0.4645020000000  0.4762630000000 1.0
C      1  0.4773350000000  0.5330170000000  0.5039430000000 1.0
C      1  0.4389910000000  0.4999470000000  0.4659750000000 1.0
C      1  0.5543400000000  0.5089280000000  0.4930780000000 1.0
C      1  0.5606550000000  0.4603700000000  0.5037230000000 1.0
C      1  0.5362930000000  0.5302990000000  0.4866510000000 1.0
C      1  0.5094840000000  0.4251960000000  0.5359950000000 1.0
C      1  0.4892220000000  0.5622350000000  0.6289720000000 1.0
C      1  0.4968570000000  0.4806070000000  0.5688710000000 1.0
C      1  0.5328850000000  0.4421890000000  0.5084610000000 1.0
C      1  0.4876030000000  0.4804650000000  0.4887670000000 1.0
C      1  0.4797250000000  0.5667050000000  0.4410440000000 1.0
C      1  0.5561730000000  0.4730930000000  0.4494960000000 1.0
C      1  0.5063390000000  0.5669520000000  0.4336450000000 1.0
C      1  0.4718640000000  0.5396070000000  0.5623680000000 1.0
C      1  0.4796370000000  0.4643540000000  0.5546730000000 1.0
C      1  0.4555650000000  0.4665150000000  0.4012050000000 1.0
C      1  0.4471990000000  0.4841210000000  0.5245130000000 1.0
C      1  0.5535300000000  0.4907230000000  0.5152560000000 1.0
C      1  0.4688520000000  0.5450000000000  0.4552680000000 1.0
C      1  0.4817530000000  0.5167250000000  0.4506200000000 1.0
C      1  0.4568320000000  0.4817650000000  0.4224800000000 1.0
C      1  0.5101580000000  0.5294050000000  0.4965260000000 1.0
C      1  0.4581640000000  0.4978030000000  0.4448540000000 1.0
C      1  0.4877790000000  0.5330190000000  0.5834450000000 1.0
C      1  0.4462370000000  0.5105220000000  0.5151880000000 1.0
C      1  0.4630080000000  0.5316020000000  0.5310960000000 1.0
C      1  0.4881730000000  0.5100200000000  0.4809420000000 1.0
C      1  0.5483620000000  0.4566290000000  0.5352740000000 1.0
C      1  0.5298790000000  0.4339670000000  0.5478210000000 1.0
C      1  0.4847170000000  0.4601340000000  0.5063320000000 1.0
C      1  0.5393190000000  0.5429850000000  0.4612300000000 1.0
C      1  0.5035750000000  0.5098680000000  0.5809970000000 1.0
C      1  0.5019450000000  0.4352530000000  0.5061990000000 1.0
END
