TITL C-2778426-5645-973 0.00816204067078946 125000 -1001.94350189108 0 0 173 (C1) n - 1
REM
REM in /home/nfs/bkarasulu/CARBON/AIRSS/Generating-Clusters/REBO/Only-C1/SD-CG/HFTN-CG
REM
REM
REM
REM
REM
REM ./C.cell (11c1c37f851c82e70ff6c80c92926a4b)
REM
REM compiler GCC version 9.2.1 20190827 (Red Hat 9.2.1-1)
REM options -cpp -mtune=generic -march=x86-64 -g -O0 -fpre-include=/usr/include/finclude/math-vector-fortran.h
REM seed -1138135414 1306773743 1797728025 -1694498106 2134020755 -1812169204 -126345027 323570438 -281199349 229137696 -485835007 -1876863913 1466251034 -755011445 1206376886 -1069328898 2012379934 -1234003246 861021563 2120236318 865231089 207719394 247031327 -1570460667 -1150849910 408602128 1997451146 1943267383 -1436571406 -1959402223 -75610943 -779782919 -1310677530
REM
CELL 1.54180   50.00000   50.00000   50.00000   90.00000   90.00000   90.00000
LATT -1
SFAC C  
C      1  0.5538990000000  0.5130740000000  0.4105350000000 1.0
C      1  0.4562760000000  0.5395650000000  0.5891580000000 1.0
C      1  0.5633600000000  0.5599240000000  0.5034330000000 1.0
C      1  0.5901960000000  0.5400000000000  0.5067510000000 1.0
C      1  0.3643490000000  0.5502350000000  0.5376840000000 1.0
C      1  0.4635360000000  0.5490850000000  0.5161410000000 1.0
C      1  0.4359450000000  0.5254990000000  0.4382500000000 1.0
C      1  0.5150800000000  0.5325820000000  0.5654180000000 1.0
C      1  0.4735060000000  0.5813190000000  0.4295200000000 1.0
C      1  0.4614190000000  0.5597760000000  0.4738240000000 1.0
C      1  0.4965610000000  0.5367350000000  0.4464480000000 1.0
C      1  0.5195090000000  0.4401700000000  0.5522360000000 1.0
C      1  0.5889130000000  0.5144640000000  0.5282610000000 1.0
C      1  0.5069020000000  0.4007370000000  0.4434960000000 1.0
C      1  0.5231360000000  0.5866470000000  0.5074210000000 1.0
C      1  0.4336710000000  0.5079210000000  0.4806100000000 1.0
C      1  0.5988320000000  0.5199940000000  0.4373600000000 1.0
C      1  0.5599890000000  0.5594770000000  0.4724600000000 1.0
C      1  0.4605410000000  0.5950980000000  0.4552940000000 1.0
C      1  0.5137410000000  0.4209950000000  0.4232340000000 1.0
C      1  0.4497590000000  0.4921320000000  0.4573230000000 1.0
C      1  0.5680870000000  0.4248040000000  0.5109780000000 1.0
C      1  0.4806310000000  0.4321390000000  0.5568310000000 1.0
C      1  0.4244840000000  0.4920100000000  0.4196920000000 1.0
C      1  0.4342220000000  0.4846810000000  0.5058310000000 1.0
C      1  0.4517640000000  0.6001550000000  0.5133070000000 1.0
C      1  0.4521770000000  0.5944490000000  0.5436770000000 1.0
C      1  0.5364260000000  0.5913360000000  0.4777390000000 1.0
C      1  0.5099990000000  0.5120940000000  0.4492810000000 1.0
C      1  0.4775250000000  0.5656860000000  0.5837530000000 1.0
C      1  0.3981620000000  0.4791840000000  0.4785020000000 1.0
C      1  0.5851540000000  0.5142260000000  0.5557190000000 1.0
C      1  0.5113220000000  0.3931100000000  0.4999450000000 1.0
C      1  0.4708450000000  0.5947190000000  0.5668710000000 1.0
C      1  0.5824930000000  0.5424580000000  0.5651510000000 1.0
C      1  0.4130230000000  0.5512950000000  0.5471220000000 1.0
C      1  0.5341480000000  0.4943180000000  0.4559800000000 1.0
C      1  0.4226260000000  0.5228830000000  0.5076510000000 1.0
C      1  0.5726830000000  0.4826710000000  0.5936780000000 1.0
C      1  0.5533700000000  0.4312640000000  0.4727650000000 1.0
C      1  0.5530370000000  0.4459610000000  0.5535660000000 1.0
C      1  0.5301490000000  0.4554170000000  0.5073130000000 1.0
C      1  0.4995170000000  0.5977120000000  0.5209990000000 1.0
C      1  0.4854980000000  0.5521910000000  0.4200870000000 1.0
C      1  0.4821350000000  0.4731230000000  0.5234500000000 1.0
C      1  0.4492710000000  0.5355000000000  0.4903670000000 1.0
C      1  0.5382830000000  0.5355500000000  0.4649580000000 1.0
C      1  0.4925690000000  0.4597130000000  0.4804320000000 1.0
C      1  0.5064050000000  0.5867050000000  0.4673450000000 1.0
C      1  0.4946420000000  0.5451800000000  0.5243970000000 1.0
C      1  0.5595960000000  0.5038700000000  0.6128050000000 1.0
C      1  0.4974870000000  0.5141710000000  0.4926860000000 1.0
C      1  0.5432030000000  0.4377900000000  0.5841600000000 1.0
C      1  0.5569660000000  0.4569240000000  0.6025540000000 1.0
C      1  0.4472360000000  0.5239540000000  0.5284010000000 1.0
C      1  0.4831090000000  0.4402410000000  0.4466010000000 1.0
C      1  0.5164320000000  0.5647870000000  0.4270830000000 1.0
C      1  0.5493270000000  0.5664710000000  0.4182020000000 1.0
C      1  0.4702800000000  0.4925850000000  0.3997930000000 1.0
C      1  0.5808860000000  0.4450720000000  0.4981160000000 1.0
C      1  0.4894340000000  0.4210040000000  0.4729610000000 1.0
C      1  0.3977130000000  0.5241750000000  0.4685820000000 1.0
C      1  0.4501340000000  0.4039440000000  0.5231580000000 1.0
C      1  0.5802660000000  0.5753360000000  0.5573380000000 1.0
C      1  0.5939240000000  0.4809280000000  0.4866280000000 1.0
C      1  0.4640120000000  0.4996020000000  0.5117990000000 1.0
C      1  0.5295090000000  0.5275440000000  0.3977680000000 1.0
C      1  0.5315520000000  0.5406240000000  0.5941970000000 1.0
C      1  0.5000340000000  0.5068750000000  0.5641970000000 1.0
C      1  0.4513800000000  0.4172160000000  0.4854490000000 1.0
C      1  0.4302610000000  0.4523910000000  0.5463230000000 1.0
C      1  0.4753480000000  0.5263820000000  0.4022020000000 1.0
C      1  0.5835070000000  0.4643260000000  0.4188480000000 1.0
C      1  0.5369430000000  0.4544890000000  0.4539050000000 1.0
C      1  0.4805670000000  0.4607350000000  0.4033730000000 1.0
C      1  0.5949030000000  0.4907340000000  0.4362830000000 1.0
C      1  0.4692560000000  0.4470540000000  0.5179320000000 1.0
C      1  0.4635810000000  0.5578190000000  0.5548520000000 1.0
C      1  0.4480770000000  0.4304830000000  0.5320550000000 1.0
C      1  0.5673230000000  0.5906130000000  0.5331830000000 1.0
C      1  0.4599710000000  0.5140100000000  0.5976670000000 1.0
C      1  0.4925240000000  0.4916580000000  0.5916280000000 1.0
C      1  0.4934760000000  0.5130350000000  0.5249290000000 1.0
C      1  0.5167630000000  0.4358220000000  0.4824790000000 1.0
C      1  0.5141950000000  0.5373690000000  0.4822060000000 1.0
C      1  0.5649570000000  0.5199000000000  0.4733720000000 1.0
C      1  0.5501080000000  0.5296190000000  0.6089050000000 1.0
C      1  0.5377150000000  0.4092930000000  0.4899450000000 1.0
C      1  0.3923390000000  0.5052190000000  0.4885450000000 1.0
C      1  0.5061960000000  0.4612900000000  0.4429420000000 1.0
C      1  0.4608450000000  0.5031560000000  0.4310080000000 1.0
C      1  0.5545590000000  0.5988030000000  0.5057020000000 1.0
C      1  0.4967390000000  0.5975340000000  0.4386450000000 1.0
C      1  0.5106380000000  0.4416400000000  0.5911440000000 1.0
C      1  0.5787680000000  0.4884320000000  0.5663910000000 1.0
C      1  0.4482480000000  0.4712980000000  0.4104150000000 1.0
C      1  0.5547530000000  0.4945720000000  0.5223730000000 1.0
C      1  0.5552620000000  0.4883170000000  0.4335020000000 1.0
C      1  0.4930500000000  0.5583230000000  0.4704710000000 1.0
C      1  0.5062450000000  0.5595150000000  0.5835990000000 1.0
C      1  0.4608590000000  0.4298630000000  0.5838260000000 1.0
C      1  0.6142780000000  0.4661220000000  0.4735290000000 1.0
C      1  0.5769580000000  0.5522100000000  0.5336870000000 1.0
C      1  0.5233420000000  0.5638830000000  0.5537600000000 1.0
C      1  0.5040950000000  0.4794040000000  0.4157760000000 1.0
C      1  0.4355870000000  0.5499070000000  0.4559450000000 1.0
C      1  0.5734230000000  0.4911830000000  0.4622280000000 1.0
C      1  0.5028030000000  0.3926160000000  0.5262420000000 1.0
C      1  0.4061050000000  0.4581140000000  0.4963460000000 1.0
C      1  0.4790430000000  0.4540650000000  0.5911810000000 1.0
C      1  0.4623010000000  0.4595840000000  0.5553510000000 1.0
C      1  0.5075400000000  0.4875710000000  0.5390000000000 1.0
C      1  0.5794210000000  0.4738860000000  0.5148920000000 1.0
C      1  0.5846950000000  0.4402930000000  0.4667090000000 1.0
C      1  0.4344920000000  0.5453390000000  0.5675200000000 1.0
C      1  0.4210390000000  0.4973310000000  0.5621120000000 1.0
C      1  0.4715430000000  0.3959030000000  0.4979230000000 1.0
C      1  0.5797890000000  0.5400370000000  0.4522750000000 1.0
C      1  0.4825640000000  0.6056630000000  0.4751250000000 1.0
C      1  0.4363680000000  0.4717150000000  0.5739780000000 1.0
C      1  0.5124690000000  0.4842450000000  0.6083380000000 1.0
C      1  0.4980830000000  0.4067260000000  0.5493570000000 1.0
C      1  0.5040770000000  0.5915000000000  0.5600270000000 1.0
C      1  0.5572800000000  0.3891650000000  0.4966530000000 1.0
C      1  0.5145760000000  0.4304580000000  0.5217660000000 1.0
C      1  0.5037280000000  0.4840570000000  0.4993420000000 1.0
C      1  0.6038050000000  0.4589280000000  0.4456270000000 1.0
C      1  0.5051040000000  0.5104920000000  0.4016510000000 1.0
C      1  0.5318360000000  0.4881430000000  0.4014500000000 1.0
C      1  0.4723450000000  0.4984280000000  0.4792660000000 1.0
C      1  0.4879710000000  0.4245720000000  0.5073570000000 1.0
C      1  0.4873920000000  0.5719400000000  0.5385630000000 1.0
C      1  0.5404110000000  0.5757930000000  0.4496400000000 1.0
C      1  0.5203990000000  0.4139630000000  0.5739400000000 1.0
C      1  0.4415350000000  0.4689230000000  0.4794950000000 1.0
C      1  0.5656990000000  0.4433480000000  0.4386480000000 1.0
C      1  0.4109070000000  0.5497270000000  0.4696580000000 1.0
C      1  0.4703330000000  0.4917970000000  0.5573650000000 1.0
C      1  0.4783360000000  0.6080980000000  0.5026710000000 1.0
C      1  0.4392660000000  0.5654090000000  0.5335340000000 1.0
C      1  0.3899470000000  0.5401790000000  0.5358870000000 1.0
C      1  0.5330170000000  0.4771710000000  0.5279180000000 1.0
C      1  0.4953620000000  0.4866020000000  0.4603220000000 1.0
C      1  0.5723190000000  0.4685410000000  0.5470250000000 1.0
C      1  0.5298120000000  0.4737680000000  0.4798250000000 1.0
C      1  0.4470390000000  0.5091800000000  0.5545290000000 1.0
C      1  0.5511820000000  0.4646820000000  0.4088220000000 1.0
C      1  0.4420770000000  0.5190670000000  0.4066720000000 1.0
C      1  0.5411180000000  0.5689010000000  0.5280930000000 1.0
C      1  0.5394580000000  0.4796820000000  0.6153670000000 1.0
C      1  0.5676160000000  0.5393280000000  0.4217500000000 1.0
C      1  0.4541070000000  0.4494990000000  0.4310650000000 1.0
C      1  0.4026140000000  0.4921650000000  0.5399330000000 1.0
C      1  0.4607710000000  0.4809070000000  0.5944380000000 1.0
C      1  0.4116590000000  0.4758780000000  0.4473760000000 1.0
C      1  0.5456910000000  0.5213780000000  0.5193720000000 1.0
C      1  0.5385040000000  0.4349320000000  0.4195570000000 1.0
C      1  0.4529560000000  0.4266420000000  0.4549150000000 1.0
C      1  0.5477320000000  0.4263660000000  0.5283490000000 1.0
C      1  0.5115290000000  0.6194400000000  0.5440320000000 1.0
C      1  0.4258280000000  0.4384890000000  0.4813730000000 1.0
C      1  0.5003320000000  0.4615370000000  0.5659520000000 1.0
C      1  0.3957950000000  0.5146070000000  0.5202840000000 1.0
C      1  0.5362590000000  0.5388580000000  0.4353860000000 1.0
C      1  0.4090360000000  0.5094040000000  0.4446330000000 1.0
C      1  0.4915080000000  0.4321620000000  0.4083520000000 1.0
C      1  0.5237270000000  0.5362890000000  0.5130520000000 1.0
C      1  0.4264530000000  0.4480530000000  0.4491290000000 1.0
C      1  0.4483940000000  0.5879600000000  0.4854570000000 1.0
C      1  0.4930510000000  0.3885960000000  0.4722400000000 1.0
C      1  0.4640930000000  0.4487400000000  0.4862880000000 1.0
C      1  0.4149900000000  0.4682120000000  0.5254810000000 1.0
C      1  0.5848590000000  0.5094740000000  0.4958290000000 1.0
END
