TITL C-2778433-5640-309 0.000699345020462064 125000 -951.511112391907 0 0 164 (C1) n - 1
REM
REM in /home/nfs/bkarasulu/CARBON/AIRSS/Generating-Clusters/REBO/Only-C1/SD-CG/HFTN-CG
REM
REM
REM
REM
REM
REM ./C.cell (11c1c37f851c82e70ff6c80c92926a4b)
REM
REM compiler GCC version 9.2.1 20190827 (Red Hat 9.2.1-1)
REM options -cpp -mtune=generic -march=x86-64 -g -O0 -fpre-include=/usr/include/finclude/math-vector-fortran.h
REM seed 1162390254 1043152914 -1271197357 -691720669 -1791869339 1469911691 -952383418 -563022283 -552947580 -1501155768 1714439238 -650457179 1687217946 175847466 1536174389 637644771 -651935564 -1331435941 948130195 -302563955 -1107967119 60962580 -634198431 1958455016 300921585 -1693631029 -323766875 1287835575 151812776 -78387139 1045098708 1466503364 -1382944467
REM
CELL 1.54180   50.00000   50.00000   50.00000   90.00000   90.00000   90.00000
LATT -1
SFAC C  
C      1  0.4332570000000  0.5690440000000  0.4785220000000 1.0
C      1  0.5332280000000  0.4225610000000  0.4394200000000 1.0
C      1  0.4442740000000  0.4385120000000  0.5582890000000 1.0
C      1  0.4638920000000  0.4369770000000  0.5325010000000 1.0
C      1  0.4546740000000  0.4102720000000  0.5171740000000 1.0
C      1  0.5131420000000  0.5869800000000  0.5653360000000 1.0
C      1  0.5412920000000  0.4190370000000  0.5390360000000 1.0
C      1  0.5089840000000  0.4411530000000  0.4237720000000 1.0
C      1  0.5883000000000  0.5730630000000  0.5329230000000 1.0
C      1  0.4963760000000  0.4725330000000  0.5880000000000 1.0
C      1  0.4696110000000  0.4928070000000  0.4717160000000 1.0
C      1  0.4702730000000  0.4195430000000  0.5677010000000 1.0
C      1  0.4888330000000  0.4838640000000  0.4015200000000 1.0
C      1  0.4709820000000  0.5737210000000  0.5824920000000 1.0
C      1  0.4882070000000  0.5884730000000  0.4824830000000 1.0
C      1  0.5162690000000  0.4683380000000  0.4980530000000 1.0
C      1  0.5943200000000  0.4906980000000  0.4653770000000 1.0
C      1  0.4814850000000  0.3952820000000  0.5096220000000 1.0
C      1  0.4386440000000  0.5004920000000  0.6156480000000 1.0
C      1  0.4362970000000  0.4432720000000  0.5043740000000 1.0
C      1  0.4890200000000  0.4125730000000  0.4427740000000 1.0
C      1  0.4674110000000  0.4053290000000  0.4800400000000 1.0
C      1  0.5663850000000  0.5624170000000  0.4641300000000 1.0
C      1  0.5285170000000  0.4429610000000  0.4981730000000 1.0
C      1  0.4014240000000  0.4405180000000  0.4852620000000 1.0
C      1  0.4136630000000  0.5125970000000  0.4816960000000 1.0
C      1  0.4099750000000  0.4726110000000  0.5391370000000 1.0
C      1  0.5353230000000  0.4925030000000  0.5540450000000 1.0
C      1  0.4947840000000  0.4916470000000  0.4287840000000 1.0
C      1  0.5396970000000  0.5088530000000  0.3984770000000 1.0
C      1  0.4510330000000  0.5004330000000  0.4130960000000 1.0
C      1  0.4982220000000  0.4756000000000  0.4760320000000 1.0
C      1  0.5736430000000  0.4782010000000  0.5704180000000 1.0
C      1  0.4544560000000  0.4408920000000  0.4172780000000 1.0
C      1  0.5848610000000  0.5128880000000  0.5348400000000 1.0
C      1  0.5809290000000  0.4521720000000  0.4374710000000 1.0
C      1  0.4901530000000  0.5384010000000  0.4453600000000 1.0
C      1  0.5890060000000  0.5224180000000  0.5649880000000 1.0
C      1  0.4418440000000  0.4130610000000  0.4583760000000 1.0
C      1  0.5453410000000  0.3883240000000  0.4899910000000 1.0
C      1  0.4354540000000  0.5389680000000  0.4614500000000 1.0
C      1  0.5879180000000  0.5177570000000  0.4700250000000 1.0
C      1  0.5664090000000  0.5404530000000  0.5375710000000 1.0
C      1  0.5586380000000  0.4393760000000  0.4262160000000 1.0
C      1  0.4562390000000  0.4422800000000  0.4697410000000 1.0
C      1  0.5460070000000  0.4336410000000  0.4754650000000 1.0
C      1  0.4286410000000  0.5070140000000  0.4529670000000 1.0
C      1  0.5308910000000  0.5813400000000  0.5401340000000 1.0
C      1  0.4744140000000  0.4400000000000  0.4443900000000 1.0
C      1  0.4962850000000  0.4279360000000  0.5714530000000 1.0
C      1  0.4726080000000  0.5776570000000  0.4474110000000 1.0
C      1  0.4808190000000  0.5164100000000  0.5495360000000 1.0
C      1  0.5367400000000  0.3991410000000  0.5152620000000 1.0
C      1  0.5720980000000  0.5314920000000  0.4257660000000 1.0
C      1  0.4824820000000  0.4975940000000  0.5232620000000 1.0
C      1  0.4540170000000  0.5681480000000  0.5126890000000 1.0
C      1  0.5662100000000  0.4331790000000  0.5405590000000 1.0
C      1  0.5513490000000  0.4736010000000  0.4780720000000 1.0
C      1  0.5269000000000  0.5346510000000  0.4033890000000 1.0
C      1  0.5605090000000  0.5594200000000  0.4948790000000 1.0
C      1  0.4979450000000  0.5478630000000  0.5106840000000 1.0
C      1  0.6046920000000  0.4965910000000  0.5208960000000 1.0
C      1  0.4209190000000  0.4412670000000  0.5343760000000 1.0
C      1  0.5614130000000  0.4809200000000  0.5391980000000 1.0
C      1  0.5631540000000  0.4570540000000  0.5221080000000 1.0
C      1  0.5104180000000  0.5378500000000  0.5654000000000 1.0
C      1  0.4638420000000  0.5487610000000  0.4626170000000 1.0
C      1  0.4922610000000  0.4271980000000  0.4881230000000 1.0
C      1  0.5433360000000  0.5465360000000  0.4490620000000 1.0
C      1  0.5442370000000  0.4052490000000  0.4668590000000 1.0
C      1  0.3945460000000  0.4983000000000  0.5245280000000 1.0
C      1  0.5330210000000  0.6013840000000  0.4580850000000 1.0
C      1  0.4122850000000  0.5431130000000  0.4857060000000 1.0
C      1  0.5359060000000  0.4508050000000  0.4112850000000 1.0
C      1  0.5855840000000  0.5499570000000  0.5116740000000 1.0
C      1  0.4680870000000  0.4812200000000  0.5017190000000 1.0
C      1  0.5737010000000  0.5219120000000  0.4978260000000 1.0
C      1  0.4448190000000  0.5937380000000  0.5261750000000 1.0
C      1  0.5507450000000  0.5892280000000  0.5055890000000 1.0
C      1  0.4187390000000  0.4695910000000  0.5064640000000 1.0
C      1  0.6052070000000  0.4760600000000  0.4941730000000 1.0
C      1  0.4360660000000  0.4146360000000  0.4908460000000 1.0
C      1  0.5342920000000  0.5479180000000  0.5335640000000 1.0
C      1  0.5355190000000  0.5390650000000  0.5006980000000 1.0
C      1  0.4579150000000  0.5409210000000  0.5495180000000 1.0
C      1  0.5894530000000  0.4554510000000  0.5516210000000 1.0
C      1  0.5225300000000  0.5696610000000  0.5015930000000 1.0
C      1  0.5210510000000  0.5627590000000  0.5836990000000 1.0
C      1  0.4095290000000  0.5110070000000  0.5500240000000 1.0
C      1  0.5365400000000  0.4928720000000  0.6030240000000 1.0
C      1  0.5954040000000  0.4378170000000  0.4573480000000 1.0
C      1  0.5032970000000  0.5171780000000  0.5094770000000 1.0
C      1  0.4412230000000  0.5124220000000  0.5464410000000 1.0
C      1  0.5516660000000  0.5574460000000  0.5793800000000 1.0
C      1  0.5574930000000  0.5922040000000  0.4727390000000 1.0
C      1  0.4904200000000  0.5462840000000  0.5405980000000 1.0
C      1  0.4967070000000  0.4640950000000  0.4453570000000 1.0
C      1  0.4751280000000  0.5103290000000  0.4464090000000 1.0
C      1  0.5600450000000  0.4969850000000  0.5876620000000 1.0
C      1  0.5184590000000  0.5995680000000  0.4850850000000 1.0
C      1  0.4363370000000  0.4925000000000  0.4969020000000 1.0
C      1  0.4230770000000  0.4884870000000  0.4252520000000 1.0
C      1  0.5370530000000  0.4779110000000  0.4056770000000 1.0
C      1  0.4468740000000  0.4783080000000  0.4553250000000 1.0
C      1  0.4301740000000  0.4291400000000  0.4337180000000 1.0
C      1  0.4190500000000  0.4606720000000  0.4327860000000 1.0
C      1  0.4558260000000  0.5187390000000  0.4960310000000 1.0
C      1  0.4691170000000  0.4493980000000  0.5004790000000 1.0
C      1  0.4835900000000  0.4542630000000  0.4083490000000 1.0
C      1  0.4393420000000  0.4601810000000  0.5782020000000 1.0
C      1  0.4557140000000  0.5888830000000  0.4749620000000 1.0
C      1  0.4603860000000  0.6065000000000  0.5038890000000 1.0
C      1  0.5232100000000  0.4920170000000  0.5167400000000 1.0
C      1  0.5148210000000  0.5548020000000  0.4569070000000 1.0
C      1  0.4133390000000  0.5683210000000  0.5062170000000 1.0
C      1  0.5607840000000  0.5711190000000  0.5521080000000 1.0
C      1  0.4974890000000  0.5441330000000  0.4129870000000 1.0
C      1  0.4860950000000  0.4776070000000  0.5574550000000 1.0
C      1  0.4944140000000  0.5742770000000  0.4286090000000 1.0
C      1  0.4004230000000  0.4276960000000  0.5106240000000 1.0
C      1  0.5832680000000  0.4807340000000  0.4402190000000 1.0
C      1  0.5117020000000  0.4990870000000  0.4576240000000 1.0
C      1  0.5478180000000  0.5486160000000  0.4176160000000 1.0
C      1  0.4460830000000  0.4914780000000  0.5878350000000 1.0
C      1  0.5538180000000  0.5064260000000  0.5207710000000 1.0
C      1  0.5131200000000  0.4192680000000  0.5107410000000 1.0
C      1  0.5472800000000  0.5167490000000  0.4533410000000 1.0
C      1  0.4910770000000  0.5579530000000  0.4800940000000 1.0
C      1  0.3916370000000  0.4971700000000  0.4965900000000 1.0
C      1  0.5363040000000  0.5229860000000  0.5570120000000 1.0
C      1  0.4939550000000  0.5217870000000  0.5891080000000 1.0
C      1  0.5521550000000  0.5037210000000  0.4809810000000 1.0
C      1  0.5205380000000  0.5834160000000  0.4404760000000 1.0
C      1  0.4901980000000  0.4188120000000  0.5330510000000 1.0
C      1  0.5307660000000  0.4580410000000  0.4612680000000 1.0
C      1  0.4897890000000  0.5546070000000  0.5946940000000 1.0
C      1  0.6039370000000  0.4660390000000  0.5277160000000 1.0
C      1  0.4727800000000  0.5214230000000  0.4138110000000 1.0
C      1  0.3904500000000  0.4692020000000  0.4867070000000 1.0
C      1  0.4906440000000  0.6067240000000  0.5112410000000 1.0
C      1  0.4714980000000  0.5015700000000  0.5767490000000 1.0
C      1  0.3965790000000  0.5319470000000  0.5628880000000 1.0
C      1  0.5087640000000  0.4953360000000  0.5985450000000 1.0
C      1  0.4258510000000  0.4531930000000  0.4652830000000 1.0
C      1  0.4103930000000  0.5743540000000  0.5319450000000 1.0
C      1  0.5126970000000  0.4709310000000  0.5419920000000 1.0
C      1  0.4492260000000  0.5645740000000  0.5658960000000 1.0
C      1  0.4209090000000  0.4846920000000  0.5666870000000 1.0
C      1  0.4562430000000  0.4862380000000  0.5431400000000 1.0
C      1  0.5154070000000  0.4371980000000  0.5462580000000 1.0
C      1  0.5651150000000  0.5010530000000  0.4215620000000 1.0
C      1  0.4318810000000  0.5824950000000  0.5517260000000 1.0
C      1  0.5942530000000  0.4470800000000  0.4836530000000 1.0
C      1  0.4872740000000  0.5948090000000  0.5706380000000 1.0
C      1  0.5219180000000  0.5147520000000  0.4836960000000 1.0
C      1  0.5822590000000  0.5380600000000  0.4514740000000 1.0
C      1  0.5087060000000  0.4299710000000  0.4621290000000 1.0
C      1  0.5236480000000  0.6054050000000  0.5185850000000 1.0
C      1  0.5691120000000  0.4591670000000  0.4952750000000 1.0
C      1  0.4586210000000  0.5440170000000  0.5028570000000 1.0
C      1  0.4595460000000  0.4722820000000  0.4261630000000 1.0
C      1  0.5609910000000  0.5274900000000  0.5783460000000 1.0
C      1  0.5341470000000  0.4945920000000  0.4346970000000 1.0
C      1  0.5002860000000  0.4453050000000  0.5935060000000 1.0
END
