TITL C-2778428-5639-839 0.000366033498832034 125000 -745.436632414246 0 0 129 (C1) n - 1
REM
REM in /home/nfs/bkarasulu/CARBON/AIRSS/Generating-Clusters/REBO/Only-C1/SD-CG/HFTN-CG
REM
REM
REM
REM
REM
REM ./C.cell (11c1c37f851c82e70ff6c80c92926a4b)
REM
REM compiler GCC version 9.2.1 20190827 (Red Hat 9.2.1-1)
REM options -cpp -mtune=generic -march=x86-64 -g -O0 -fpre-include=/usr/include/finclude/math-vector-fortran.h
REM seed -717272011 -210238111 53624098 572508060 -411914007 797127203 1633799444 -1879422616 -1517529854 1419385268 -1307512183 1571623806 -1225617042 -21298171 2064505832 -695626294 -54155629 -1137286507 -733376498 -2131723630 858489630 -1845272688 724177975 974804583 -1124550021 1347481286 96712354 -1545813533 -2100879436 -1073748190 184362500 1503313306 -1268147040
REM
CELL 1.54180   50.00000   50.00000   50.00000   90.00000   90.00000   90.00000
LATT -1
SFAC C  
C      1  0.5078970000000  0.4935130000000  0.5837440000000 1.0
C      1  0.5902630000000  0.5400390000000  0.4816190000000 1.0
C      1  0.4906900000000  0.5551160000000  0.4002800000000 1.0
C      1  0.5410060000000  0.5201090000000  0.4109650000000 1.0
C      1  0.4291330000000  0.5722480000000  0.4948930000000 1.0
C      1  0.5916680000000  0.4788830000000  0.4796850000000 1.0
C      1  0.4817970000000  0.4120690000000  0.4632270000000 1.0
C      1  0.5229080000000  0.5191750000000  0.5465310000000 1.0
C      1  0.5003360000000  0.5675210000000  0.5621640000000 1.0
C      1  0.5051020000000  0.4398650000000  0.4799990000000 1.0
C      1  0.4725540000000  0.4162840000000  0.5212900000000 1.0
C      1  0.5475410000000  0.4165010000000  0.4592070000000 1.0
C      1  0.5589720000000  0.5826550000000  0.5082290000000 1.0
C      1  0.5648690000000  0.4934100000000  0.5054920000000 1.0
C      1  0.4123440000000  0.4609460000000  0.4343630000000 1.0
C      1  0.5161740000000  0.4676690000000  0.5929770000000 1.0
C      1  0.4297870000000  0.4521260000000  0.5436570000000 1.0
C      1  0.4517070000000  0.5605630000000  0.5447980000000 1.0
C      1  0.4088430000000  0.5555290000000  0.5149860000000 1.0
C      1  0.4682940000000  0.4789360000000  0.5071580000000 1.0
C      1  0.5101990000000  0.5674600000000  0.5296400000000 1.0
C      1  0.5556370000000  0.4672280000000  0.5246780000000 1.0
C      1  0.5046220000000  0.4875470000000  0.4990970000000 1.0
C      1  0.5037630000000  0.5257050000000  0.4585560000000 1.0
C      1  0.4737400000000  0.4491560000000  0.4754680000000 1.0
C      1  0.5471230000000  0.5109350000000  0.4869310000000 1.0
C      1  0.5533500000000  0.4723930000000  0.4143680000000 1.0
C      1  0.4751980000000  0.5438900000000  0.4615280000000 1.0
C      1  0.5531230000000  0.4362080000000  0.5326130000000 1.0
C      1  0.5620890000000  0.4886450000000  0.5474630000000 1.0
C      1  0.4501810000000  0.4372420000000  0.5283810000000 1.0
C      1  0.4532170000000  0.5224940000000  0.4593850000000 1.0
C      1  0.5093510000000  0.5705780000000  0.4982390000000 1.0
C      1  0.5163420000000  0.4351730000000  0.4284770000000 1.0
C      1  0.5928080000000  0.5108300000000  0.4676280000000 1.0
C      1  0.5930920000000  0.4748840000000  0.5135340000000 1.0
C      1  0.4030890000000  0.4703350000000  0.5345340000000 1.0
C      1  0.3925350000000  0.4860970000000  0.5128000000000 1.0
C      1  0.5753650000000  0.5061090000000  0.4417980000000 1.0
C      1  0.5683180000000  0.4243460000000  0.5045880000000 1.0
C      1  0.5930840000000  0.5413010000000  0.5096890000000 1.0
C      1  0.5482280000000  0.4954630000000  0.3982120000000 1.0
C      1  0.5138030000000  0.5936750000000  0.5510360000000 1.0
C      1  0.4457710000000  0.5940860000000  0.5110650000000 1.0
C      1  0.4755780000000  0.4557380000000  0.5242730000000 1.0
C      1  0.4240640000000  0.5096820000000  0.4471230000000 1.0
C      1  0.4987510000000  0.4219350000000  0.5389910000000 1.0
C      1  0.4615860000000  0.5301430000000  0.5053140000000 1.0
C      1  0.4792410000000  0.5991710000000  0.4597720000000 1.0
C      1  0.4102460000000  0.5370030000000  0.5350560000000 1.0
C      1  0.4241810000000  0.4421640000000  0.4752810000000 1.0
C      1  0.5220270000000  0.4256190000000  0.4559350000000 1.0
C      1  0.5434560000000  0.4613190000000  0.5873010000000 1.0
C      1  0.4913580000000  0.5350530000000  0.4968330000000 1.0
C      1  0.5860820000000  0.5330090000000  0.5620250000000 1.0
C      1  0.4889090000000  0.4636230000000  0.5475400000000 1.0
C      1  0.4890610000000  0.5441580000000  0.5723700000000 1.0
C      1  0.4703540000000  0.5953960000000  0.4983490000000 1.0
C      1  0.5888240000000  0.5064480000000  0.5712980000000 1.0
C      1  0.4219670000000  0.4623440000000  0.5002200000000 1.0
C      1  0.4344200000000  0.5296020000000  0.5799490000000 1.0
C      1  0.5223340000000  0.4641800000000  0.4873050000000 1.0
C      1  0.5455390000000  0.5339870000000  0.5118390000000 1.0
C      1  0.4364630000000  0.5687740000000  0.4644070000000 1.0
C      1  0.4487880000000  0.4343290000000  0.4648490000000 1.0
C      1  0.4283550000000  0.5427740000000  0.4539730000000 1.0
C      1  0.5093730000000  0.4195480000000  0.5069890000000 1.0
C      1  0.4943370000000  0.5048680000000  0.5229030000000 1.0
C      1  0.5967160000000  0.4692960000000  0.5424220000000 1.0
C      1  0.4017750000000  0.4954710000000  0.4637180000000 1.0
C      1  0.5700320000000  0.4783920000000  0.4364140000000 1.0
C      1  0.5531990000000  0.5237780000000  0.4363670000000 1.0
C      1  0.4603740000000  0.5794090000000  0.4510800000000 1.0
C      1  0.4043990000000  0.4673290000000  0.4729880000000 1.0
C      1  0.4724150000000  0.4579610000000  0.5724880000000 1.0
C      1  0.5634700000000  0.5808460000000  0.4810560000000 1.0
C      1  0.5506510000000  0.4533680000000  0.4966640000000 1.0
C      1  0.4842550000000  0.4678650000000  0.4420650000000 1.0
C      1  0.4967630000000  0.5013190000000  0.4013400000000 1.0
C      1  0.4343500000000  0.5141020000000  0.4960290000000 1.0
C      1  0.5044230000000  0.4903270000000  0.5501120000000 1.0
C      1  0.5657960000000  0.4845120000000  0.5808940000000 1.0
C      1  0.4873090000000  0.4368970000000  0.4399180000000 1.0
C      1  0.5125190000000  0.4307150000000  0.5619730000000 1.0
C      1  0.5675150000000  0.4340700000000  0.4740240000000 1.0
C      1  0.5010240000000  0.5361480000000  0.4325720000000 1.0
C      1  0.5221590000000  0.5025510000000  0.4670450000000 1.0
C      1  0.4890320000000  0.4827020000000  0.4153930000000 1.0
C      1  0.5066780000000  0.5221120000000  0.5739360000000 1.0
C      1  0.4486340000000  0.4853230000000  0.4094240000000 1.0
C      1  0.4607270000000  0.5401090000000  0.5646480000000 1.0
C      1  0.4913210000000  0.4889230000000  0.4678290000000 1.0
C      1  0.4602370000000  0.4978190000000  0.4800220000000 1.0
C      1  0.4816340000000  0.4095520000000  0.4908970000000 1.0
C      1  0.5600850000000  0.5589730000000  0.5235890000000 1.0
C      1  0.5077610000000  0.5362210000000  0.5246510000000 1.0
C      1  0.5379380000000  0.4137570000000  0.5133830000000 1.0
C      1  0.5691420000000  0.5553340000000  0.4703130000000 1.0
C      1  0.4350620000000  0.4814930000000  0.4368810000000 1.0
C      1  0.6030360000000  0.5041360000000  0.4993210000000 1.0
C      1  0.5715680000000  0.4632910000000  0.4640560000000 1.0
C      1  0.6081330000000  0.4900840000000  0.5570770000000 1.0
C      1  0.5520360000000  0.5158630000000  0.5387420000000 1.0
C      1  0.4373760000000  0.4812090000000  0.5175560000000 1.0
C      1  0.5454410000000  0.5363310000000  0.4636770000000 1.0
C      1  0.4107360000000  0.5408860000000  0.5622770000000 1.0
C      1  0.4042670000000  0.5024260000000  0.4920960000000 1.0
C      1  0.4987430000000  0.5982130000000  0.4833700000000 1.0
C      1  0.5842800000000  0.5508390000000  0.5399980000000 1.0
C      1  0.5123720000000  0.5289700000000  0.4043090000000 1.0
C      1  0.4491910000000  0.5054660000000  0.5623970000000 1.0
C      1  0.5444770000000  0.4375470000000  0.5629500000000 1.0
C      1  0.4460570000000  0.5888780000000  0.5392940000000 1.0
C      1  0.5236060000000  0.5429370000000  0.4886140000000 1.0
C      1  0.4588580000000  0.4180910000000  0.4405100000000 1.0
C      1  0.5717560000000  0.4578950000000  0.5600220000000 1.0
C      1  0.4463010000000  0.4714930000000  0.5663370000000 1.0
C      1  0.4212880000000  0.5101340000000  0.5271800000000 1.0
C      1  0.4608070000000  0.5051560000000  0.5260700000000 1.0
C      1  0.5353690000000  0.4504710000000  0.4150930000000 1.0
C      1  0.5830080000000  0.5139870000000  0.5247460000000 1.0
C      1  0.4759470000000  0.5590800000000  0.4307990000000 1.0
C      1  0.4212890000000  0.4895640000000  0.5531280000000 1.0
C      1  0.5431080000000  0.4772780000000  0.4657380000000 1.0
C      1  0.4487010000000  0.5546390000000  0.5164190000000 1.0
C      1  0.4560270000000  0.4729600000000  0.4578910000000 1.0
C      1  0.4309790000000  0.5284440000000  0.6072880000000 1.0
C      1  0.4780590000000  0.5645350000000  0.4857090000000 1.0
C      1  0.4985810000000  0.4467220000000  0.5823280000000 1.0
END
