TITL C-2778423-5760-294 0.00117691327416047 125000 -158.859146006661 0 0 29 (C1) n - 1
REM
REM in /home/nfs/bkarasulu/CARBON/AIRSS/Generating-Clusters/REBO/Only-C1/SD-CG/HFTN-CG
REM
REM
REM
REM
REM
REM ./C.cell (11c1c37f851c82e70ff6c80c92926a4b)
REM
REM compiler GCC version 9.2.1 20190827 (Red Hat 9.2.1-1)
REM options -cpp -mtune=generic -march=x86-64 -g -O0 -fpre-include=/usr/include/finclude/math-vector-fortran.h
REM seed 1358711846 972731891 586903542 -680539775 -499417905 -2092802218 -766073211 640465250 -2114584045 154823058 -1772676693 -1488209498 -1287852566 -1442116880 415917854 -846676806 -734738740 927198267 1996454355 -1455789059 1886163809 -1119533846 -709964882 -1585722433 756515283 -1624694595 1457957974 489802745 -1452000830 -1373274821 -1047862842 469393563 1966745289
REM
CELL 1.54180   50.00000   50.00000   50.00000   90.00000   90.00000   90.00000
LATT -1
SFAC C  
C      1  0.5254960000000  0.5639600000000  0.4981370000000 1.0
C      1  0.5030700000000  0.5405230000000  0.4884580000000 1.0
C      1  0.5414180000000  0.4641900000000  0.4982830000000 1.0
C      1  0.4490060000000  0.4591390000000  0.4746010000000 1.0
C      1  0.4652610000000  0.4756720000000  0.4605260000000 1.0
C      1  0.4381890000000  0.4630200000000  0.5283940000000 1.0
C      1  0.5180660000000  0.5495550000000  0.5239520000000 1.0
C      1  0.5221170000000  0.4427710000000  0.4932030000000 1.0
C      1  0.4881430000000  0.5336150000000  0.5212090000000 1.0
C      1  0.4556880000000  0.5285320000000  0.4984630000000 1.0
C      1  0.4730230000000  0.5402300000000  0.4846360000000 1.0
C      1  0.4551950000000  0.4388700000000  0.5384210000000 1.0
C      1  0.5506090000000  0.5369210000000  0.4701320000000 1.0
C      1  0.5038100000000  0.4679500000000  0.5280230000000 1.0
C      1  0.4425880000000  0.4904990000000  0.5327040000000 1.0
C      1  0.5327330000000  0.4751060000000  0.5272430000000 1.0
C      1  0.5659890000000  0.5833730000000  0.4772290000000 1.0
C      1  0.4866190000000  0.4911330000000  0.4664720000000 1.0
C      1  0.4992600000000  0.4440240000000  0.5115020000000 1.0
C      1  0.5488340000000  0.5628970000000  0.4815340000000 1.0
C      1  0.4482310000000  0.4492640000000  0.5007290000000 1.0
C      1  0.4642590000000  0.5093740000000  0.5228010000000 1.0
C      1  0.5395560000000  0.4978910000000  0.5032850000000 1.0
C      1  0.5177640000000  0.5162570000000  0.5196740000000 1.0
C      1  0.5020190000000  0.5006430000000  0.4864130000000 1.0
C      1  0.4923370000000  0.4943870000000  0.5170200000000 1.0
C      1  0.5692710000000  0.5277730000000  0.4521320000000 1.0
C      1  0.5283760000000  0.5197950000000  0.4813460000000 1.0
C      1  0.4730760000000  0.4326360000000  0.5134770000000 1.0
END
