TITL C-2778425-5191-661 -0.00258628567776501 125000 -451.971806403088 0 0 79 (C1) n - 1
REM
REM in /home/nfs/bkarasulu/CARBON/AIRSS/Generating-Clusters/REBO/Only-C1/SD-CG/HFTN-CG
REM
REM
REM
REM
REM
REM ./C.cell (11c1c37f851c82e70ff6c80c92926a4b)
REM
REM compiler GCC version 9.2.1 20190827 (Red Hat 9.2.1-1)
REM options -cpp -mtune=generic -march=x86-64 -g -O0 -fpre-include=/usr/include/finclude/math-vector-fortran.h
REM seed -1542940565 -364459439 -1228226910 -1221735072 512825932 -1442436655 1912033762 -91189485 806490457 -614411882 -2021331720 -1456986115 2049501889 -880536371 -1455305303 1500523703 465434701 965952783 507939841 973218933 1872588299 -2143380896 -993151593 1772640084 -88356615 1478490330 -1305082870 1272636638 1495354620 -1789504773 2119899479 676243990 -946513742
REM
CELL 1.54180   50.00000   50.00000   50.00000   90.00000   90.00000   90.00000
LATT -1
SFAC C  
C      1  0.5673170000000  0.5410390000000  0.4727630000000 1.0
C      1  0.4241340000000  0.5268490000000  0.4889400000000 1.0
C      1  0.5752860000000  0.4939600000000  0.4826080000000 1.0
C      1  0.4952670000000  0.5421150000000  0.4530930000000 1.0
C      1  0.4973050000000  0.4817900000000  0.4394960000000 1.0
C      1  0.5709750000000  0.4878680000000  0.5218740000000 1.0
C      1  0.4816740000000  0.4635200000000  0.4856340000000 1.0
C      1  0.5232140000000  0.4564010000000  0.5581430000000 1.0
C      1  0.4704980000000  0.5178030000000  0.5016450000000 1.0
C      1  0.4903700000000  0.5719210000000  0.5126500000000 1.0
C      1  0.5422470000000  0.5064640000000  0.4429220000000 1.0
C      1  0.4708120000000  0.5476560000000  0.5254390000000 1.0
C      1  0.5362860000000  0.5076890000000  0.5217810000000 1.0
C      1  0.4881680000000  0.5188230000000  0.5308490000000 1.0
C      1  0.5263290000000  0.5561810000000  0.4478160000000 1.0
C      1  0.5409770000000  0.4843230000000  0.4210920000000 1.0
C      1  0.5457850000000  0.5081240000000  0.4924370000000 1.0
C      1  0.4405960000000  0.5430730000000  0.5097200000000 1.0
C      1  0.5708680000000  0.4649240000000  0.4926210000000 1.0
C      1  0.5618520000000  0.5088230000000  0.5447110000000 1.0
C      1  0.5183270000000  0.5622510000000  0.5231290000000 1.0
C      1  0.4998220000000  0.5313030000000  0.5033720000000 1.0
C      1  0.5193280000000  0.4319660000000  0.4874570000000 1.0
C      1  0.4938770000000  0.4263830000000  0.5106160000000 1.0
C      1  0.4644140000000  0.5602200000000  0.4940330000000 1.0
C      1  0.5379360000000  0.4865980000000  0.4704660000000 1.0
C      1  0.5265770000000  0.5309440000000  0.4312120000000 1.0
C      1  0.4671810000000  0.4285160000000  0.4721320000000 1.0
C      1  0.5051100000000  0.5522020000000  0.4812830000000 1.0
C      1  0.5374090000000  0.4468370000000  0.5352260000000 1.0
C      1  0.4486210000000  0.5297150000000  0.4361830000000 1.0
C      1  0.4283070000000  0.4788590000000  0.4771310000000 1.0
C      1  0.4632610000000  0.4808320000000  0.5075580000000 1.0
C      1  0.5313730000000  0.4640750000000  0.4863410000000 1.0
C      1  0.5070310000000  0.4989390000000  0.5863320000000 1.0
C      1  0.4537300000000  0.5012410000000  0.4816280000000 1.0
C      1  0.4739870000000  0.5243270000000  0.4245620000000 1.0
C      1  0.4408910000000  0.5228440000000  0.5346070000000 1.0
C      1  0.4819660000000  0.4605170000000  0.4532440000000 1.0
C      1  0.4669540000000  0.4257060000000  0.5022850000000 1.0
C      1  0.5662340000000  0.5419010000000  0.5066760000000 1.0
C      1  0.4926580000000  0.5088250000000  0.4462280000000 1.0
C      1  0.5471840000000  0.4671140000000  0.5159130000000 1.0
C      1  0.4529640000000  0.4740630000000  0.5632650000000 1.0
C      1  0.5202140000000  0.4862090000000  0.5604610000000 1.0
C      1  0.4951560000000  0.4446790000000  0.5598620000000 1.0
C      1  0.4485640000000  0.4508210000000  0.5161190000000 1.0
C      1  0.4683870000000  0.5561610000000  0.4662870000000 1.0
C      1  0.5146960000000  0.5415180000000  0.5501840000000 1.0
C      1  0.4846940000000  0.5140680000000  0.5831790000000 1.0
C      1  0.5092170000000  0.4960960000000  0.5316160000000 1.0
C      1  0.4868200000000  0.5416560000000  0.5646670000000 1.0
C      1  0.4964640000000  0.4325240000000  0.4632200000000 1.0
C      1  0.5494080000000  0.4240130000000  0.4739660000000 1.0
C      1  0.4382270000000  0.5239560000000  0.4615750000000 1.0
C      1  0.4580830000000  0.5251650000000  0.5560360000000 1.0
C      1  0.4814490000000  0.5664050000000  0.5770220000000 1.0
C      1  0.4949520000000  0.4735110000000  0.5157860000000 1.0
C      1  0.5300850000000  0.5334430000000  0.4918790000000 1.0
C      1  0.5675210000000  0.5155690000000  0.4599310000000 1.0
C      1  0.5093810000000  0.5843430000000  0.4874580000000 1.0
C      1  0.5419190000000  0.5394590000000  0.5295260000000 1.0
C      1  0.4594460000000  0.4999970000000  0.5734480000000 1.0
C      1  0.5344140000000  0.5159060000000  0.5607360000000 1.0
C      1  0.5689840000000  0.4404090000000  0.4777230000000 1.0
C      1  0.5032180000000  0.5292710000000  0.4138070000000 1.0
C      1  0.5417620000000  0.5640590000000  0.4982970000000 1.0
C      1  0.5327520000000  0.4246050000000  0.5187870000000 1.0
C      1  0.4971000000000  0.4463430000000  0.5298470000000 1.0
C      1  0.5159630000000  0.4732680000000  0.4199370000000 1.0
C      1  0.4289920000000  0.4974840000000  0.5265240000000 1.0
C      1  0.4537090000000  0.4572530000000  0.4410660000000 1.0
C      1  0.4182350000000  0.5001010000000  0.4995740000000 1.0
C      1  0.5820790000000  0.5150140000000  0.5076840000000 1.0
C      1  0.4311460000000  0.4658160000000  0.4480090000000 1.0
C      1  0.4389870000000  0.4729600000000  0.5381450000000 1.0
C      1  0.5343210000000  0.5753810000000  0.4675770000000 1.0
C      1  0.4704160000000  0.4527590000000  0.5707150000000 1.0
C      1  0.4481390000000  0.4542550000000  0.4822430000000 1.0
END
