TITL C-2778437-8639-853 0.00768520920317976 125000 -526.833761449879 0 0 91 (C1) n - 1
REM
REM in /home/nfs/bkarasulu/CARBON/AIRSS/Generating-Clusters/REBO/Only-C1/SD-CG/HFTN-CG
REM
REM
REM
REM
REM
REM ./C.cell (11c1c37f851c82e70ff6c80c92926a4b)
REM
REM compiler GCC version 9.2.1 20190827 (Red Hat 9.2.1-1)
REM options -cpp -mtune=generic -march=x86-64 -g -O0 -fpre-include=/usr/include/finclude/math-vector-fortran.h
REM seed -1093541872 -2098195443 1573469966 1806885088 1727199134 -516256108 -442525833 -275870468 1997997202 -1558042012 -924347845 1675653885 -105621446 2104201432 -397033925 -822887235 108302330 -1504385214 1379895739 -1420730160 51001840 -413365652 610486630 -748072459 -1457591240 -1839963579 249957115 1348567973 956155418 1259146806 1035930713 825328953 859085360
REM
CELL 1.54180   50.00000   50.00000   50.00000   90.00000   90.00000   90.00000
LATT -1
SFAC C  
C      1  0.5034360000000  0.4980670000000  0.4568420000000 1.0
C      1  0.4279210000000  0.4996750000000  0.5275730000000 1.0
C      1  0.5250510000000  0.5119640000000  0.5259960000000 1.0
C      1  0.4769560000000  0.4428850000000  0.5786320000000 1.0
C      1  0.4848490000000  0.5685130000000  0.5122920000000 1.0
C      1  0.4542820000000  0.5744970000000  0.5314380000000 1.0
C      1  0.5015470000000  0.5558490000000  0.4347070000000 1.0
C      1  0.5203680000000  0.4723540000000  0.5648400000000 1.0
C      1  0.5088090000000  0.4178220000000  0.5436540000000 1.0
C      1  0.4643500000000  0.5229660000000  0.4372870000000 1.0
C      1  0.4455110000000  0.4283780000000  0.4879550000000 1.0
C      1  0.5259530000000  0.4620190000000  0.5159020000000 1.0
C      1  0.5603050000000  0.4361430000000  0.4887480000000 1.0
C      1  0.4756930000000  0.4850480000000  0.5433680000000 1.0
C      1  0.5398950000000  0.4233020000000  0.5038380000000 1.0
C      1  0.4576600000000  0.5414250000000  0.4586360000000 1.0
C      1  0.5370510000000  0.4730040000000  0.4164980000000 1.0
C      1  0.4585680000000  0.4947100000000  0.5211030000000 1.0
C      1  0.5336930000000  0.4307250000000  0.5329450000000 1.0
C      1  0.5445270000000  0.5550320000000  0.4641110000000 1.0
C      1  0.5270960000000  0.4901550000000  0.5017110000000 1.0
C      1  0.4874880000000  0.4856910000000  0.3966180000000 1.0
C      1  0.4716990000000  0.5987050000000  0.5191200000000 1.0
C      1  0.5013940000000  0.5679150000000  0.4671380000000 1.0
C      1  0.5174300000000  0.4211720000000  0.4607280000000 1.0
C      1  0.5684330000000  0.5377790000000  0.5288050000000 1.0
C      1  0.5570760000000  0.4949240000000  0.4159000000000 1.0
C      1  0.4602150000000  0.6188410000000  0.5044290000000 1.0
C      1  0.5177140000000  0.5874200000000  0.5364250000000 1.0
C      1  0.4644840000000  0.4765790000000  0.4965810000000 1.0
C      1  0.5502870000000  0.5177680000000  0.5669100000000 1.0
C      1  0.4902110000000  0.4975780000000  0.4885810000000 1.0
C      1  0.4447370000000  0.5182290000000  0.5707410000000 1.0
C      1  0.5320580000000  0.5172900000000  0.4596370000000 1.0
C      1  0.5872630000000  0.4992330000000  0.5096780000000 1.0
C      1  0.5179110000000  0.5187060000000  0.4873100000000 1.0
C      1  0.4947600000000  0.4554190000000  0.5620070000000 1.0
C      1  0.5391170000000  0.5614680000000  0.5936840000000 1.0
C      1  0.5152990000000  0.4244330000000  0.4886150000000 1.0
C      1  0.5435430000000  0.5220120000000  0.4281670000000 1.0
C      1  0.5336580000000  0.5503370000000  0.4374970000000 1.0
C      1  0.4626950000000  0.4961500000000  0.5716170000000 1.0
C      1  0.4990350000000  0.4493500000000  0.5031440000000 1.0
C      1  0.5325580000000  0.4994750000000  0.5528680000000 1.0
C      1  0.5247630000000  0.5715700000000  0.5101440000000 1.0
C      1  0.5257970000000  0.5698570000000  0.4796820000000 1.0
C      1  0.4650800000000  0.4397590000000  0.4303530000000 1.0
C      1  0.4535760000000  0.4480220000000  0.5048640000000 1.0
C      1  0.4477620000000  0.4326430000000  0.4108480000000 1.0
C      1  0.5747200000000  0.5195680000000  0.5504530000000 1.0
C      1  0.5208080000000  0.4303170000000  0.4354190000000 1.0
C      1  0.4841610000000  0.4180870000000  0.5429510000000 1.0
C      1  0.5414630000000  0.4600830000000  0.5448400000000 1.0
C      1  0.4546800000000  0.5252410000000  0.5125260000000 1.0
C      1  0.4802680000000  0.4674510000000  0.4430290000000 1.0
C      1  0.4507090000000  0.4948370000000  0.4740140000000 1.0
C      1  0.4974410000000  0.6049420000000  0.5365490000000 1.0
C      1  0.4850080000000  0.5320650000000  0.4200540000000 1.0
C      1  0.5590760000000  0.5303300000000  0.4753160000000 1.0
C      1  0.4291410000000  0.5221500000000  0.5458920000000 1.0
C      1  0.4201010000000  0.4885940000000  0.4800410000000 1.0
C      1  0.4788230000000  0.4297200000000  0.4550310000000 1.0
C      1  0.5407720000000  0.5390570000000  0.5249010000000 1.0
C      1  0.5290590000000  0.5590980000000  0.5448270000000 1.0
C      1  0.5698960000000  0.4710960000000  0.5459500000000 1.0
C      1  0.5071340000000  0.5441300000000  0.5039040000000 1.0
C      1  0.4739480000000  0.5647490000000  0.4537850000000 1.0
C      1  0.5191170000000  0.4997720000000  0.4266510000000 1.0
C      1  0.4699730000000  0.4955770000000  0.4499810000000 1.0
C      1  0.5831150000000  0.4947060000000  0.5376850000000 1.0
C      1  0.4377000000000  0.5476150000000  0.5309590000000 1.0
C      1  0.4961860000000  0.4954860000000  0.5684860000000 1.0
C      1  0.4576380000000  0.4367790000000  0.5339020000000 1.0
C      1  0.4112190000000  0.4920800000000  0.5059840000000 1.0
C      1  0.4667280000000  0.5569380000000  0.5568390000000 1.0
C      1  0.5507200000000  0.4562750000000  0.4720530000000 1.0
C      1  0.4922380000000  0.4631070000000  0.4137470000000 1.0
C      1  0.5326720000000  0.5452450000000  0.5720030000000 1.0
C      1  0.4621350000000  0.4143520000000  0.4714670000000 1.0
C      1  0.4842160000000  0.4561020000000  0.5306760000000 1.0
C      1  0.4546620000000  0.4325140000000  0.5657780000000 1.0
C      1  0.4979960000000  0.5102810000000  0.4073850000000 1.0
C      1  0.5763660000000  0.5152920000000  0.4905830000000 1.0
C      1  0.4567920000000  0.5431520000000  0.5777700000000 1.0
C      1  0.4969810000000  0.4543740000000  0.4695090000000 1.0
C      1  0.5095550000000  0.5225200000000  0.5759760000000 1.0
C      1  0.5185560000000  0.4515190000000  0.4166720000000 1.0
C      1  0.4520850000000  0.5259770000000  0.4821390000000 1.0
C      1  0.4930700000000  0.5154770000000  0.5176470000000 1.0
C      1  0.4771460000000  0.5419560000000  0.5298030000000 1.0
C      1  0.5263640000000  0.4685310000000  0.4766570000000 1.0
END
