TITL C-2778427-5640-1066 -0.000388256156049001 125000 -223.947721821304 0 0 40 (C1) n - 1
REM
REM in /home/nfs/bkarasulu/CARBON/AIRSS/Generating-Clusters/REBO/Only-C1/SD-CG/HFTN-CG
REM
REM
REM
REM
REM
REM ./C.cell (11c1c37f851c82e70ff6c80c92926a4b)
REM
REM compiler GCC version 9.2.1 20190827 (Red Hat 9.2.1-1)
REM options -cpp -mtune=generic -march=x86-64 -g -O0 -fpre-include=/usr/include/finclude/math-vector-fortran.h
REM seed 865936607 1010392782 1061217301 -430305144 -1346948499 284483284 1814821133 1033247656 1788608092 411303918 -1339617009 154787651 1926656847 839035218 -1861546880 -734017999 636705953 -785428870 -1093632562 362767121 -707832671 791136929 858280219 2004206876 1010817556 1729865356 -167089762 -598953388 1791268877 1636354638 -1971045036 666248904 -1189808865
REM
CELL 1.54180   50.00000   50.00000   50.00000   90.00000   90.00000   90.00000
LATT -1
SFAC C  
C      1  0.4393070000000  0.4668810000000  0.4789590000000 1.0
C      1  0.5319230000000  0.4116560000000  0.5161480000000 1.0
C      1  0.5092340000000  0.4369720000000  0.5143230000000 1.0
C      1  0.5040150000000  0.4520370000000  0.4621320000000 1.0
C      1  0.5117570000000  0.4663150000000  0.5537440000000 1.0
C      1  0.4819490000000  0.5070920000000  0.5483790000000 1.0
C      1  0.4578160000000  0.5364510000000  0.4635210000000 1.0
C      1  0.5008080000000  0.5436840000000  0.4317300000000 1.0
C      1  0.4952980000000  0.4508340000000  0.5384350000000 1.0
C      1  0.5539040000000  0.5377540000000  0.5458410000000 1.0
C      1  0.4403170000000  0.5051060000000  0.5184680000000 1.0
C      1  0.5855090000000  0.5007290000000  0.5125640000000 1.0
C      1  0.5388780000000  0.5093620000000  0.5343760000000 1.0
C      1  0.4742980000000  0.4684630000000  0.4980540000000 1.0
C      1  0.5179210000000  0.5108750000000  0.5088100000000 1.0
C      1  0.4986080000000  0.5538340000000  0.4908860000000 1.0
C      1  0.5740720000000  0.4785640000000  0.5014630000000 1.0
C      1  0.5083920000000  0.5287490000000  0.4849430000000 1.0
C      1  0.4610080000000  0.4924440000000  0.5398980000000 1.0
C      1  0.5292880000000  0.4868470000000  0.5530700000000 1.0
C      1  0.5708400000000  0.5175970000000  0.5287150000000 1.0
C      1  0.4988820000000  0.5508460000000  0.5374500000000 1.0
C      1  0.5018920000000  0.4592840000000  0.4922480000000 1.0
C      1  0.5427220000000  0.4404680000000  0.5091930000000 1.0
C      1  0.4427740000000  0.4738860000000  0.5099490000000 1.0
C      1  0.5016390000000  0.5226260000000  0.5362590000000 1.0
C      1  0.5251510000000  0.5216700000000  0.4344710000000 1.0
C      1  0.4679870000000  0.4625640000000  0.5301490000000 1.0
C      1  0.4845470000000  0.4946810000000  0.4554230000000 1.0
C      1  0.5486310000000  0.4668900000000  0.5024250000000 1.0
C      1  0.4946010000000  0.4712860000000  0.4448590000000 1.0
C      1  0.4512110000000  0.5178040000000  0.4864740000000 1.0
C      1  0.5238020000000  0.4811780000000  0.4989780000000 1.0
C      1  0.4741090000000  0.5433190000000  0.4465670000000 1.0
C      1  0.4570930000000  0.5595930000000  0.5157250000000 1.0
C      1  0.4630860000000  0.4911100000000  0.4768290000000 1.0
C      1  0.5028090000000  0.5179130000000  0.4578640000000 1.0
C      1  0.4436490000000  0.5365390000000  0.5121230000000 1.0
C      1  0.4855500000000  0.5622000000000  0.5149240000000 1.0
C      1  0.5047220000000  0.5638950000000  0.4136310000000 1.0
END
