TITL C-2778427-5640-64 -0.00231402751811066 125000 -789.245542495137 0 0 136 (C1) n - 1
REM
REM in /home/nfs/bkarasulu/CARBON/AIRSS/Generating-Clusters/REBO/Only-C1/SD-CG/HFTN-CG
REM
REM
REM
REM
REM
REM ./C.cell (11c1c37f851c82e70ff6c80c92926a4b)
REM
REM compiler GCC version 9.2.1 20190827 (Red Hat 9.2.1-1)
REM options -cpp -mtune=generic -march=x86-64 -g -O0 -fpre-include=/usr/include/finclude/math-vector-fortran.h
REM seed -916242956 843003930 -1235060174 889624109 1605937273 -633892202 1620501505 548045725 -1036173572 1685712699 954161027 -29408422 1338927310 -573427464 -2043195424 1647739579 1047717110 -260847059 1748828305 -1317124975 786105402 484979535 2108755333 -1419332474 -1289764608 -566692717 1836557614 1967946561 -2096544402 -334598623 1709264176 437987588 449016120
REM
CELL 1.54180   50.00000   50.00000   50.00000   90.00000   90.00000   90.00000
LATT -1
SFAC C  
C      1  0.4981640000000  0.5553470000000  0.5896520000000 1.0
C      1  0.4919820000000  0.5182440000000  0.4083460000000 1.0
C      1  0.5551820000000  0.5482430000000  0.5408490000000 1.0
C      1  0.5261610000000  0.5135250000000  0.5906400000000 1.0
C      1  0.4881810000000  0.5894980000000  0.4562910000000 1.0
C      1  0.5179630000000  0.4319450000000  0.5080910000000 1.0
C      1  0.5150170000000  0.4678300000000  0.4051700000000 1.0
C      1  0.4432400000000  0.4695050000000  0.4339800000000 1.0
C      1  0.5444910000000  0.4496030000000  0.5618520000000 1.0
C      1  0.5388120000000  0.4673000000000  0.4797750000000 1.0
C      1  0.4991480000000  0.5751350000000  0.4783290000000 1.0
C      1  0.5268200000000  0.4468050000000  0.4224070000000 1.0
C      1  0.3978620000000  0.4850560000000  0.4823810000000 1.0
C      1  0.4205020000000  0.5272930000000  0.5612390000000 1.0
C      1  0.4060380000000  0.4637950000000  0.5241400000000 1.0
C      1  0.5261400000000  0.5747730000000  0.4324990000000 1.0
C      1  0.4196630000000  0.5576840000000  0.5208900000000 1.0
C      1  0.4854810000000  0.4629980000000  0.4082580000000 1.0
C      1  0.4624120000000  0.4229860000000  0.4922020000000 1.0
C      1  0.5275980000000  0.5008120000000  0.4473980000000 1.0
C      1  0.5284550000000  0.5594160000000  0.5479840000000 1.0
C      1  0.5207190000000  0.4959730000000  0.5535670000000 1.0
C      1  0.4823040000000  0.5909960000000  0.5148530000000 1.0
C      1  0.5573540000000  0.5012270000000  0.5144880000000 1.0
C      1  0.5818660000000  0.4798870000000  0.5092710000000 1.0
C      1  0.5309050000000  0.4920370000000  0.4087250000000 1.0
C      1  0.4474660000000  0.5483700000000  0.4487640000000 1.0
C      1  0.5096120000000  0.4640440000000  0.4670790000000 1.0
C      1  0.4551760000000  0.5331410000000  0.4753760000000 1.0
C      1  0.4245690000000  0.5544740000000  0.5520040000000 1.0
C      1  0.5449690000000  0.4686760000000  0.5374060000000 1.0
C      1  0.6004620000000  0.5057210000000  0.4738880000000 1.0
C      1  0.5409960000000  0.4190570000000  0.5276320000000 1.0
C      1  0.5663170000000  0.5809950000000  0.5023130000000 1.0
C      1  0.4357830000000  0.5353890000000  0.5025670000000 1.0
C      1  0.5012900000000  0.3881800000000  0.4830980000000 1.0
C      1  0.5730610000000  0.5742360000000  0.4713340000000 1.0
C      1  0.4134840000000  0.4688460000000  0.5573460000000 1.0
C      1  0.4797940000000  0.5541900000000  0.4395440000000 1.0
C      1  0.5289540000000  0.5318600000000  0.4426850000000 1.0
C      1  0.5044460000000  0.5712390000000  0.5687700000000 1.0
C      1  0.5777160000000  0.5019010000000  0.4315350000000 1.0
C      1  0.5215280000000  0.5490350000000  0.4780090000000 1.0
C      1  0.5836990000000  0.4594160000000  0.5357800000000 1.0
C      1  0.4965640000000  0.4685090000000  0.4952510000000 1.0
C      1  0.4011860000000  0.4591520000000  0.4950090000000 1.0
C      1  0.4577760000000  0.4261920000000  0.4489440000000 1.0
C      1  0.4992450000000  0.4906710000000  0.4528830000000 1.0
C      1  0.5530990000000  0.5116460000000  0.5837580000000 1.0
C      1  0.6125620000000  0.5228360000000  0.4942030000000 1.0
C      1  0.5045150000000  0.4896610000000  0.5820670000000 1.0
C      1  0.5036650000000  0.5679650000000  0.4246460000000 1.0
C      1  0.5127710000000  0.4452890000000  0.5379040000000 1.0
C      1  0.4269660000000  0.4980450000000  0.4732590000000 1.0
C      1  0.4840390000000  0.5860300000000  0.5485980000000 1.0
C      1  0.5260200000000  0.4029940000000  0.4722090000000 1.0
C      1  0.4707560000000  0.4483060000000  0.5738840000000 1.0
C      1  0.5101920000000  0.4424480000000  0.4444830000000 1.0
C      1  0.5779520000000  0.5632030000000  0.5217040000000 1.0
C      1  0.4994760000000  0.4609580000000  0.5862350000000 1.0
C      1  0.4784220000000  0.5524860000000  0.4882400000000 1.0
C      1  0.5101340000000  0.4271150000000  0.4822800000000 1.0
C      1  0.4549330000000  0.5268390000000  0.5260130000000 1.0
C      1  0.5838510000000  0.5071810000000  0.5561050000000 1.0
C      1  0.5010870000000  0.5391100000000  0.5454510000000 1.0
C      1  0.4784490000000  0.5056740000000  0.4329810000000 1.0
C      1  0.5160590000000  0.5884070000000  0.5352110000000 1.0
C      1  0.5669970000000  0.4421040000000  0.4448610000000 1.0
C      1  0.5563490000000  0.4601410000000  0.5069310000000 1.0
C      1  0.5934400000000  0.4504390000000  0.4735430000000 1.0
C      1  0.4508640000000  0.4914040000000  0.5875810000000 1.0
C      1  0.4601640000000  0.5799070000000  0.4500660000000 1.0
C      1  0.4227110000000  0.4455340000000  0.4808850000000 1.0
C      1  0.5653290000000  0.4850980000000  0.5835970000000 1.0
C      1  0.5531870000000  0.4984830000000  0.5460310000000 1.0
C      1  0.4724120000000  0.4993690000000  0.5257390000000 1.0
C      1  0.4819520000000  0.4356100000000  0.4715890000000 1.0
C      1  0.5827480000000  0.5176010000000  0.4535530000000 1.0
C      1  0.4849350000000  0.4165930000000  0.5243970000000 1.0
C      1  0.4994920000000  0.5276150000000  0.5928790000000 1.0
C      1  0.4529860000000  0.5736560000000  0.5523890000000 1.0
C      1  0.5275210000000  0.5222900000000  0.4981830000000 1.0
C      1  0.5374750000000  0.5773900000000  0.4880710000000 1.0
C      1  0.5229980000000  0.4432800000000  0.5771100000000 1.0
C      1  0.5587190000000  0.5399960000000  0.4569790000000 1.0
C      1  0.4410890000000  0.4646610000000  0.5772250000000 1.0
C      1  0.4905810000000  0.5098080000000  0.5506720000000 1.0
C      1  0.4802550000000  0.5113450000000  0.4723440000000 1.0
C      1  0.4986240000000  0.5362900000000  0.4576370000000 1.0
C      1  0.4604790000000  0.4769190000000  0.4073020000000 1.0
C      1  0.5546400000000  0.4055570000000  0.4729170000000 1.0
C      1  0.4408980000000  0.5104040000000  0.5473040000000 1.0
C      1  0.4363560000000  0.5823530000000  0.5260870000000 1.0
C      1  0.4146640000000  0.5499040000000  0.4517920000000 1.0
C      1  0.5464000000000  0.5713290000000  0.4530930000000 1.0
C      1  0.5714850000000  0.5445260000000  0.4870630000000 1.0
C      1  0.4285860000000  0.4961100000000  0.4430460000000 1.0
C      1  0.5303380000000  0.4897900000000  0.5016620000000 1.0
C      1  0.4543490000000  0.5897790000000  0.5051460000000 1.0
C      1  0.4599140000000  0.4268880000000  0.5420880000000 1.0
C      1  0.4613340000000  0.4586710000000  0.5433830000000 1.0
C      1  0.4625930000000  0.5063790000000  0.3967860000000 1.0
C      1  0.5117670000000  0.4097960000000  0.5405940000000 1.0
C      1  0.5138380000000  0.5939650000000  0.5020080000000 1.0
C      1  0.4033610000000  0.5017700000000  0.5570150000000 1.0
C      1  0.4486840000000  0.5095170000000  0.4271950000000 1.0
C      1  0.4236470000000  0.5571380000000  0.4795980000000 1.0
C      1  0.4327840000000  0.4431630000000  0.4529620000000 1.0
C      1  0.5144290000000  0.4762680000000  0.5281020000000 1.0
C      1  0.5754730000000  0.4244990000000  0.4670950000000 1.0
C      1  0.5824090000000  0.4749770000000  0.5599210000000 1.0
C      1  0.4668070000000  0.4634250000000  0.4580800000000 1.0
C      1  0.4413500000000  0.4817400000000  0.5448490000000 1.0
C      1  0.5661110000000  0.5315080000000  0.5641640000000 1.0
C      1  0.4958800000000  0.4294260000000  0.5629090000000 1.0
C      1  0.5551070000000  0.5325400000000  0.5106690000000 1.0
C      1  0.4100120000000  0.5072860000000  0.5017150000000 1.0
C      1  0.4699400000000  0.5485780000000  0.5409240000000 1.0
C      1  0.4994640000000  0.5619240000000  0.5207540000000 1.0
C      1  0.4801340000000  0.4493840000000  0.5163940000000 1.0
C      1  0.5640070000000  0.4350940000000  0.5274880000000 1.0
C      1  0.5957820000000  0.4779980000000  0.4827710000000 1.0
C      1  0.5963910000000  0.5424020000000  0.5073420000000 1.0
C      1  0.4051940000000  0.4942500000000  0.5277930000000 1.0
C      1  0.5526840000000  0.4638120000000  0.4516460000000 1.0
C      1  0.5516460000000  0.4864800000000  0.4320390000000 1.0
C      1  0.4570110000000  0.4864510000000  0.4777240000000 1.0
C      1  0.4918460000000  0.4995500000000  0.5011620000000 1.0
C      1  0.4813300000000  0.4445770000000  0.4329900000000 1.0
C      1  0.4589600000000  0.4743350000000  0.5068430000000 1.0
C      1  0.4800650000000  0.3986500000000  0.4990360000000 1.0
C      1  0.4973690000000  0.5328600000000  0.5052220000000 1.0
C      1  0.4762130000000  0.5071100000000  0.5810910000000 1.0
C      1  0.5200130000000  0.5184010000000  0.4125030000000 1.0
C      1  0.4512240000000  0.5725000000000  0.4804100000000 1.0
C      1  0.4447050000000  0.4440030000000  0.4993370000000 1.0
END
