TITL C-2778437-8639-1228 -0.00324874645062021 125000 -233.744755787373 0 0 43 (C1) n - 1
REM
REM in /home/nfs/bkarasulu/CARBON/AIRSS/Generating-Clusters/REBO/Only-C1/SD-CG/HFTN-CG
REM
REM
REM
REM
REM
REM ./C.cell (11c1c37f851c82e70ff6c80c92926a4b)
REM
REM compiler GCC version 9.2.1 20190827 (Red Hat 9.2.1-1)
REM options -cpp -mtune=generic -march=x86-64 -g -O0 -fpre-include=/usr/include/finclude/math-vector-fortran.h
REM seed 1321540031 -627526081 657421008 -1910654185 -1588391449 970268916 179371047 -386117354 -1262990647 -822575851 -1270537763 887153543 365932965 -1698664541 -613082314 393715113 -1501161251 1950213201 -830655798 1411735560 -1834560853 -2117692605 408448796 -827236908 916416247 -1679768967 -461917545 -1457478945 1160397988 617256161 73647016 -183705072 -1641577619
REM
CELL 1.54180   50.00000   50.00000   50.00000   90.00000   90.00000   90.00000
LATT -1
SFAC C  
C      1  0.4723900000000  0.4674990000000  0.4629950000000 1.0
C      1  0.5229920000000  0.4929550000000  0.4814050000000 1.0
C      1  0.4495960000000  0.4715000000000  0.5331000000000 1.0
C      1  0.4959520000000  0.5049330000000  0.4779730000000 1.0
C      1  0.4863460000000  0.5181120000000  0.5478500000000 1.0
C      1  0.5583660000000  0.4954050000000  0.4715150000000 1.0
C      1  0.4980880000000  0.4914610000000  0.5213260000000 1.0
C      1  0.4702940000000  0.5218190000000  0.4630650000000 1.0
C      1  0.4494310000000  0.5292300000000  0.4782700000000 1.0
C      1  0.4557410000000  0.4517470000000  0.4830330000000 1.0
C      1  0.5414680000000  0.4682840000000  0.4668250000000 1.0
C      1  0.4724940000000  0.5401770000000  0.5337630000000 1.0
C      1  0.4400330000000  0.5193820000000  0.5099040000000 1.0
C      1  0.5486770000000  0.5232350000000  0.5356580000000 1.0
C      1  0.4995710000000  0.4676620000000  0.4566580000000 1.0
C      1  0.5299890000000  0.5712170000000  0.4940860000000 1.0
C      1  0.5171560000000  0.5161510000000  0.5345730000000 1.0
C      1  0.5140900000000  0.4684630000000  0.5116150000000 1.0
C      1  0.4410290000000  0.4737020000000  0.5002400000000 1.0
C      1  0.5525080000000  0.5695100000000  0.5133370000000 1.0
C      1  0.5234310000000  0.5147570000000  0.4469360000000 1.0
C      1  0.5847480000000  0.4945960000000  0.4782500000000 1.0
C      1  0.4938880000000  0.5344070000000  0.4925270000000 1.0
C      1  0.5435610000000  0.4793850000000  0.5049590000000 1.0
C      1  0.5213780000000  0.5355630000000  0.5092140000000 1.0
C      1  0.4738920000000  0.5137040000000  0.5101210000000 1.0
C      1  0.5450740000000  0.5411190000000  0.4864760000000 1.0
C      1  0.4264400000000  0.5453710000000  0.4926780000000 1.0
C      1  0.4991040000000  0.4337280000000  0.4996620000000 1.0
C      1  0.4722160000000  0.4902130000000  0.5428060000000 1.0
C      1  0.5008180000000  0.5652390000000  0.5020090000000 1.0
C      1  0.4796860000000  0.5649320000000  0.5243490000000 1.0
C      1  0.5153240000000  0.4539330000000  0.4804020000000 1.0
C      1  0.4865140000000  0.4383100000000  0.5461340000000 1.0
C      1  0.4624000000000  0.4425320000000  0.5304210000000 1.0
C      1  0.4696660000000  0.4354700000000  0.5020870000000 1.0
C      1  0.4267890000000  0.4940200000000  0.5215390000000 1.0
C      1  0.5682910000000  0.4782600000000  0.5123650000000 1.0
C      1  0.5093550000000  0.4398380000000  0.5284630000000 1.0
C      1  0.5103940000000  0.4905730000000  0.4435630000000 1.0
C      1  0.5444150000000  0.5214030000000  0.4638720000000 1.0
C      1  0.4663040000000  0.4899150000000  0.4865100000000 1.0
C      1  0.5600980000000  0.5402910000000  0.5174650000000 1.0
END
