TITL C-2778428-5639-443 0.000819541314588142 125000 -815.148186385315 0 0 145 (C1) n - 1
REM
REM in /home/nfs/bkarasulu/CARBON/AIRSS/Generating-Clusters/REBO/Only-C1/SD-CG/HFTN-CG
REM
REM
REM
REM
REM
REM ./C.cell (11c1c37f851c82e70ff6c80c92926a4b)
REM
REM compiler GCC version 9.2.1 20190827 (Red Hat 9.2.1-1)
REM options -cpp -mtune=generic -march=x86-64 -g -O0 -fpre-include=/usr/include/finclude/math-vector-fortran.h
REM seed 1352773673 -1652233271 -631371200 -232122391 -31567957 1842352315 -1554160894 1007194224 1134673700 236595471 -1027632011 1086409014 -1951634 -662046207 -646342089 323110127 -1071477115 -1835607748 -1662724428 1144111624 35719217 -1158620353 -1865239595 509821759 -7692352 -1357778202 -1266613051 1438820895 -1103180077 228842550 -593774716 1787881396 -1769702502
REM
CELL 1.54180   50.00000   50.00000   50.00000   90.00000   90.00000   90.00000
LATT -1
SFAC C  
C      1  0.4606490000000  0.5225940000000  0.5602240000000 1.0
C      1  0.4694290000000  0.4015840000000  0.5377920000000 1.0
C      1  0.4997080000000  0.5863850000000  0.4581230000000 1.0
C      1  0.4996880000000  0.4467730000000  0.5334270000000 1.0
C      1  0.4839950000000  0.5339420000000  0.5020350000000 1.0
C      1  0.4406150000000  0.4724320000000  0.4521420000000 1.0
C      1  0.4178660000000  0.4414260000000  0.4772470000000 1.0
C      1  0.5688900000000  0.5637960000000  0.5668540000000 1.0
C      1  0.4846520000000  0.5786340000000  0.4315240000000 1.0
C      1  0.4202010000000  0.4971370000000  0.5576490000000 1.0
C      1  0.4499560000000  0.5728150000000  0.5236270000000 1.0
C      1  0.5172850000000  0.4209620000000  0.5463740000000 1.0
C      1  0.4847190000000  0.5357370000000  0.5315520000000 1.0
C      1  0.4169320000000  0.4442660000000  0.5064840000000 1.0
C      1  0.4517540000000  0.5140230000000  0.5980930000000 1.0
C      1  0.5419520000000  0.5720340000000  0.5727900000000 1.0
C      1  0.4733230000000  0.4246790000000  0.5538240000000 1.0
C      1  0.5291610000000  0.4831800000000  0.4658620000000 1.0
C      1  0.4920120000000  0.4523290000000  0.4673400000000 1.0
C      1  0.4989970000000  0.4755910000000  0.4277370000000 1.0
C      1  0.5716310000000  0.4761900000000  0.4197750000000 1.0
C      1  0.4536380000000  0.5710630000000  0.4328000000000 1.0
C      1  0.5033540000000  0.5127180000000  0.5746920000000 1.0
C      1  0.5680700000000  0.4974180000000  0.5453310000000 1.0
C      1  0.5559740000000  0.5320150000000  0.4902690000000 1.0
C      1  0.5248960000000  0.5456960000000  0.5812820000000 1.0
C      1  0.5939880000000  0.5368530000000  0.4786750000000 1.0
C      1  0.4649410000000  0.5570670000000  0.4901520000000 1.0
C      1  0.4633640000000  0.4105690000000  0.4767440000000 1.0
C      1  0.5174000000000  0.3982990000000  0.5256170000000 1.0
C      1  0.4412840000000  0.4895680000000  0.5319040000000 1.0
C      1  0.4839370000000  0.5793420000000  0.5171410000000 1.0
C      1  0.5038940000000  0.4377520000000  0.4388350000000 1.0
C      1  0.6006320000000  0.4891430000000  0.4982940000000 1.0
C      1  0.5222370000000  0.4884960000000  0.5866460000000 1.0
C      1  0.4664140000000  0.4897410000000  0.4766010000000 1.0
C      1  0.4390620000000  0.5568750000000  0.4600890000000 1.0
C      1  0.5358180000000  0.5390240000000  0.5162890000000 1.0
C      1  0.5027850000000  0.5687900000000  0.4856960000000 1.0
C      1  0.4163200000000  0.4655520000000  0.5302690000000 1.0
C      1  0.5166080000000  0.4972750000000  0.5318010000000 1.0
C      1  0.4455930000000  0.4896750000000  0.5787540000000 1.0
C      1  0.5329530000000  0.5578680000000  0.4350700000000 1.0
C      1  0.5163770000000  0.5217170000000  0.4332800000000 1.0
C      1  0.5273820000000  0.6010020000000  0.5240800000000 1.0
C      1  0.4572410000000  0.5443310000000  0.5833860000000 1.0
C      1  0.4743600000000  0.5546100000000  0.4615560000000 1.0
C      1  0.4829610000000  0.5196080000000  0.6013180000000 1.0
C      1  0.4786320000000  0.5272920000000  0.4052730000000 1.0
C      1  0.5336970000000  0.4321010000000  0.4387920000000 1.0
C      1  0.4550130000000  0.4461830000000  0.5068590000000 1.0
C      1  0.4995360000000  0.5083770000000  0.4971090000000 1.0
C      1  0.4228670000000  0.5524310000000  0.5239380000000 1.0
C      1  0.4831170000000  0.4692090000000  0.6091160000000 1.0
C      1  0.5503300000000  0.5712050000000  0.4790280000000 1.0
C      1  0.5535680000000  0.4567390000000  0.4278290000000 1.0
C      1  0.4545570000000  0.4492910000000  0.5409950000000 1.0
C      1  0.5664950000000  0.5321510000000  0.4332770000000 1.0
C      1  0.4672170000000  0.3969780000000  0.5049880000000 1.0
C      1  0.4104120000000  0.5239630000000  0.5386290000000 1.0
C      1  0.4501680000000  0.4393220000000  0.4325550000000 1.0
C      1  0.5967970000000  0.4892340000000  0.4702310000000 1.0
C      1  0.5459360000000  0.5215100000000  0.5697080000000 1.0
C      1  0.4373430000000  0.4264440000000  0.4614830000000 1.0
C      1  0.5746750000000  0.4763650000000  0.5120400000000 1.0
C      1  0.5405180000000  0.5172050000000  0.5378590000000 1.0
C      1  0.4171050000000  0.4937860000000  0.4643950000000 1.0
C      1  0.4810790000000  0.4635490000000  0.5547320000000 1.0
C      1  0.5424150000000  0.4768720000000  0.5353530000000 1.0
C      1  0.4814490000000  0.4539040000000  0.5871160000000 1.0
C      1  0.5395920000000  0.4431280000000  0.5424140000000 1.0
C      1  0.4314000000000  0.4644350000000  0.5607660000000 1.0
C      1  0.4984300000000  0.4919730000000  0.6080630000000 1.0
C      1  0.5356080000000  0.5225030000000  0.4678000000000 1.0
C      1  0.4731690000000  0.5628750000000  0.5435520000000 1.0
C      1  0.5975320000000  0.5034780000000  0.5289860000000 1.0
C      1  0.5563140000000  0.4246990000000  0.4616840000000 1.0
C      1  0.4719570000000  0.4777330000000  0.3993020000000 1.0
C      1  0.4208330000000  0.5521340000000  0.4892780000000 1.0
C      1  0.5585030000000  0.4567180000000  0.5655880000000 1.0
C      1  0.5271230000000  0.4714810000000  0.4382290000000 1.0
C      1  0.5190860000000  0.5456400000000  0.4871470000000 1.0
C      1  0.4213570000000  0.4838410000000  0.4951620000000 1.0
C      1  0.4528140000000  0.4789010000000  0.5056890000000 1.0
C      1  0.4164550000000  0.5161690000000  0.5002950000000 1.0
C      1  0.4432890000000  0.5201400000000  0.5345750000000 1.0
C      1  0.4833290000000  0.4335230000000  0.5101510000000 1.0
C      1  0.4923170000000  0.3855130000000  0.5228800000000 1.0
C      1  0.5695410000000  0.5386220000000  0.5550280000000 1.0
C      1  0.5201160000000  0.4621520000000  0.5136820000000 1.0
C      1  0.4576700000000  0.5031940000000  0.4173140000000 1.0
C      1  0.5305060000000  0.4975550000000  0.4177050000000 1.0
C      1  0.5394970000000  0.5359370000000  0.4124610000000 1.0
C      1  0.5262400000000  0.4565850000000  0.5770720000000 1.0
C      1  0.4473080000000  0.5111080000000  0.4487780000000 1.0
C      1  0.5740820000000  0.5347100000000  0.5256870000000 1.0
C      1  0.5012080000000  0.6062690000000  0.5163960000000 1.0
C      1  0.5519780000000  0.4882720000000  0.5740300000000 1.0
C      1  0.4860520000000  0.4828250000000  0.5105780000000 1.0
C      1  0.5717820000000  0.5523280000000  0.4604050000000 1.0
C      1  0.5770090000000  0.4683130000000  0.4620510000000 1.0
C      1  0.4864170000000  0.5124350000000  0.4433640000000 1.0
C      1  0.5719800000000  0.5593850000000  0.5025800000000 1.0
C      1  0.5726550000000  0.4436000000000  0.4744100000000 1.0
C      1  0.4381870000000  0.5477470000000  0.5547000000000 1.0
C      1  0.5581940000000  0.4969530000000  0.4638180000000 1.0
C      1  0.4445560000000  0.5313340000000  0.4980500000000 1.0
C      1  0.5112430000000  0.5275510000000  0.3947050000000 1.0
C      1  0.5071090000000  0.5063650000000  0.4685450000000 1.0
C      1  0.5856170000000  0.5155990000000  0.4561820000000 1.0
C      1  0.5692180000000  0.4457410000000  0.5041810000000 1.0
C      1  0.5013480000000  0.4952350000000  0.3999750000000 1.0
C      1  0.4673780000000  0.5394060000000  0.4331780000000 1.0
C      1  0.5409650000000  0.4369190000000  0.5104950000000 1.0
C      1  0.4996480000000  0.5531020000000  0.4144780000000 1.0
C      1  0.4456980000000  0.4708770000000  0.4198420000000 1.0
C      1  0.5014890000000  0.4337270000000  0.5711660000000 1.0
C      1  0.4603900000000  0.4557680000000  0.4743560000000 1.0
C      1  0.5608490000000  0.5022020000000  0.4181470000000 1.0
C      1  0.4029480000000  0.4950630000000  0.5218980000000 1.0
C      1  0.5244720000000  0.4151660000000  0.4671330000000 1.0
C      1  0.5031840000000  0.5480460000000  0.4485680000000 1.0
C      1  0.5641200000000  0.5065550000000  0.5073750000000 1.0
C      1  0.5263700000000  0.4127520000000  0.4999680000000 1.0
C      1  0.5073550000000  0.4706390000000  0.4865300000000 1.0
C      1  0.5370710000000  0.5725400000000  0.5104780000000 1.0
C      1  0.5298340000000  0.5859980000000  0.5516930000000 1.0
C      1  0.5085100000000  0.5384770000000  0.5530780000000 1.0
C      1  0.5763840000000  0.4545480000000  0.5367000000000 1.0
C      1  0.5323160000000  0.5020250000000  0.5019970000000 1.0
C      1  0.4221400000000  0.5276940000000  0.4644040000000 1.0
C      1  0.4915630000000  0.5487520000000  0.5877680000000 1.0
C      1  0.4735030000000  0.4811530000000  0.4464540000000 1.0
C      1  0.5295690000000  0.5774020000000  0.4573970000000 1.0
C      1  0.5981870000000  0.5279360000000  0.5050650000000 1.0
C      1  0.4753360000000  0.4272580000000  0.4510160000000 1.0
C      1  0.4517030000000  0.5843510000000  0.4944390000000 1.0
C      1  0.4830950000000  0.5706360000000  0.5686120000000 1.0
C      1  0.4958210000000  0.4169490000000  0.4854320000000 1.0
C      1  0.5113040000000  0.5655110000000  0.5323870000000 1.0
C      1  0.4793100000000  0.4498840000000  0.4183290000000 1.0
C      1  0.4879790000000  0.5044910000000  0.5351390000000 1.0
C      1  0.4762950000000  0.4945610000000  0.5638660000000 1.0
C      1  0.4038280000000  0.4628520000000  0.4639680000000 1.0
C      1  0.4649470000000  0.5193740000000  0.4770390000000 1.0
END
