TITL C-2778433-5640-1183 -0.00182279936956872 125000 -1046.22668996235 0 0 180 (C1) n - 1
REM
REM in /home/nfs/bkarasulu/CARBON/AIRSS/Generating-Clusters/REBO/Only-C1/SD-CG/HFTN-CG
REM
REM
REM
REM
REM
REM ./C.cell (11c1c37f851c82e70ff6c80c92926a4b)
REM
REM compiler GCC version 9.2.1 20190827 (Red Hat 9.2.1-1)
REM options -cpp -mtune=generic -march=x86-64 -g -O0 -fpre-include=/usr/include/finclude/math-vector-fortran.h
REM seed 1714602580 1619429364 1637290184 -1383545841 986287858 1377881481 -2060079246 -1270156394 195295061 -1950480288 -1784403113 916574201 121072810 -1722828900 -1218856131 -45755218 2135133738 -1830518454 1027291638 2113981888 -678744738 -608581032 -315985312 -504494607 -1761760921 722582387 1802979075 -1208148419 208245465 -641549215 -2101050922 -1824855921 1521436439
REM
CELL 1.54180   50.00000   50.00000   50.00000   90.00000   90.00000   90.00000
LATT -1
SFAC C  
C      1  0.4551330000000  0.5374270000000  0.5318120000000 1.0
C      1  0.4237280000000  0.5761080000000  0.5177270000000 1.0
C      1  0.4274040000000  0.4241640000000  0.4508520000000 1.0
C      1  0.4923320000000  0.4138100000000  0.4351860000000 1.0
C      1  0.4196440000000  0.4446800000000  0.5543350000000 1.0
C      1  0.5829090000000  0.4412380000000  0.4692540000000 1.0
C      1  0.6009590000000  0.4686240000000  0.4795600000000 1.0
C      1  0.4607700000000  0.4967210000000  0.6076340000000 1.0
C      1  0.5868280000000  0.4960030000000  0.5303120000000 1.0
C      1  0.4664810000000  0.4402470000000  0.4999300000000 1.0
C      1  0.4915330000000  0.5755580000000  0.5407360000000 1.0
C      1  0.4276060000000  0.5403340000000  0.5724140000000 1.0
C      1  0.4664230000000  0.4315230000000  0.5388980000000 1.0
C      1  0.5128790000000  0.4270440000000  0.4809240000000 1.0
C      1  0.4388270000000  0.4128010000000  0.5679270000000 1.0
C      1  0.5485640000000  0.6013940000000  0.4893390000000 1.0
C      1  0.6150970000000  0.5174630000000  0.4925940000000 1.0
C      1  0.4341610000000  0.4932360000000  0.5529800000000 1.0
C      1  0.5103230000000  0.5538540000000  0.5924620000000 1.0
C      1  0.5211150000000  0.5533820000000  0.4158650000000 1.0
C      1  0.4505930000000  0.5488860000000  0.4091920000000 1.0
C      1  0.5822350000000  0.4689230000000  0.4532860000000 1.0
C      1  0.5556690000000  0.5721490000000  0.4818550000000 1.0
C      1  0.4766450000000  0.5286760000000  0.5843160000000 1.0
C      1  0.5073900000000  0.4044040000000  0.5422660000000 1.0
C      1  0.5882720000000  0.5441790000000  0.4502500000000 1.0
C      1  0.4609350000000  0.5657370000000  0.4753840000000 1.0
C      1  0.5591470000000  0.4285460000000  0.5524390000000 1.0
C      1  0.5282190000000  0.4688680000000  0.5892310000000 1.0
C      1  0.5953870000000  0.5230790000000  0.5502500000000 1.0
C      1  0.5617840000000  0.4999210000000  0.4879750000000 1.0
C      1  0.4632000000000  0.5028950000000  0.4186220000000 1.0
C      1  0.5057280000000  0.5073530000000  0.5209720000000 1.0
C      1  0.3929020000000  0.5440250000000  0.4891760000000 1.0
C      1  0.5392010000000  0.4550230000000  0.4909320000000 1.0
C      1  0.4235820000000  0.5438380000000  0.4173580000000 1.0
C      1  0.4612790000000  0.5836040000000  0.4490590000000 1.0
C      1  0.4176900000000  0.4843970000000  0.4273670000000 1.0
C      1  0.5084960000000  0.5980660000000  0.4437990000000 1.0
C      1  0.4810240000000  0.6077550000000  0.4560200000000 1.0
C      1  0.5256870000000  0.5337390000000  0.4995290000000 1.0
C      1  0.4405470000000  0.4834430000000  0.4063010000000 1.0
C      1  0.3932250000000  0.4573350000000  0.5409880000000 1.0
C      1  0.5109630000000  0.4939650000000  0.5633840000000 1.0
C      1  0.4556960000000  0.5112210000000  0.4478980000000 1.0
C      1  0.5693600000000  0.5709460000000  0.4417050000000 1.0
C      1  0.5767940000000  0.4879780000000  0.5924540000000 1.0
C      1  0.4398130000000  0.4142090000000  0.5382890000000 1.0
C      1  0.4917290000000  0.5316500000000  0.5021670000000 1.0
C      1  0.5802560000000  0.4545220000000  0.5206390000000 1.0
C      1  0.4805700000000  0.5984810000000  0.4865770000000 1.0
C      1  0.4831150000000  0.3941070000000  0.5017420000000 1.0
C      1  0.5268650000000  0.4951900000000  0.4692040000000 1.0
C      1  0.5178500000000  0.5062340000000  0.4320650000000 1.0
C      1  0.5947850000000  0.4669030000000  0.4257270000000 1.0
C      1  0.5153620000000  0.5639940000000  0.5086230000000 1.0
C      1  0.4103590000000  0.5021740000000  0.5109450000000 1.0
C      1  0.4196200000000  0.4264550000000  0.4841830000000 1.0
C      1  0.5049060000000  0.5795210000000  0.5707180000000 1.0
C      1  0.5420430000000  0.4867090000000  0.4194300000000 1.0
C      1  0.4470430000000  0.5795970000000  0.5347700000000 1.0
C      1  0.4934060000000  0.5681510000000  0.4859700000000 1.0
C      1  0.5489360000000  0.5023740000000  0.5942940000000 1.0
C      1  0.5436040000000  0.4965410000000  0.5610660000000 1.0
C      1  0.5320390000000  0.4718460000000  0.4472670000000 1.0
C      1  0.5279050000000  0.5251000000000  0.5384990000000 1.0
C      1  0.5725040000000  0.5465370000000  0.5596760000000 1.0
C      1  0.5047340000000  0.4614710000000  0.5660410000000 1.0
C      1  0.4006950000000  0.4386020000000  0.5135310000000 1.0
C      1  0.4723280000000  0.5081700000000  0.5279810000000 1.0
C      1  0.4026720000000  0.5498670000000  0.5213030000000 1.0
C      1  0.4874040000000  0.4158800000000  0.5237450000000 1.0
C      1  0.3939800000000  0.5280870000000  0.4586360000000 1.0
C      1  0.5695710000000  0.5782780000000  0.5639890000000 1.0
C      1  0.4238970000000  0.4568630000000  0.4732940000000 1.0
C      1  0.4970690000000  0.4442600000000  0.5024220000000 1.0
C      1  0.4778270000000  0.4648630000000  0.4300700000000 1.0
C      1  0.5660360000000  0.5022050000000  0.4111120000000 1.0
C      1  0.4100820000000  0.5535440000000  0.4423620000000 1.0
C      1  0.5215110000000  0.4569550000000  0.5374500000000 1.0
C      1  0.4401720000000  0.5225130000000  0.5986040000000 1.0
C      1  0.5310860000000  0.4329890000000  0.5566520000000 1.0
C      1  0.5666770000000  0.5296140000000  0.4201810000000 1.0
C      1  0.5363940000000  0.5045300000000  0.5060170000000 1.0
C      1  0.4242440000000  0.4176100000000  0.5156320000000 1.0
C      1  0.4730420000000  0.6337630000000  0.4501140000000 1.0
C      1  0.5261900000000  0.5252460000000  0.4589990000000 1.0
C      1  0.4563590000000  0.4654730000000  0.4799920000000 1.0
C      1  0.5102830000000  0.4417980000000  0.4326200000000 1.0
C      1  0.5132910000000  0.4622330000000  0.4068230000000 1.0
C      1  0.4487790000000  0.4365080000000  0.5800310000000 1.0
C      1  0.4926370000000  0.5111110000000  0.3930420000000 1.0
C      1  0.6003590000000  0.4908720000000  0.5035410000000 1.0
C      1  0.4734510000000  0.5862810000000  0.5154910000000 1.0
C      1  0.5060140000000  0.5511710000000  0.4641990000000 1.0
C      1  0.4498070000000  0.5572890000000  0.5579410000000 1.0
C      1  0.5560940000000  0.4340940000000  0.4292800000000 1.0
C      1  0.5433540000000  0.4536090000000  0.4136730000000 1.0
C      1  0.5243860000000  0.5762860000000  0.4391790000000 1.0
C      1  0.5256110000000  0.5549240000000  0.5461940000000 1.0
C      1  0.4075980000000  0.5059440000000  0.5417610000000 1.0
C      1  0.4522950000000  0.4086760000000  0.4664550000000 1.0
C      1  0.4832560000000  0.4233500000000  0.4664490000000 1.0
C      1  0.5180360000000  0.4958350000000  0.6072880000000 1.0
C      1  0.5094780000000  0.4688230000000  0.4818230000000 1.0
C      1  0.5375550000000  0.4814740000000  0.5310660000000 1.0
C      1  0.4109560000000  0.5619050000000  0.4706860000000 1.0
C      1  0.4587050000000  0.4206150000000  0.4357390000000 1.0
C      1  0.5379710000000  0.5584430000000  0.5767750000000 1.0
C      1  0.4046810000000  0.4798150000000  0.5637580000000 1.0
C      1  0.4549810000000  0.4523400000000  0.4479110000000 1.0
C      1  0.4586670000000  0.4596530000000  0.5238180000000 1.0
C      1  0.4901530000000  0.4938090000000  0.4377210000000 1.0
C      1  0.4930060000000  0.5510670000000  0.4349900000000 1.0
C      1  0.4593460000000  0.4112990000000  0.4957630000000 1.0
C      1  0.4028530000000  0.4755180000000  0.4825430000000 1.0
C      1  0.5393060000000  0.6070730000000  0.5120930000000 1.0
C      1  0.5804080000000  0.5204440000000  0.4735810000000 1.0
C      1  0.4686940000000  0.5396720000000  0.4562980000000 1.0
C      1  0.4069520000000  0.5349100000000  0.5507930000000 1.0
C      1  0.4964590000000  0.5444050000000  0.5537720000000 1.0
C      1  0.5049750000000  0.3943970000000  0.4831260000000 1.0
C      1  0.4658370000000  0.4674830000000  0.4006430000000 1.0
C      1  0.5533180000000  0.5533640000000  0.4238820000000 1.0
C      1  0.4881230000000  0.5141850000000  0.5557590000000 1.0
C      1  0.4265090000000  0.5059670000000  0.4518530000000 1.0
C      1  0.5897940000000  0.5947730000000  0.5676720000000 1.0
C      1  0.5932590000000  0.4910530000000  0.4133390000000 1.0
C      1  0.4707000000000  0.5195560000000  0.4837280000000 1.0
C      1  0.5589700000000  0.5141140000000  0.5375830000000 1.0
C      1  0.5371560000000  0.5887910000000  0.5631390000000 1.0
C      1  0.5969450000000  0.5459970000000  0.4889500000000 1.0
C      1  0.5195020000000  0.5233100000000  0.5783960000000 1.0
C      1  0.4583690000000  0.4861700000000  0.5082500000000 1.0
C      1  0.5587490000000  0.4855760000000  0.4592710000000 1.0
C      1  0.4758670000000  0.5611790000000  0.5744210000000 1.0
C      1  0.5378950000000  0.5573080000000  0.4620150000000 1.0
C      1  0.4522520000000  0.5089030000000  0.5711580000000 1.0
C      1  0.5320630000000  0.4049630000000  0.5281990000000 1.0
C      1  0.5726070000000  0.4491560000000  0.5667880000000 1.0
C      1  0.5062530000000  0.4204180000000  0.5679600000000 1.0
C      1  0.4931860000000  0.4803000000000  0.3965420000000 1.0
C      1  0.4928740000000  0.4548710000000  0.4590700000000 1.0
C      1  0.5287490000000  0.5849020000000  0.5306650000000 1.0
C      1  0.5011290000000  0.5255400000000  0.6064170000000 1.0
C      1  0.3952020000000  0.4715510000000  0.5119170000000 1.0
C      1  0.5937250000000  0.4948180000000  0.5691850000000 1.0
C      1  0.4544600000000  0.4760360000000  0.5823180000000 1.0
C      1  0.4326310000000  0.5381090000000  0.5107440000000 1.0
C      1  0.5528200000000  0.5308710000000  0.5791950000000 1.0
C      1  0.4222960000000  0.4563560000000  0.4403240000000 1.0
C      1  0.4248840000000  0.4606850000000  0.5840590000000 1.0
C      1  0.5507150000000  0.4111780000000  0.5004870000000 1.0
C      1  0.5696280000000  0.4266770000000  0.5244550000000 1.0
C      1  0.4410790000000  0.5110880000000  0.4985070000000 1.0
C      1  0.4463250000000  0.4638510000000  0.5509680000000 1.0
C      1  0.4080600000000  0.5054400000000  0.4771340000000 1.0
C      1  0.4663250000000  0.5659100000000  0.4262320000000 1.0
C      1  0.5134480000000  0.5243680000000  0.4076620000000 1.0
C      1  0.4061620000000  0.5166530000000  0.4283790000000 1.0
C      1  0.5458620000000  0.4074920000000  0.4695910000000 1.0
C      1  0.4658120000000  0.5265600000000  0.3986760000000 1.0
C      1  0.5573690000000  0.4641340000000  0.5866820000000 1.0
C      1  0.5849220000000  0.5696530000000  0.4721780000000 1.0
C      1  0.5699430000000  0.5424160000000  0.5262150000000 1.0
C      1  0.6022230000000  0.5346110000000  0.5192560000000 1.0
C      1  0.5320180000000  0.4357490000000  0.5153740000000 1.0
C      1  0.5490390000000  0.5551950000000  0.5076440000000 1.0
C      1  0.4742680000000  0.4913540000000  0.4671480000000 1.0
C      1  0.4349700000000  0.5643620000000  0.4891680000000 1.0
C      1  0.6051210000000  0.4995010000000  0.4650130000000 1.0
C      1  0.5599880000000  0.4727090000000  0.5068080000000 1.0
C      1  0.5307910000000  0.4431590000000  0.4599530000000 1.0
C      1  0.5170460000000  0.3987890000000  0.4536620000000 1.0
C      1  0.5650630000000  0.4234740000000  0.4546900000000 1.0
C      1  0.5940440000000  0.5150440000000  0.4365350000000 1.0
C      1  0.4795330000000  0.4406920000000  0.5689070000000 1.0
C      1  0.4860060000000  0.4911380000000  0.6181880000000 1.0
C      1  0.4785360000000  0.5526830000000  0.5192840000000 1.0
C      1  0.5901330000000  0.4685380000000  0.5488100000000 1.0
END
