TITL C-2778436-5916-1088 -0.00148422561961873 125000 -322.39012761669 0 0 56 (C1) n - 1
REM
REM in /home/nfs/bkarasulu/CARBON/AIRSS/Generating-Clusters/REBO/Only-C1/SD-CG/HFTN-CG
REM
REM
REM
REM
REM
REM ./C.cell (11c1c37f851c82e70ff6c80c92926a4b)
REM
REM compiler GCC version 9.2.1 20190827 (Red Hat 9.2.1-1)
REM options -cpp -mtune=generic -march=x86-64 -g -O0 -fpre-include=/usr/include/finclude/math-vector-fortran.h
REM seed 382647462 1612980229 -1306768633 -342258704 1601479234 -190486246 1808785719 -791741 667751110 519333109 -1723003281 -532859143 -1923190502 -481441170 -1426736491 -1562289737 756289641 -1140572551 1153962800 1077008149 937677915 -1238011179 -1181678959 -846445314 -522308081 -243769765 178118919 1836059287 1208080871 -50076784 -687331163 -1252284924 1063570544
REM
CELL 1.54180   50.00000   50.00000   50.00000   90.00000   90.00000   90.00000
LATT -1
SFAC C  
C      1  0.5013460000000  0.4391440000000  0.5160320000000 1.0
C      1  0.5176500000000  0.4412280000000  0.4465460000000 1.0
C      1  0.5299650000000  0.4388630000000  0.5119880000000 1.0
C      1  0.5166460000000  0.4887120000000  0.4509080000000 1.0
C      1  0.4699950000000  0.5603500000000  0.5147370000000 1.0
C      1  0.5480570000000  0.4837540000000  0.5103740000000 1.0
C      1  0.4778530000000  0.4998900000000  0.5405710000000 1.0
C      1  0.5183460000000  0.5397470000000  0.5165700000000 1.0
C      1  0.5595390000000  0.5137590000000  0.5033590000000 1.0
C      1  0.5011560000000  0.5643780000000  0.4903720000000 1.0
C      1  0.4455340000000  0.4689850000000  0.5297560000000 1.0
C      1  0.5428120000000  0.4660030000000  0.5650560000000 1.0
C      1  0.5170850000000  0.5093810000000  0.4762300000000 1.0
C      1  0.5170940000000  0.4620100000000  0.5547910000000 1.0
C      1  0.4553940000000  0.5371530000000  0.4726940000000 1.0
C      1  0.4510230000000  0.5165580000000  0.5399480000000 1.0
C      1  0.5035910000000  0.5229480000000  0.4989800000000 1.0
C      1  0.4935940000000  0.4513550000000  0.4353150000000 1.0
C      1  0.5069780000000  0.4877650000000  0.5343050000000 1.0
C      1  0.4708130000000  0.4865620000000  0.4875510000000 1.0
C      1  0.5284150000000  0.5695430000000  0.4508190000000 1.0
C      1  0.5273670000000  0.4800000000000  0.4880600000000 1.0
C      1  0.4774390000000  0.5106600000000  0.5088660000000 1.0
C      1  0.4407600000000  0.4932640000000  0.4399040000000 1.0
C      1  0.5278980000000  0.5339830000000  0.5599210000000 1.0
C      1  0.4709830000000  0.5590010000000  0.4835250000000 1.0
C      1  0.5442980000000  0.5343910000000  0.5227350000000 1.0
C      1  0.5682490000000  0.4925080000000  0.4773270000000 1.0
C      1  0.4824510000000  0.4489330000000  0.4922920000000 1.0
C      1  0.4327560000000  0.4953310000000  0.5294770000000 1.0
C      1  0.4912870000000  0.4796010000000  0.4415600000000 1.0
C      1  0.5298280000000  0.5079020000000  0.5489360000000 1.0
C      1  0.4706010000000  0.4684170000000  0.5443250000000 1.0
C      1  0.5490350000000  0.5121700000000  0.4650580000000 1.0
C      1  0.5659490000000  0.4645500000000  0.4802200000000 1.0
C      1  0.5503630000000  0.4438780000000  0.4896330000000 1.0
C      1  0.5002640000000  0.5652320000000  0.5244510000000 1.0
C      1  0.5316520000000  0.4628890000000  0.4598520000000 1.0
C      1  0.5466510000000  0.5409000000000  0.5787170000000 1.0
C      1  0.4557030000000  0.5208610000000  0.4492990000000 1.0
C      1  0.4342940000000  0.4719650000000  0.4610420000000 1.0
C      1  0.5090870000000  0.5537950000000  0.5527540000000 1.0
C      1  0.4524710000000  0.4616650000000  0.5021390000000 1.0
C      1  0.4691970000000  0.4910660000000  0.4574010000000 1.0
C      1  0.5443860000000  0.5376600000000  0.4830990000000 1.0
C      1  0.5469270000000  0.4608710000000  0.5256210000000 1.0
C      1  0.5512800000000  0.4918580000000  0.5598520000000 1.0
C      1  0.5313820000000  0.5807250000000  0.4273040000000 1.0
C      1  0.4187680000000  0.4834620000000  0.4824920000000 1.0
C      1  0.4567110000000  0.4536160000000  0.4700880000000 1.0
C      1  0.4538460000000  0.5431290000000  0.5305030000000 1.0
C      1  0.5252280000000  0.5575350000000  0.4760720000000 1.0
C      1  0.4932000000000  0.4509070000000  0.5411510000000 1.0
C      1  0.4998760000000  0.4767730000000  0.5028600000000 1.0
C      1  0.4272990000000  0.5027300000000  0.5017020000000 1.0
C      1  0.4496300000000  0.5196820000000  0.4948610000000 1.0
END
