TITL C-2778436-5916-1091 -0.0117580348095889 125000 -386.947829210422 0 0 67 (C1) n - 1
REM
REM in /home/nfs/bkarasulu/CARBON/AIRSS/Generating-Clusters/REBO/Only-C1/SD-CG/HFTN-CG
REM
REM
REM
REM
REM
REM ./C.cell (11c1c37f851c82e70ff6c80c92926a4b)
REM
REM compiler GCC version 9.2.1 20190827 (Red Hat 9.2.1-1)
REM options -cpp -mtune=generic -march=x86-64 -g -O0 -fpre-include=/usr/include/finclude/math-vector-fortran.h
REM seed 1050540053 756578604 1241701207 2080721345 978748235 466358153 -596015910 -1845131458 -2114283662 1586508418 1968811756 -288854266 -1793348568 -363887497 -976809304 -492263623 -495159441 316018265 -2090223109 -1858540554 290944842 1037089198 1087416834 195442817 -587457077 2087633676 -65156856 -1607883370 687176740 -1677687423 -1189698465 -1698636210 1974165709
REM
CELL 1.54180   50.00000   50.00000   50.00000   90.00000   90.00000   90.00000
LATT -1
SFAC C  
C      1  0.4937670000000  0.4891310000000  0.5668000000000 1.0
C      1  0.4410410000000  0.5176390000000  0.5228100000000 1.0
C      1  0.5228030000000  0.4511800000000  0.5548840000000 1.0
C      1  0.4921250000000  0.5444820000000  0.5625590000000 1.0
C      1  0.4696900000000  0.5256940000000  0.5353070000000 1.0
C      1  0.5459350000000  0.5904470000000  0.4734120000000 1.0
C      1  0.4976170000000  0.5540540000000  0.5372110000000 1.0
C      1  0.4084620000000  0.5357300000000  0.4272940000000 1.0
C      1  0.5096810000000  0.4480630000000  0.5057500000000 1.0
C      1  0.5062270000000  0.4313660000000  0.4471970000000 1.0
C      1  0.4720920000000  0.4863730000000  0.5418630000000 1.0
C      1  0.5240520000000  0.5060540000000  0.5215540000000 1.0
C      1  0.3895740000000  0.5427580000000  0.4105410000000 1.0
C      1  0.5348360000000  0.5117740000000  0.5512380000000 1.0
C      1  0.5552330000000  0.5311530000000  0.5511720000000 1.0
C      1  0.4991480000000  0.4740070000000  0.5013400000000 1.0
C      1  0.4805520000000  0.5442220000000  0.4387520000000 1.0
C      1  0.4284190000000  0.5283040000000  0.4449940000000 1.0
C      1  0.4718290000000  0.4440640000000  0.5440780000000 1.0
C      1  0.4764110000000  0.5173820000000  0.5662170000000 1.0
C      1  0.4372270000000  0.4433210000000  0.5068350000000 1.0
C      1  0.5461420000000  0.4320700000000  0.5023330000000 1.0
C      1  0.5045730000000  0.5205370000000  0.4376160000000 1.0
C      1  0.5748600000000  0.4933020000000  0.5053950000000 1.0
C      1  0.4585470000000  0.4881480000000  0.4288150000000 1.0
C      1  0.4951300000000  0.4238770000000  0.5074490000000 1.0
C      1  0.5383840000000  0.5180990000000  0.4853390000000 1.0
C      1  0.4813870000000  0.5172970000000  0.4871180000000 1.0
C      1  0.5605490000000  0.5392420000000  0.5237930000000 1.0
C      1  0.4769690000000  0.5463860000000  0.4690900000000 1.0
C      1  0.5240190000000  0.4941600000000  0.5703120000000 1.0
C      1  0.5625540000000  0.4736420000000  0.4837590000000 1.0
C      1  0.5206690000000  0.5401190000000  0.5216050000000 1.0
C      1  0.5191590000000  0.4919210000000  0.4839180000000 1.0
C      1  0.4381670000000  0.5326950000000  0.4970010000000 1.0
C      1  0.5379770000000  0.5419490000000  0.4693570000000 1.0
C      1  0.5378170000000  0.4686990000000  0.5725280000000 1.0
C      1  0.4939320000000  0.4569090000000  0.5573070000000 1.0
C      1  0.5426910000000  0.5605730000000  0.5123640000000 1.0
C      1  0.5370950000000  0.5431370000000  0.4422430000000 1.0
C      1  0.4739760000000  0.5543960000000  0.5189770000000 1.0
C      1  0.4653210000000  0.4884250000000  0.4775750000000 1.0
C      1  0.4485470000000  0.4741620000000  0.4986490000000 1.0
C      1  0.4796620000000  0.5089310000000  0.4555840000000 1.0
C      1  0.4938690000000  0.5200890000000  0.5140110000000 1.0
C      1  0.5490000000000  0.4462450000000  0.4789840000000 1.0
C      1  0.5535580000000  0.5022730000000  0.4366990000000 1.0
C      1  0.5250580000000  0.5017150000000  0.4371310000000 1.0
C      1  0.4931510000000  0.4593810000000  0.4474240000000 1.0
C      1  0.4456550000000  0.5011220000000  0.5550910000000 1.0
C      1  0.5382020000000  0.4780280000000  0.5085030000000 1.0
C      1  0.4793290000000  0.4202250000000  0.5297990000000 1.0
C      1  0.5294690000000  0.4481400000000  0.4590050000000 1.0
C      1  0.4605470000000  0.5511690000000  0.4941070000000 1.0
C      1  0.5425550000000  0.5659290000000  0.4844670000000 1.0
C      1  0.4476330000000  0.4550920000000  0.5335770000000 1.0
C      1  0.5615330000000  0.4637610000000  0.5844260000000 1.0
C      1  0.5335580000000  0.4497350000000  0.5268410000000 1.0
C      1  0.5601600000000  0.5173990000000  0.5051650000000 1.0
C      1  0.4557320000000  0.5208820000000  0.4346290000000 1.0
C      1  0.4678300000000  0.4715850000000  0.4494630000000 1.0
C      1  0.5180010000000  0.4790260000000  0.4559670000000 1.0
C      1  0.5669600000000  0.4883370000000  0.4562140000000 1.0
C      1  0.4349190000000  0.4854580000000  0.5274500000000 1.0
C      1  0.4250230000000  0.5271150000000  0.4729440000000 1.0
C      1  0.5679340000000  0.5412250000000  0.5728510000000 1.0
C      1  0.4754760000000  0.4801910000000  0.5153170000000 1.0
END
