TITL C-2778422-5617-1475 0.00251195429668529 125000 -1022.6926465086 0 0 175 (C1) n - 1
REM
REM in /home/nfs/bkarasulu/CARBON/AIRSS/Generating-Clusters/REBO/Only-C1/SD-CG/HFTN-CG
REM
REM
REM
REM
REM
REM ./C.cell (11c1c37f851c82e70ff6c80c92926a4b)
REM
REM compiler GCC version 9.2.1 20190827 (Red Hat 9.2.1-1)
REM options -cpp -mtune=generic -march=x86-64 -g -O0 -fpre-include=/usr/include/finclude/math-vector-fortran.h
REM seed 64144571 1581495452 1830928668 -869327389 2141303944 -75710182 1811026408 -1005384266 -1947074255 293831644 1052062539 -78354573 -122899510 1269453176 -760026911 1796495312 -950691018 -895738090 -86522438 2074591476 1006524072 -2003548390 -1637164144 909320368 -1129499011 530132650 1983127751 -488692375 1799980016 -926320371 1584432999 125635453 -657731267
REM
CELL 1.54180   50.00000   50.00000   50.00000   90.00000   90.00000   90.00000
LATT -1
SFAC C  
C      1  0.5617480000000  0.5144400000000  0.4905180000000 1.0
C      1  0.4769180000000  0.5931810000000  0.5006560000000 1.0
C      1  0.5882310000000  0.4433230000000  0.4854800000000 1.0
C      1  0.4337700000000  0.5751160000000  0.4558820000000 1.0
C      1  0.5523180000000  0.4322850000000  0.5465730000000 1.0
C      1  0.4809880000000  0.5263970000000  0.5710990000000 1.0
C      1  0.4362230000000  0.4940080000000  0.4731210000000 1.0
C      1  0.4682350000000  0.4770640000000  0.5725420000000 1.0
C      1  0.5223890000000  0.5777050000000  0.5582340000000 1.0
C      1  0.4547130000000  0.4599610000000  0.4819860000000 1.0
C      1  0.5810130000000  0.4982210000000  0.4193970000000 1.0
C      1  0.5636520000000  0.5549930000000  0.4663440000000 1.0
C      1  0.4622780000000  0.5658370000000  0.4730290000000 1.0
C      1  0.5188590000000  0.5400450000000  0.3918960000000 1.0
C      1  0.4968200000000  0.4815580000000  0.5537240000000 1.0
C      1  0.4150630000000  0.4200370000000  0.5260400000000 1.0
C      1  0.4690760000000  0.5385760000000  0.6015480000000 1.0
C      1  0.5503730000000  0.5093710000000  0.4663340000000 1.0
C      1  0.5174590000000  0.5058480000000  0.5884240000000 1.0
C      1  0.5239520000000  0.4492530000000  0.5478610000000 1.0
C      1  0.5289720000000  0.4455150000000  0.4909260000000 1.0
C      1  0.4315910000000  0.5063020000000  0.5828200000000 1.0
C      1  0.4352600000000  0.4776060000000  0.5749230000000 1.0
C      1  0.5778110000000  0.5169270000000  0.6030550000000 1.0
C      1  0.5297260000000  0.4271570000000  0.5719410000000 1.0
C      1  0.5163120000000  0.5249260000000  0.5356710000000 1.0
C      1  0.6022500000000  0.5480260000000  0.5016630000000 1.0
C      1  0.4655640000000  0.5625020000000  0.5779110000000 1.0
C      1  0.5416820000000  0.6293150000000  0.5032990000000 1.0
C      1  0.4431500000000  0.5251610000000  0.4656830000000 1.0
C      1  0.5242870000000  0.5108150000000  0.4362400000000 1.0
C      1  0.4966480000000  0.4980000000000  0.4221420000000 1.0
C      1  0.5119700000000  0.5225960000000  0.4910010000000 1.0
C      1  0.4901640000000  0.5116510000000  0.5992020000000 1.0
C      1  0.3972860000000  0.4847380000000  0.4999850000000 1.0
C      1  0.5114920000000  0.5479710000000  0.4419730000000 1.0
C      1  0.5020650000000  0.5070760000000  0.4620070000000 1.0
C      1  0.5835010000000  0.5349150000000  0.5777550000000 1.0
C      1  0.4929960000000  0.5123410000000  0.5136520000000 1.0
C      1  0.4400340000000  0.4447850000000  0.5732640000000 1.0
C      1  0.5258170000000  0.4896870000000  0.4733200000000 1.0
C      1  0.4468590000000  0.4159020000000  0.4825770000000 1.0
C      1  0.4880680000000  0.4571830000000  0.6006910000000 1.0
C      1  0.5785130000000  0.4889170000000  0.5840170000000 1.0
C      1  0.4829390000000  0.4297190000000  0.4736300000000 1.0
C      1  0.5198840000000  0.4267650000000  0.4462600000000 1.0
C      1  0.5982440000000  0.4719510000000  0.4803960000000 1.0
C      1  0.5229150000000  0.5460530000000  0.5998370000000 1.0
C      1  0.5102640000000  0.6032120000000  0.5392730000000 1.0
C      1  0.5623440000000  0.5700890000000  0.4900160000000 1.0
C      1  0.4204550000000  0.4310880000000  0.5495340000000 1.0
C      1  0.4242300000000  0.5704620000000  0.4835190000000 1.0
C      1  0.5104330000000  0.5867480000000  0.4509670000000 1.0
C      1  0.5370260000000  0.5791530000000  0.4321180000000 1.0
C      1  0.4011000000000  0.4684380000000  0.4741370000000 1.0
C      1  0.5707620000000  0.4283750000000  0.4686370000000 1.0
C      1  0.5092280000000  0.4452510000000  0.4694840000000 1.0
C      1  0.4072170000000  0.5071870000000  0.4808200000000 1.0
C      1  0.5786290000000  0.4498780000000  0.5471870000000 1.0
C      1  0.4182950000000  0.4227890000000  0.4997800000000 1.0
C      1  0.4551040000000  0.4330860000000  0.5111100000000 1.0
C      1  0.4706050000000  0.5862970000000  0.4481300000000 1.0
C      1  0.5116810000000  0.4114460000000  0.5372660000000 1.0
C      1  0.5337360000000  0.6108970000000  0.5214290000000 1.0
C      1  0.4952240000000  0.5678040000000  0.5141250000000 1.0
C      1  0.4760500000000  0.4103040000000  0.4211910000000 1.0
C      1  0.5753360000000  0.4713480000000  0.4367540000000 1.0
C      1  0.4962460000000  0.4234260000000  0.5720050000000 1.0
C      1  0.4424530000000  0.5501460000000  0.5561990000000 1.0
C      1  0.4847610000000  0.4460780000000  0.5038760000000 1.0
C      1  0.4775070000000  0.4012920000000  0.4878560000000 1.0
C      1  0.5186230000000  0.4924510000000  0.5361350000000 1.0
C      1  0.4856830000000  0.4184680000000  0.3972310000000 1.0
C      1  0.5412480000000  0.5288530000000  0.4154210000000 1.0
C      1  0.4830290000000  0.6017270000000  0.5314740000000 1.0
C      1  0.5830690000000  0.5669470000000  0.5091700000000 1.0
C      1  0.4985610000000  0.5531610000000  0.5789080000000 1.0
C      1  0.5090100000000  0.4611670000000  0.5743070000000 1.0
C      1  0.5145590000000  0.5735110000000  0.4796080000000 1.0
C      1  0.4444090000000  0.5105090000000  0.5154630000000 1.0
C      1  0.4230110000000  0.4473980000000  0.4785350000000 1.0
C      1  0.4508400000000  0.5110440000000  0.6037010000000 1.0
C      1  0.4682170000000  0.4378930000000  0.5847130000000 1.0
C      1  0.5364890000000  0.5804800000000  0.4938950000000 1.0
C      1  0.5536670000000  0.4624670000000  0.4803380000000 1.0
C      1  0.4119130000000  0.4807350000000  0.5277850000000 1.0
C      1  0.5918760000000  0.4874180000000  0.4572920000000 1.0
C      1  0.5275640000000  0.5264410000000  0.5654180000000 1.0
C      1  0.4376820000000  0.4594330000000  0.5200490000000 1.0
C      1  0.4499680000000  0.4711180000000  0.4520640000000 1.0
C      1  0.4436520000000  0.5863930000000  0.5027940000000 1.0
C      1  0.5479870000000  0.5288490000000  0.5996650000000 1.0
C      1  0.4683990000000  0.5288870000000  0.5164110000000 1.0
C      1  0.4686330000000  0.4280160000000  0.4474460000000 1.0
C      1  0.4885230000000  0.4784340000000  0.5138590000000 1.0
C      1  0.5382140000000  0.5361830000000  0.4544990000000 1.0
C      1  0.5462600000000  0.4259260000000  0.5136310000000 1.0
C      1  0.4585700000000  0.5554000000000  0.5052000000000 1.0
C      1  0.4192820000000  0.5281110000000  0.5121590000000 1.0
C      1  0.5474140000000  0.4109570000000  0.4834120000000 1.0
C      1  0.4870480000000  0.6002860000000  0.4722610000000 1.0
C      1  0.5656600000000  0.4403320000000  0.4420450000000 1.0
C      1  0.5378820000000  0.5565840000000  0.5727150000000 1.0
C      1  0.4590940000000  0.4639050000000  0.4126220000000 1.0
C      1  0.4642500000000  0.5831680000000  0.5509900000000 1.0
C      1  0.5326820000000  0.5604640000000  0.4104580000000 1.0
C      1  0.5040180000000  0.4210250000000  0.5102090000000 1.0
C      1  0.5715890000000  0.5292200000000  0.4286990000000 1.0
C      1  0.4931370000000  0.5671450000000  0.5482340000000 1.0
C      1  0.4666340000000  0.4631410000000  0.5350820000000 1.0
C      1  0.4727530000000  0.4379560000000  0.5512930000000 1.0
C      1  0.4925090000000  0.5428460000000  0.3865390000000 1.0
C      1  0.4852510000000  0.4694960000000  0.4701450000000 1.0
C      1  0.5460430000000  0.4738060000000  0.4509300000000 1.0
C      1  0.4668270000000  0.4908250000000  0.4081240000000 1.0
C      1  0.5183320000000  0.4416450000000  0.6005700000000 1.0
C      1  0.4862710000000  0.4002570000000  0.5518450000000 1.0
C      1  0.4792100000000  0.4496000000000  0.4270890000000 1.0
C      1  0.4704910000000  0.5421880000000  0.4085590000000 1.0
C      1  0.5233440000000  0.5556470000000  0.5249840000000 1.0
C      1  0.3977120000000  0.4853580000000  0.4491170000000 1.0
C      1  0.5261910000000  0.4694580000000  0.4266040000000 1.0
C      1  0.5659080000000  0.4953070000000  0.5452220000000 1.0
C      1  0.4961090000000  0.4379320000000  0.3815540000000 1.0
C      1  0.5835240000000  0.4661800000000  0.5686060000000 1.0
C      1  0.4126590000000  0.5121310000000  0.5382810000000 1.0
C      1  0.5554560000000  0.5446600000000  0.5275150000000 1.0
C      1  0.4739090000000  0.5371420000000  0.4625310000000 1.0
C      1  0.5629290000000  0.5613860000000  0.4363970000000 1.0
C      1  0.5271330000000  0.4030740000000  0.4598860000000 1.0
C      1  0.5922560000000  0.4566840000000  0.5168290000000 1.0
C      1  0.4910410000000  0.5702920000000  0.4281730000000 1.0
C      1  0.5433450000000  0.5821910000000  0.5331130000000 1.0
C      1  0.4447920000000  0.4848400000000  0.5019030000000 1.0
C      1  0.5069420000000  0.4628810000000  0.3803270000000 1.0
C      1  0.5897450000000  0.5167340000000  0.5569050000000 1.0
C      1  0.4196300000000  0.4845110000000  0.4308130000000 1.0
C      1  0.5420580000000  0.5266090000000  0.5053030000000 1.0
C      1  0.4674140000000  0.4955410000000  0.5451440000000 1.0
C      1  0.5539280000000  0.5084920000000  0.5726520000000 1.0
C      1  0.4806970000000  0.3947140000000  0.5186520000000 1.0
C      1  0.4385710000000  0.4328580000000  0.4535830000000 1.0
C      1  0.5318940000000  0.4853100000000  0.5966430000000 1.0
C      1  0.4437700000000  0.5071580000000  0.4364240000000 1.0
C      1  0.4070940000000  0.5377520000000  0.4387220000000 1.0
C      1  0.5767460000000  0.5209590000000  0.5274920000000 1.0
C      1  0.5957460000000  0.5300340000000  0.4764320000000 1.0
C      1  0.5684750000000  0.5576930000000  0.5686900000000 1.0
C      1  0.5982490000000  0.5149580000000  0.5065510000000 1.0
C      1  0.4523050000000  0.5173600000000  0.4078600000000 1.0
C      1  0.5199040000000  0.4850840000000  0.5023470000000 1.0
C      1  0.5214020000000  0.4566180000000  0.5192480000000 1.0
C      1  0.4732490000000  0.4853700000000  0.6049250000000 1.0
C      1  0.6047820000000  0.4861100000000  0.5059450000000 1.0
C      1  0.5388740000000  0.4401760000000  0.4307150000000 1.0
C      1  0.4570670000000  0.5666510000000  0.4238000000000 1.0
C      1  0.4163870000000  0.4631290000000  0.5534890000000 1.0
C      1  0.4244870000000  0.5233650000000  0.5616010000000 1.0
C      1  0.4972540000000  0.4695400000000  0.4401920000000 1.0
C      1  0.4619580000000  0.5257840000000  0.5478390000000 1.0
C      1  0.4718150000000  0.4971340000000  0.4537600000000 1.0
C      1  0.4959840000000  0.5488310000000  0.4857270000000 1.0
C      1  0.4245440000000  0.5423860000000  0.4877380000000 1.0
C      1  0.5118790000000  0.4013400000000  0.4865520000000 1.0
C      1  0.4427200000000  0.5705690000000  0.5314480000000 1.0
C      1  0.4328220000000  0.4553230000000  0.4285970000000 1.0
C      1  0.5150050000000  0.4811790000000  0.3985200000000 1.0
C      1  0.5894090000000  0.5155020000000  0.4543320000000 1.0
C      1  0.5469780000000  0.4775610000000  0.5315310000000 1.0
C      1  0.4858730000000  0.5287810000000  0.4328890000000 1.0
C      1  0.4588300000000  0.4127290000000  0.5359330000000 1.0
C      1  0.5607010000000  0.4567210000000  0.5121330000000 1.0
C      1  0.4263900000000  0.5577790000000  0.4331630000000 1.0
C      1  0.3947730000000  0.5169580000000  0.4544390000000 1.0
C      1  0.5725450000000  0.5707580000000  0.5392960000000 1.0
END
