TITL C-2778428-5639-724 0.00651704495224458 125000 -707.689655370083 0 0 121 (C1) n - 1
REM
REM in /home/nfs/bkarasulu/CARBON/AIRSS/Generating-Clusters/REBO/Only-C1/SD-CG/HFTN-CG
REM
REM
REM
REM
REM
REM ./C.cell (11c1c37f851c82e70ff6c80c92926a4b)
REM
REM compiler GCC version 9.2.1 20190827 (Red Hat 9.2.1-1)
REM options -cpp -mtune=generic -march=x86-64 -g -O0 -fpre-include=/usr/include/finclude/math-vector-fortran.h
REM seed -1701045030 -249649031 331860493 1235342590 -694542506 -131152955 -1590393213 -1223429270 -467009439 -1724643487 1882762883 -1179903810 -1805726975 160256950 -850927478 1615165878 456518849 -1105672716 549445830 -2038292888 1998843549 1228027961 840712115 -119373801 102627467 1446054728 601691325 1397877183 1889104096 -961503879 -85831553 -1954650498 189622027
REM
CELL 1.54180   50.00000   50.00000   50.00000   90.00000   90.00000   90.00000
LATT -1
SFAC C  
C      1  0.5804500000000  0.5201340000000  0.5154870000000 1.0
C      1  0.4984330000000  0.5077400000000  0.5134300000000 1.0
C      1  0.5125610000000  0.4580720000000  0.5153240000000 1.0
C      1  0.5943720000000  0.4799780000000  0.5425950000000 1.0
C      1  0.5631110000000  0.4789220000000  0.4515830000000 1.0
C      1  0.4990260000000  0.4080980000000  0.4731830000000 1.0
C      1  0.4896710000000  0.5536800000000  0.4133040000000 1.0
C      1  0.5210020000000  0.4120770000000  0.5341120000000 1.0
C      1  0.5680800000000  0.5767370000000  0.5246030000000 1.0
C      1  0.4648760000000  0.5258970000000  0.4608260000000 1.0
C      1  0.4193340000000  0.4816980000000  0.4938040000000 1.0
C      1  0.4668550000000  0.5348490000000  0.5834610000000 1.0
C      1  0.5865620000000  0.5472500000000  0.4845500000000 1.0
C      1  0.5211450000000  0.4233170000000  0.4546160000000 1.0
C      1  0.4628770000000  0.5474870000000  0.5056440000000 1.0
C      1  0.4631760000000  0.4614880000000  0.4331100000000 1.0
C      1  0.5578930000000  0.4329640000000  0.4838030000000 1.0
C      1  0.5039150000000  0.5501120000000  0.4723930000000 1.0
C      1  0.4561950000000  0.5775710000000  0.4637580000000 1.0
C      1  0.5208160000000  0.5045390000000  0.6134150000000 1.0
C      1  0.4252240000000  0.5423330000000  0.5431940000000 1.0
C      1  0.4933980000000  0.4408050000000  0.4839030000000 1.0
C      1  0.5474570000000  0.4828230000000  0.5635280000000 1.0
C      1  0.5333920000000  0.5301180000000  0.5449500000000 1.0
C      1  0.4450540000000  0.4817560000000  0.5391720000000 1.0
C      1  0.4845800000000  0.5032520000000  0.4641490000000 1.0
C      1  0.4094330000000  0.5278270000000  0.4898070000000 1.0
C      1  0.4621620000000  0.5132740000000  0.4230280000000 1.0
C      1  0.4443650000000  0.5503710000000  0.4548300000000 1.0
C      1  0.4371890000000  0.5255060000000  0.4326280000000 1.0
C      1  0.5141330000000  0.4516540000000  0.5642980000000 1.0
C      1  0.4875860000000  0.4513220000000  0.4547230000000 1.0
C      1  0.5361350000000  0.5325560000000  0.4272560000000 1.0
C      1  0.5791300000000  0.4931020000000  0.5205520000000 1.0
C      1  0.5607250000000  0.5385140000000  0.5318010000000 1.0
C      1  0.5033980000000  0.5620780000000  0.4405390000000 1.0
C      1  0.5009720000000  0.5002490000000  0.5610440000000 1.0
C      1  0.4498120000000  0.4401070000000  0.5794300000000 1.0
C      1  0.4810560000000  0.5582050000000  0.4883200000000 1.0
C      1  0.5902500000000  0.4647890000000  0.4949560000000 1.0
C      1  0.4450490000000  0.4990150000000  0.4613340000000 1.0
C      1  0.4946290000000  0.5743620000000  0.5439880000000 1.0
C      1  0.5851420000000  0.5662230000000  0.5059350000000 1.0
C      1  0.5298720000000  0.4605490000000  0.4200640000000 1.0
C      1  0.5598740000000  0.5093540000000  0.4654700000000 1.0
C      1  0.4266510000000  0.4532390000000  0.4881900000000 1.0
C      1  0.4444900000000  0.5838820000000  0.5150080000000 1.0
C      1  0.3998270000000  0.4374950000000  0.4740580000000 1.0
C      1  0.5303360000000  0.5049560000000  0.5560520000000 1.0
C      1  0.5127950000000  0.5236110000000  0.4444560000000 1.0
C      1  0.5399030000000  0.4370510000000  0.4376200000000 1.0
C      1  0.4853200000000  0.5141160000000  0.5392070000000 1.0
C      1  0.6184200000000  0.4816610000000  0.5540150000000 1.0
C      1  0.4468840000000  0.5246810000000  0.5034270000000 1.0
C      1  0.4663710000000  0.5343670000000  0.5502120000000 1.0
C      1  0.4645520000000  0.4835990000000  0.4158230000000 1.0
C      1  0.5141710000000  0.4661430000000  0.4469870000000 1.0
C      1  0.5324590000000  0.4656120000000  0.5817290000000 1.0
C      1  0.4898190000000  0.4697730000000  0.5610980000000 1.0
C      1  0.4432830000000  0.4933340000000  0.5681540000000 1.0
C      1  0.5582450000000  0.5431960000000  0.4687660000000 1.0
C      1  0.4748890000000  0.4133120000000  0.4166120000000 1.0
C      1  0.5878130000000  0.4947810000000  0.4785210000000 1.0
C      1  0.5355870000000  0.5508190000000  0.5789350000000 1.0
C      1  0.5714320000000  0.4455010000000  0.5057370000000 1.0
C      1  0.4526840000000  0.4168750000000  0.4607950000000 1.0
C      1  0.5207710000000  0.5615830000000  0.5418590000000 1.0
C      1  0.4879840000000  0.5272290000000  0.4283970000000 1.0
C      1  0.5411350000000  0.5111610000000  0.4083450000000 1.0
C      1  0.4395100000000  0.5240770000000  0.5668460000000 1.0
C      1  0.5262320000000  0.4396580000000  0.5370790000000 1.0
C      1  0.4465620000000  0.4445350000000  0.5098470000000 1.0
C      1  0.5531950000000  0.5636770000000  0.5526660000000 1.0
C      1  0.4698700000000  0.4085430000000  0.4820080000000 1.0
C      1  0.4680120000000  0.5579450000000  0.5342480000000 1.0
C      1  0.5371040000000  0.5743000000000  0.5176910000000 1.0
C      1  0.5259630000000  0.5096910000000  0.4685970000000 1.0
C      1  0.4824600000000  0.4940900000000  0.4925500000000 1.0
C      1  0.5246720000000  0.4794300000000  0.6051820000000 1.0
C      1  0.5532320000000  0.5317080000000  0.5000270000000 1.0
C      1  0.4623940000000  0.4337770000000  0.5546100000000 1.0
C      1  0.5266620000000  0.5166670000000  0.4989150000000 1.0
C      1  0.5227160000000  0.5968350000000  0.4985250000000 1.0
C      1  0.5576920000000  0.4470470000000  0.5317270000000 1.0
C      1  0.4083520000000  0.5021720000000  0.4766270000000 1.0
C      1  0.5551410000000  0.4814640000000  0.5118490000000 1.0
C      1  0.4625800000000  0.4165580000000  0.5084840000000 1.0
C      1  0.5360850000000  0.5582250000000  0.4501190000000 1.0
C      1  0.4684470000000  0.4607490000000  0.5391010000000 1.0
C      1  0.4755860000000  0.5885090000000  0.5207400000000 1.0
C      1  0.4541990000000  0.5008930000000  0.4900590000000 1.0
C      1  0.6016590000000  0.5238820000000  0.4820390000000 1.0
C      1  0.4798610000000  0.4525990000000  0.5098960000000 1.0
C      1  0.4681000000000  0.4293900000000  0.4380280000000 1.0
C      1  0.4666970000000  0.4115290000000  0.5369030000000 1.0
C      1  0.5247260000000  0.4866530000000  0.4055020000000 1.0
C      1  0.5353130000000  0.4649050000000  0.4909780000000 1.0
C      1  0.5914890000000  0.4651520000000  0.4617940000000 1.0
C      1  0.5285060000000  0.5602360000000  0.4890720000000 1.0
C      1  0.4724140000000  0.4869270000000  0.5849370000000 1.0
C      1  0.4429380000000  0.5870970000000  0.4862880000000 1.0
C      1  0.4914700000000  0.5902240000000  0.4934680000000 1.0
C      1  0.4186960000000  0.5482120000000  0.4742320000000 1.0
C      1  0.4294850000000  0.5683020000000  0.5342090000000 1.0
C      1  0.5674370000000  0.4676570000000  0.5490450000000 1.0
C      1  0.4199290000000  0.5236330000000  0.5202570000000 1.0
C      1  0.4278890000000  0.4921520000000  0.5189620000000 1.0
C      1  0.4467080000000  0.4659730000000  0.5881470000000 1.0
C      1  0.5218820000000  0.5851240000000  0.4665170000000 1.0
C      1  0.4936620000000  0.4888120000000  0.4422970000000 1.0
C      1  0.4280680000000  0.4269890000000  0.4666600000000 1.0
C      1  0.4293560000000  0.4454190000000  0.5356130000000 1.0
C      1  0.4176820000000  0.5042570000000  0.4466290000000 1.0
C      1  0.5258680000000  0.4332810000000  0.4868930000000 1.0
C      1  0.4955160000000  0.4921850000000  0.4107590000000 1.0
C      1  0.5240610000000  0.4897170000000  0.5196160000000 1.0
C      1  0.5338970000000  0.4790680000000  0.4651690000000 1.0
C      1  0.5194850000000  0.5342060000000  0.5892030000000 1.0
C      1  0.4881280000000  0.5850270000000  0.4598610000000 1.0
C      1  0.4912080000000  0.5151460000000  0.5888800000000 1.0
C      1  0.5650080000000  0.4449630000000  0.4547460000000 1.0
END
