TITL C-2778433-5640-13 -0.00256562406540017 125000 -361.624682659685 0 0 62 (C1) n - 1
REM
REM in /home/nfs/bkarasulu/CARBON/AIRSS/Generating-Clusters/REBO/Only-C1/SD-CG/HFTN-CG
REM
REM
REM
REM
REM
REM ./C.cell (11c1c37f851c82e70ff6c80c92926a4b)
REM
REM compiler GCC version 9.2.1 20190827 (Red Hat 9.2.1-1)
REM options -cpp -mtune=generic -march=x86-64 -g -O0 -fpre-include=/usr/include/finclude/math-vector-fortran.h
REM seed -1967185605 -362432703 -1174887208 -895862788 -462858979 1020307554 -1050617677 1085265731 1264887121 534692186 1649958445 1882469413 1928659354 -497803461 2115719125 724647667 345827852 -119454905 797605670 -1934869545 -1341114428 357222931 -1074554230 -258362612 987278237 -551049537 1186152011 -616832505 517405635 -2079182678 -167897861 82941775 -888914175
REM
CELL 1.54180   50.00000   50.00000   50.00000   90.00000   90.00000   90.00000
LATT -1
SFAC C  
C      1  0.5154710000000  0.4506730000000  0.5366520000000 1.0
C      1  0.5578490000000  0.5076140000000  0.5334110000000 1.0
C      1  0.5622650000000  0.5322360000000  0.4748510000000 1.0
C      1  0.5328660000000  0.4848780000000  0.5718160000000 1.0
C      1  0.5431130000000  0.5805490000000  0.5270610000000 1.0
C      1  0.4886280000000  0.4510000000000  0.4776430000000 1.0
C      1  0.4933550000000  0.5652560000000  0.4706720000000 1.0
C      1  0.4582240000000  0.5383320000000  0.5165570000000 1.0
C      1  0.4290180000000  0.5123300000000  0.5242300000000 1.0
C      1  0.4849500000000  0.5001900000000  0.4094190000000 1.0
C      1  0.4581820000000  0.5195610000000  0.4521360000000 1.0
C      1  0.5494090000000  0.5271930000000  0.5598750000000 1.0
C      1  0.5238050000000  0.4850720000000  0.5107880000000 1.0
C      1  0.4531110000000  0.5276430000000  0.5677920000000 1.0
C      1  0.4579600000000  0.4990420000000  0.5650260000000 1.0
C      1  0.5058590000000  0.5222670000000  0.5378770000000 1.0
C      1  0.4854460000000  0.4936770000000  0.5704820000000 1.0
C      1  0.5714930000000  0.5088570000000  0.4852000000000 1.0
C      1  0.4811750000000  0.4976980000000  0.4931500000000 1.0
C      1  0.4961570000000  0.4423710000000  0.5098600000000 1.0
C      1  0.4771440000000  0.5455490000000  0.4488780000000 1.0
C      1  0.5440680000000  0.5512220000000  0.4826090000000 1.0
C      1  0.5346080000000  0.5326770000000  0.5305570000000 1.0
C      1  0.4362230000000  0.4610690000000  0.5360940000000 1.0
C      1  0.5331070000000  0.4660700000000  0.4470250000000 1.0
C      1  0.5059990000000  0.4715520000000  0.5606300000000 1.0
C      1  0.5345280000000  0.5575920000000  0.5135340000000 1.0
C      1  0.4429370000000  0.5370620000000  0.5430580000000 1.0
C      1  0.4571160000000  0.4623130000000  0.4709310000000 1.0
C      1  0.4404660000000  0.5137570000000  0.4731020000000 1.0
C      1  0.5443040000000  0.4584790000000  0.5324090000000 1.0
C      1  0.5211990000000  0.4607770000000  0.4986300000000 1.0
C      1  0.4726730000000  0.4955720000000  0.4471670000000 1.0
C      1  0.4428380000000  0.4432380000000  0.5199410000000 1.0
C      1  0.4375700000000  0.5298360000000  0.4960990000000 1.0
C      1  0.4488880000000  0.4891320000000  0.5375470000000 1.0
C      1  0.4909730000000  0.4896940000000  0.4680930000000 1.0
C      1  0.4639520000000  0.4431800000000  0.4985510000000 1.0
C      1  0.5307280000000  0.5131700000000  0.5775070000000 1.0
C      1  0.5171230000000  0.5067860000000  0.4120610000000 1.0
C      1  0.5513320000000  0.4804950000000  0.5505320000000 1.0
C      1  0.5622930000000  0.4498810000000  0.4844950000000 1.0
C      1  0.5536490000000  0.4507170000000  0.4587450000000 1.0
C      1  0.4964420000000  0.5255220000000  0.4290650000000 1.0
C      1  0.4861020000000  0.5262490000000  0.5115100000000 1.0
C      1  0.4582090000000  0.4693570000000  0.4377590000000 1.0
C      1  0.5031200000000  0.4902720000000  0.5334530000000 1.0
C      1  0.4769240000000  0.5398910000000  0.5787790000000 1.0
C      1  0.5152990000000  0.5642760000000  0.4859440000000 1.0
C      1  0.5486700000000  0.4999200000000  0.4021350000000 1.0
C      1  0.5024890000000  0.5274210000000  0.4619410000000 1.0
C      1  0.4674470000000  0.4797430000000  0.4109100000000 1.0
C      1  0.4379190000000  0.4858040000000  0.4806810000000 1.0
C      1  0.5311270000000  0.5080590000000  0.4963750000000 1.0
C      1  0.5016280000000  0.5219060000000  0.5709210000000 1.0
C      1  0.4255390000000  0.4845900000000  0.5054970000000 1.0
C      1  0.4750520000000  0.4881320000000  0.5211260000000 1.0
C      1  0.5365060000000  0.4833660000000  0.4262130000000 1.0
C      1  0.5663940000000  0.4928510000000  0.5075530000000 1.0
C      1  0.5598190000000  0.4647220000000  0.5081300000000 1.0
C      1  0.5100050000000  0.5247820000000  0.4880990000000 1.0
C      1  0.5092500000000  0.4668780000000  0.4612120000000 1.0
END
