TITL C-2778437-8639-536 -0.00593838104660427 125000 -941.676332011195 0 0 166 (C1) n - 1
REM
REM in /home/nfs/bkarasulu/CARBON/AIRSS/Generating-Clusters/REBO/Only-C1/SD-CG/HFTN-CG
REM
REM
REM
REM
REM
REM ./C.cell (11c1c37f851c82e70ff6c80c92926a4b)
REM
REM compiler GCC version 9.2.1 20190827 (Red Hat 9.2.1-1)
REM options -cpp -mtune=generic -march=x86-64 -g -O0 -fpre-include=/usr/include/finclude/math-vector-fortran.h
REM seed -1845646567 466582474 905618163 2008362127 1996097015 -1606515208 -2011862028 2078657082 936283682 2024137634 2029318620 -1772860935 -1943880642 -2082981551 1326768597 -1366709966 -788650138 -1103840353 1118799761 2046653855 -1857257408 2071339650 -25088753 -661038297 1888543459 -2093740961 -1067931620 -1712668927 1997575712 -1574496463 1080327965 -14631139 2067516730
REM
CELL 1.54180   50.00000   50.00000   50.00000   90.00000   90.00000   90.00000
LATT -1
SFAC C  
C      1  0.3910540000000  0.4872890000000  0.5325540000000 1.0
C      1  0.4585640000000  0.5428340000000  0.5028310000000 1.0
C      1  0.5030490000000  0.3935930000000  0.4967400000000 1.0
C      1  0.4802880000000  0.4160990000000  0.5362850000000 1.0
C      1  0.4954090000000  0.4290810000000  0.4217000000000 1.0
C      1  0.5244830000000  0.4906160000000  0.5303680000000 1.0
C      1  0.4623890000000  0.4277220000000  0.4759320000000 1.0
C      1  0.5346030000000  0.5701310000000  0.5766070000000 1.0
C      1  0.4557870000000  0.4861010000000  0.4499400000000 1.0
C      1  0.5864470000000  0.5520930000000  0.5238120000000 1.0
C      1  0.5385750000000  0.4045410000000  0.5395390000000 1.0
C      1  0.5323200000000  0.3858260000000  0.4845740000000 1.0
C      1  0.4957510000000  0.4216230000000  0.4800180000000 1.0
C      1  0.4693810000000  0.5511860000000  0.5340800000000 1.0
C      1  0.4362170000000  0.4945800000000  0.5187840000000 1.0
C      1  0.4436270000000  0.5066860000000  0.4723870000000 1.0
C      1  0.5725360000000  0.4969830000000  0.4299540000000 1.0
C      1  0.4717020000000  0.5583370000000  0.4494720000000 1.0
C      1  0.5238370000000  0.4874850000000  0.5608230000000 1.0
C      1  0.4632360000000  0.5093760000000  0.5068640000000 1.0
C      1  0.4869620000000  0.4784390000000  0.4270790000000 1.0
C      1  0.5344470000000  0.5749980000000  0.5480770000000 1.0
C      1  0.5137050000000  0.5537900000000  0.5908060000000 1.0
C      1  0.5390330000000  0.5431570000000  0.4265420000000 1.0
C      1  0.4870210000000  0.5597990000000  0.4188070000000 1.0
C      1  0.5976630000000  0.5643640000000  0.4780440000000 1.0
C      1  0.5723230000000  0.4805530000000  0.5872800000000 1.0
C      1  0.5808840000000  0.5212740000000  0.4904090000000 1.0
C      1  0.5522100000000  0.3931520000000  0.4401350000000 1.0
C      1  0.4458030000000  0.5900840000000  0.4778110000000 1.0
C      1  0.4897210000000  0.4486750000000  0.5401540000000 1.0
C      1  0.5196380000000  0.5099050000000  0.3993260000000 1.0
C      1  0.5171160000000  0.4577680000000  0.5322160000000 1.0
C      1  0.5310750000000  0.4402120000000  0.5798100000000 1.0
C      1  0.5217520000000  0.4956410000000  0.4365570000000 1.0
C      1  0.3999740000000  0.5269860000000  0.5324090000000 1.0
C      1  0.4963460000000  0.4968730000000  0.3907960000000 1.0
C      1  0.4178610000000  0.5168840000000  0.5996110000000 1.0
C      1  0.5222190000000  0.4521850000000  0.5002500000000 1.0
C      1  0.5602290000000  0.5690770000000  0.4480580000000 1.0
C      1  0.5449540000000  0.4433710000000  0.5329150000000 1.0
C      1  0.4511780000000  0.4460770000000  0.5751250000000 1.0
C      1  0.5447500000000  0.4932100000000  0.4146470000000 1.0
C      1  0.4535770000000  0.4390670000000  0.4150160000000 1.0
C      1  0.5075840000000  0.5011230000000  0.5957940000000 1.0
C      1  0.5253020000000  0.5278450000000  0.5990020000000 1.0
C      1  0.4009960000000  0.5475240000000  0.4627710000000 1.0
C      1  0.4659070000000  0.5031850000000  0.4037590000000 1.0
C      1  0.5518590000000  0.5301900000000  0.5027350000000 1.0
C      1  0.5278770000000  0.3871960000000  0.5172810000000 1.0
C      1  0.4594140000000  0.4807590000000  0.4885440000000 1.0
C      1  0.4756400000000  0.4912030000000  0.5870900000000 1.0
C      1  0.5269210000000  0.4777950000000  0.4574140000000 1.0
C      1  0.5798410000000  0.5797670000000  0.5214610000000 1.0
C      1  0.4728650000000  0.3978490000000  0.4574350000000 1.0
C      1  0.4855560000000  0.5533440000000  0.5817880000000 1.0
C      1  0.5248530000000  0.4718370000000  0.5915010000000 1.0
C      1  0.4116470000000  0.5160720000000  0.5605380000000 1.0
C      1  0.5382850000000  0.4192370000000  0.5640780000000 1.0
C      1  0.4415850000000  0.5065580000000  0.4271690000000 1.0
C      1  0.5711200000000  0.4207480000000  0.4937000000000 1.0
C      1  0.5976090000000  0.5431280000000  0.4987430000000 1.0
C      1  0.4693620000000  0.4021290000000  0.5161170000000 1.0
C      1  0.5464240000000  0.4921940000000  0.5098030000000 1.0
C      1  0.4720040000000  0.3906100000000  0.4871750000000 1.0
C      1  0.4552410000000  0.5017680000000  0.5451160000000 1.0
C      1  0.5177900000000  0.5262960000000  0.5502710000000 1.0
C      1  0.4195880000000  0.5260780000000  0.4440140000000 1.0
C      1  0.4959300000000  0.5230940000000  0.5723420000000 1.0
C      1  0.5341550000000  0.4616750000000  0.4197790000000 1.0
C      1  0.4677740000000  0.5875750000000  0.4573980000000 1.0
C      1  0.5366270000000  0.4844840000000  0.4822050000000 1.0
C      1  0.5827970000000  0.4547220000000  0.4762490000000 1.0
C      1  0.5623790000000  0.5453160000000  0.4141910000000 1.0
C      1  0.5647410000000  0.6020120000000  0.4816510000000 1.0
C      1  0.5844470000000  0.5083870000000  0.5491420000000 1.0
C      1  0.5212370000000  0.5528990000000  0.5295170000000 1.0
C      1  0.4883550000000  0.4450120000000  0.5004790000000 1.0
C      1  0.4657730000000  0.5326620000000  0.4711390000000 1.0
C      1  0.4660300000000  0.5280600000000  0.5569570000000 1.0
C      1  0.4148510000000  0.5415930000000  0.5830140000000 1.0
C      1  0.6100980000000  0.4717880000000  0.4869890000000 1.0
C      1  0.4209790000000  0.4810090000000  0.4787850000000 1.0
C      1  0.4941310000000  0.4771630000000  0.5675180000000 1.0
C      1  0.4359420000000  0.4640590000000  0.5053290000000 1.0
C      1  0.5199600000000  0.4245860000000  0.4606020000000 1.0
C      1  0.4103360000000  0.5593590000000  0.5356780000000 1.0
C      1  0.5355500000000  0.4002630000000  0.4603060000000 1.0
C      1  0.4989620000000  0.5383240000000  0.4498280000000 1.0
C      1  0.4352560000000  0.5842650000000  0.5578600000000 1.0
C      1  0.5470240000000  0.5197900000000  0.5570070000000 1.0
C      1  0.5373950000000  0.5820370000000  0.4355620000000 1.0
C      1  0.5370880000000  0.5469430000000  0.4580990000000 1.0
C      1  0.4120740000000  0.4933580000000  0.4502990000000 1.0
C      1  0.5834690000000  0.5266470000000  0.4425200000000 1.0
C      1  0.4387780000000  0.4503000000000  0.4393650000000 1.0
C      1  0.5895140000000  0.5103090000000  0.4661990000000 1.0
C      1  0.6007640000000  0.4827930000000  0.5115660000000 1.0
C      1  0.5546290000000  0.4571580000000  0.4931950000000 1.0
C      1  0.4403010000000  0.4161100000000  0.4911700000000 1.0
C      1  0.4410590000000  0.5709150000000  0.4968140000000 1.0
C      1  0.5524190000000  0.5293540000000  0.5871670000000 1.0
C      1  0.5090610000000  0.5702170000000  0.4421830000000 1.0
C      1  0.4408140000000  0.4667520000000  0.5498840000000 1.0
C      1  0.5047930000000  0.4555190000000  0.4183440000000 1.0
C      1  0.5141040000000  0.5654310000000  0.4750000000000 1.0
C      1  0.4709270000000  0.5671720000000  0.5634760000000 1.0
C      1  0.4603060000000  0.6023050000000  0.4339420000000 1.0
C      1  0.4294730000000  0.4263990000000  0.5168010000000 1.0
C      1  0.5915180000000  0.4752630000000  0.5497150000000 1.0
C      1  0.4950260000000  0.5148850000000  0.4717630000000 1.0
C      1  0.4564070000000  0.4555510000000  0.4655810000000 1.0
C      1  0.4462020000000  0.4352690000000  0.5431940000000 1.0
C      1  0.5253170000000  0.5275890000000  0.4812360000000 1.0
C      1  0.4609490000000  0.4422000000000  0.5131520000000 1.0
C      1  0.5540240000000  0.4920130000000  0.5732440000000 1.0
C      1  0.4252730000000  0.4763450000000  0.4266580000000 1.0
C      1  0.4109020000000  0.4535970000000  0.5254280000000 1.0
C      1  0.4880180000000  0.4913990000000  0.5140500000000 1.0
C      1  0.3951200000000  0.5688890000000  0.4886570000000 1.0
C      1  0.4891970000000  0.5671550000000  0.4943800000000 1.0
C      1  0.4752360000000  0.5778280000000  0.5161700000000 1.0
C      1  0.5142430000000  0.5398040000000  0.4106810000000 1.0
C      1  0.4781210000000  0.4309500000000  0.5668310000000 1.0
C      1  0.5600510000000  0.5578800000000  0.5864170000000 1.0
C      1  0.3736140000000  0.5674780000000  0.4656380000000 1.0
C      1  0.4601540000000  0.5891620000000  0.5413580000000 1.0
C      1  0.5402770000000  0.5907840000000  0.4862810000000 1.0
C      1  0.4219580000000  0.5666530000000  0.5736750000000 1.0
C      1  0.4820390000000  0.5303540000000  0.4069600000000 1.0
C      1  0.5003980000000  0.4485250000000  0.5786280000000 1.0
C      1  0.5949130000000  0.4477770000000  0.5299040000000 1.0
C      1  0.5726620000000  0.4780260000000  0.5138160000000 1.0
C      1  0.4303170000000  0.5335510000000  0.5148710000000 1.0
C      1  0.4567420000000  0.4729590000000  0.4123670000000 1.0
C      1  0.6117020000000  0.4983380000000  0.5349080000000 1.0
C      1  0.4919940000000  0.5980310000000  0.4683820000000 1.0
C      1  0.4501530000000  0.4771460000000  0.5871620000000 1.0
C      1  0.4985970000000  0.4744580000000  0.4896350000000 1.0
C      1  0.4050660000000  0.5171390000000  0.4739540000000 1.0
C      1  0.5291440000000  0.4486050000000  0.4491780000000 1.0
C      1  0.4345220000000  0.5381220000000  0.5483680000000 1.0
C      1  0.5038610000000  0.5390230000000  0.5031200000000 1.0
C      1  0.5570350000000  0.5879900000000  0.5364150000000 1.0
C      1  0.4235780000000  0.4904170000000  0.5794440000000 1.0
C      1  0.4085570000000  0.5092390000000  0.5040860000000 1.0
C      1  0.4713680000000  0.4732590000000  0.5358910000000 1.0
C      1  0.5708080000000  0.4184030000000  0.4649600000000 1.0
C      1  0.5369130000000  0.5606810000000  0.5001770000000 1.0
C      1  0.5055780000000  0.5154560000000  0.5230520000000 1.0
C      1  0.6020600000000  0.4859910000000  0.4616610000000 1.0
C      1  0.5852690000000  0.5558760000000  0.4516140000000 1.0
C      1  0.5676670000000  0.4531800000000  0.5446830000000 1.0
C      1  0.4954840000000  0.5111430000000  0.4311450000000 1.0
C      1  0.4849870000000  0.4072260000000  0.4341340000000 1.0
C      1  0.5662930000000  0.5293050000000  0.5337490000000 1.0
C      1  0.5865220000000  0.5881320000000  0.4934740000000 1.0
C      1  0.3980600000000  0.4766190000000  0.5035610000000 1.0
C      1  0.5939600000000  0.4382490000000  0.5039640000000 1.0
C      1  0.5734090000000  0.4350430000000  0.4429850000000 1.0
C      1  0.5818050000000  0.4674680000000  0.4443430000000 1.0
C      1  0.4293390000000  0.6123750000000  0.4760140000000 1.0
C      1  0.4879160000000  0.4854770000000  0.4607300000000 1.0
C      1  0.4146900000000  0.5708000000000  0.5086630000000 1.0
C      1  0.4099110000000  0.4747680000000  0.5526100000000 1.0
C      1  0.5498060000000  0.4201890000000  0.5132870000000 1.0
END
