TITL C-2778437-8639-1016 -0.000367835731217336 125000 -295.281152392098 0 0 51 (C1) n - 1
REM
REM in /home/nfs/bkarasulu/CARBON/AIRSS/Generating-Clusters/REBO/Only-C1/SD-CG/HFTN-CG
REM
REM
REM
REM
REM
REM ./C.cell (11c1c37f851c82e70ff6c80c92926a4b)
REM
REM compiler GCC version 9.2.1 20190827 (Red Hat 9.2.1-1)
REM options -cpp -mtune=generic -march=x86-64 -g -O0 -fpre-include=/usr/include/finclude/math-vector-fortran.h
REM seed 235057174 -215575159 -2010923448 -371652513 -1790507011 -2040766210 703632850 -855292051 -1185366135 -1960288509 1690101522 -1319061011 1785871862 1247860949 1131530163 83181646 787035667 108656643 -630237873 -613327373 -1620840054 -1189042942 1048690777 -574577868 -306260806 -1063845827 423399767 -1469708021 1905161658 1687651974 363100768 -226269072 1603450583
REM
CELL 1.54180   50.00000   50.00000   50.00000   90.00000   90.00000   90.00000
LATT -1
SFAC C  
C      1  0.4734900000000  0.5513430000000  0.4996280000000 1.0
C      1  0.4900880000000  0.4420710000000  0.4985570000000 1.0
C      1  0.5138570000000  0.4462160000000  0.5131190000000 1.0
C      1  0.4360090000000  0.5228340000000  0.5318730000000 1.0
C      1  0.5131900000000  0.4415210000000  0.5413440000000 1.0
C      1  0.4719920000000  0.4860990000000  0.5562260000000 1.0
C      1  0.5171310000000  0.4958210000000  0.5242290000000 1.0
C      1  0.5523800000000  0.5145150000000  0.5229760000000 1.0
C      1  0.4608570000000  0.4594040000000  0.5406770000000 1.0
C      1  0.5610990000000  0.4807860000000  0.4699440000000 1.0
C      1  0.5321330000000  0.5580220000000  0.5327950000000 1.0
C      1  0.5537060000000  0.4807700000000  0.5254940000000 1.0
C      1  0.5056440000000  0.4890150000000  0.5541800000000 1.0
C      1  0.4628140000000  0.4869890000000  0.4958060000000 1.0
C      1  0.5146190000000  0.4926320000000  0.4606020000000 1.0
C      1  0.5289120000000  0.4719420000000  0.5062560000000 1.0
C      1  0.4531040000000  0.5327210000000  0.4882050000000 1.0
C      1  0.4919720000000  0.4583850000000  0.5544960000000 1.0
C      1  0.4628240000000  0.5120440000000  0.5438700000000 1.0
C      1  0.4745880000000  0.5094540000000  0.5125690000000 1.0
C      1  0.5101540000000  0.5207670000000  0.5545810000000 1.0
C      1  0.4842190000000  0.5339090000000  0.5500840000000 1.0
C      1  0.4629990000000  0.5256250000000  0.4612830000000 1.0
C      1  0.5574150000000  0.4607540000000  0.5482380000000 1.0
C      1  0.4802320000000  0.5573830000000  0.5295690000000 1.0
C      1  0.4363840000000  0.4674680000000  0.5183460000000 1.0
C      1  0.5074480000000  0.5456000000000  0.5198640000000 1.0
C      1  0.4838920000000  0.5470660000000  0.4532740000000 1.0
C      1  0.4849150000000  0.4552050000000  0.4518370000000 1.0
C      1  0.5231420000000  0.5470170000000  0.4832340000000 1.0
C      1  0.6087470000000  0.4912870000000  0.4728820000000 1.0
C      1  0.4891040000000  0.4829880000000  0.4512550000000 1.0
C      1  0.4674770000000  0.4576170000000  0.5085940000000 1.0
C      1  0.4398660000000  0.4783810000000  0.4434820000000 1.0
C      1  0.5220060000000  0.5183960000000  0.4520200000000 1.0
C      1  0.5288950000000  0.5423520000000  0.4439260000000 1.0
C      1  0.4956380000000  0.5543120000000  0.4791950000000 1.0
C      1  0.5782700000000  0.4969690000000  0.5105090000000 1.0
C      1  0.5401090000000  0.5323350000000  0.4984630000000 1.0
C      1  0.5350850000000  0.5300210000000  0.5440850000000 1.0
C      1  0.5336880000000  0.4787450000000  0.4769500000000 1.0
C      1  0.5385990000000  0.4416560000000  0.5540790000000 1.0
C      1  0.4708170000000  0.5036000000000  0.4413490000000 1.0
C      1  0.4272450000000  0.4899000000000  0.4967340000000 1.0
C      1  0.4338160000000  0.5193880000000  0.5046390000000 1.0
C      1  0.5025080000000  0.5174660000000  0.5124580000000 1.0
C      1  0.4430230000000  0.4840780000000  0.4682930000000 1.0
C      1  0.4901760000000  0.5431380000000  0.4253850000000 1.0
C      1  0.4806860000000  0.5177710000000  0.4174360000000 1.0
C      1  0.4889970000000  0.4363400000000  0.4711120000000 1.0
C      1  0.5840350000000  0.4898840000000  0.4839960000000 1.0
END
