TITL C-2778437-8639-1357 -0.00187078819002399 125000 -811.756796205264 0 0 138 (C1) n - 1
REM
REM in /home/nfs/bkarasulu/CARBON/AIRSS/Generating-Clusters/REBO/Only-C1/SD-CG/HFTN-CG
REM
REM
REM
REM
REM
REM ./C.cell (11c1c37f851c82e70ff6c80c92926a4b)
REM
REM compiler GCC version 9.2.1 20190827 (Red Hat 9.2.1-1)
REM options -cpp -mtune=generic -march=x86-64 -g -O0 -fpre-include=/usr/include/finclude/math-vector-fortran.h
REM seed -1894324658 175987318 1607809124 1001725013 -367702470 -1632483370 -1235420487 -1228692969 180808239 832005613 -1791947018 -671716722 149866185 847941242 2080653431 1594364758 247491681 662664542 1512293626 -1127201663 -1814918821 783113018 -619198784 1958817833 -425755911 847963415 1429029071 401323138 1469919615 344417637 -490583091 -1614768454 569229308
REM
CELL 1.54180   50.00000   50.00000   50.00000   90.00000   90.00000   90.00000
LATT -1
SFAC C  
C      1  0.5241820000000  0.5226650000000  0.4266210000000 1.0
C      1  0.4457870000000  0.4612650000000  0.5146870000000 1.0
C      1  0.4896780000000  0.4888320000000  0.5996530000000 1.0
C      1  0.4677380000000  0.5470350000000  0.5145880000000 1.0
C      1  0.4247910000000  0.4505370000000  0.5468380000000 1.0
C      1  0.5248770000000  0.4524100000000  0.5335080000000 1.0
C      1  0.5257500000000  0.5917580000000  0.5098770000000 1.0
C      1  0.4200770000000  0.4938950000000  0.5504450000000 1.0
C      1  0.5847990000000  0.5386680000000  0.4782340000000 1.0
C      1  0.5355420000000  0.5285690000000  0.4542200000000 1.0
C      1  0.4422380000000  0.4881200000000  0.4251160000000 1.0
C      1  0.4962560000000  0.5808740000000  0.4851750000000 1.0
C      1  0.4804270000000  0.4198340000000  0.5664750000000 1.0
C      1  0.4379830000000  0.4303970000000  0.5261260000000 1.0
C      1  0.5615810000000  0.4244470000000  0.5217720000000 1.0
C      1  0.4626940000000  0.6094710000000  0.5284630000000 1.0
C      1  0.5153360000000  0.4631490000000  0.4770990000000 1.0
C      1  0.4811370000000  0.5305060000000  0.3928910000000 1.0
C      1  0.5690190000000  0.5301340000000  0.4493730000000 1.0
C      1  0.5190120000000  0.5482730000000  0.4698710000000 1.0
C      1  0.4775700000000  0.6061780000000  0.4983650000000 1.0
C      1  0.5520330000000  0.4638730000000  0.4209390000000 1.0
C      1  0.5619700000000  0.4508500000000  0.4490180000000 1.0
C      1  0.4207800000000  0.4711210000000  0.4413190000000 1.0
C      1  0.4694920000000  0.5905520000000  0.5476490000000 1.0
C      1  0.5426890000000  0.5294240000000  0.5290700000000 1.0
C      1  0.5025790000000  0.4600430000000  0.5941390000000 1.0
C      1  0.4536480000000  0.4551440000000  0.5857010000000 1.0
C      1  0.3978400000000  0.4506620000000  0.5522890000000 1.0
C      1  0.5401340000000  0.4546010000000  0.4967880000000 1.0
C      1  0.4917400000000  0.4672420000000  0.4559460000000 1.0
C      1  0.5254270000000  0.4996040000000  0.4900590000000 1.0
C      1  0.5967950000000  0.5621280000000  0.5232120000000 1.0
C      1  0.5487680000000  0.5812540000000  0.4392000000000 1.0
C      1  0.4371690000000  0.5086590000000  0.5083870000000 1.0
C      1  0.4684580000000  0.5008280000000  0.4655910000000 1.0
C      1  0.4647710000000  0.4932960000000  0.5816300000000 1.0
C      1  0.4393870000000  0.4378910000000  0.4927520000000 1.0
C      1  0.5103700000000  0.5093730000000  0.5996690000000 1.0
C      1  0.5340850000000  0.4719710000000  0.5888450000000 1.0
C      1  0.5496750000000  0.4284670000000  0.4683150000000 1.0
C      1  0.3844330000000  0.5339230000000  0.4983380000000 1.0
C      1  0.4661930000000  0.5645550000000  0.4267930000000 1.0
C      1  0.5740670000000  0.4536600000000  0.5617240000000 1.0
C      1  0.4504620000000  0.5443370000000  0.4418990000000 1.0
C      1  0.5703830000000  0.5126500000000  0.4851950000000 1.0
C      1  0.4381210000000  0.5852610000000  0.4772800000000 1.0
C      1  0.4772810000000  0.4413130000000  0.5877370000000 1.0
C      1  0.4758060000000  0.4679480000000  0.5175680000000 1.0
C      1  0.5001730000000  0.5237670000000  0.5625430000000 1.0
C      1  0.4660680000000  0.4784610000000  0.5445100000000 1.0
C      1  0.4495190000000  0.5303270000000  0.5564020000000 1.0
C      1  0.4866600000000  0.5330530000000  0.4916390000000 1.0
C      1  0.5732750000000  0.5063010000000  0.5543910000000 1.0
C      1  0.5832530000000  0.4689500000000  0.4876060000000 1.0
C      1  0.5383150000000  0.5631670000000  0.4832050000000 1.0
C      1  0.4147200000000  0.5220130000000  0.5386040000000 1.0
C      1  0.4613730000000  0.5428060000000  0.4731940000000 1.0
C      1  0.5753460000000  0.4989380000000  0.4423830000000 1.0
C      1  0.5515890000000  0.5859090000000  0.4670510000000 1.0
C      1  0.4571800000000  0.4128420000000  0.5424500000000 1.0
C      1  0.5350320000000  0.5609920000000  0.5211870000000 1.0
C      1  0.4407880000000  0.5059680000000  0.4790080000000 1.0
C      1  0.4598240000000  0.4368260000000  0.4275210000000 1.0
C      1  0.4912300000000  0.4918830000000  0.5600730000000 1.0
C      1  0.5299170000000  0.4603220000000  0.4470550000000 1.0
C      1  0.4851420000000  0.5671830000000  0.5312200000000 1.0
C      1  0.5831760000000  0.4802770000000  0.5586320000000 1.0
C      1  0.4733170000000  0.5422860000000  0.5645380000000 1.0
C      1  0.4019760000000  0.5147520000000  0.4764800000000 1.0
C      1  0.5021450000000  0.4585890000000  0.5082150000000 1.0
C      1  0.5094370000000  0.3972270000000  0.4817070000000 1.0
C      1  0.4904430000000  0.4343640000000  0.4531260000000 1.0
C      1  0.5042980000000  0.5043280000000  0.4485910000000 1.0
C      1  0.4152660000000  0.4856540000000  0.4705470000000 1.0
C      1  0.4734010000000  0.5555030000000  0.4018280000000 1.0
C      1  0.5791080000000  0.4912900000000  0.5039940000000 1.0
C      1  0.5541080000000  0.5624880000000  0.5479160000000 1.0
C      1  0.5701860000000  0.4409210000000  0.4932360000000 1.0
C      1  0.4760700000000  0.5106900000000  0.4336060000000 1.0
C      1  0.5792380000000  0.4751690000000  0.4597070000000 1.0
C      1  0.5453440000000  0.5094250000000  0.4744600000000 1.0
C      1  0.4363950000000  0.5173390000000  0.4273020000000 1.0
C      1  0.5345260000000  0.4818430000000  0.5086750000000 1.0
C      1  0.5536000000000  0.5521100000000  0.4283800000000 1.0
C      1  0.5177280000000  0.4183040000000  0.4628850000000 1.0
C      1  0.5047350000000  0.5581210000000  0.5058240000000 1.0
C      1  0.4824170000000  0.4015360000000  0.5260440000000 1.0
C      1  0.4594900000000  0.4732950000000  0.4504340000000 1.0
C      1  0.4841260000000  0.4547820000000  0.4251920000000 1.0
C      1  0.5803740000000  0.5715440000000  0.5431970000000 1.0
C      1  0.5497000000000  0.4509060000000  0.5748370000000 1.0
C      1  0.5890780000000  0.5397260000000  0.5079220000000 1.0
C      1  0.4268010000000  0.5261140000000  0.4573240000000 1.0
C      1  0.4721420000000  0.4831500000000  0.4138490000000 1.0
C      1  0.4797020000000  0.5849060000000  0.4494540000000 1.0
C      1  0.4481000000000  0.4426760000000  0.4542510000000 1.0
C      1  0.4433870000000  0.5343110000000  0.5254100000000 1.0
C      1  0.4773920000000  0.5706080000000  0.5701170000000 1.0
C      1  0.5539610000000  0.5170920000000  0.5725150000000 1.0
C      1  0.5156380000000  0.4935360000000  0.4007000000000 1.0
C      1  0.5130610000000  0.5854580000000  0.4564540000000 1.0
C      1  0.5007200000000  0.4616310000000  0.5542510000000 1.0
C      1  0.4895560000000  0.5533150000000  0.4573170000000 1.0
C      1  0.5731100000000  0.5176070000000  0.5246570000000 1.0
C      1  0.4357650000000  0.5576230000000  0.4830260000000 1.0
C      1  0.5619470000000  0.4907000000000  0.4177630000000 1.0
C      1  0.5332430000000  0.4234130000000  0.5384040000000 1.0
C      1  0.4890300000000  0.5034640000000  0.3959900000000 1.0
C      1  0.5270410000000  0.4860200000000  0.5366280000000 1.0
C      1  0.5119790000000  0.4098840000000  0.5614040000000 1.0
C      1  0.4661060000000  0.4255840000000  0.4756210000000 1.0
C      1  0.5189280000000  0.4393200000000  0.5721820000000 1.0
C      1  0.4623220000000  0.5971990000000  0.4720930000000 1.0
C      1  0.5452270000000  0.5443320000000  0.5684900000000 1.0
C      1  0.5181540000000  0.4832510000000  0.4293610000000 1.0
C      1  0.4982260000000  0.5071060000000  0.4800140000000 1.0
C      1  0.5038300000000  0.5713110000000  0.5813460000000 1.0
C      1  0.5208210000000  0.5620260000000  0.4326420000000 1.0
C      1  0.5359190000000  0.5005350000000  0.5886310000000 1.0
C      1  0.4824170000000  0.4083600000000  0.4939250000000 1.0
C      1  0.4904410000000  0.4335380000000  0.5374620000000 1.0
C      1  0.4424660000000  0.5049700000000  0.5680260000000 1.0
C      1  0.5294100000000  0.6017930000000  0.4823640000000 1.0
C      1  0.4130390000000  0.5444610000000  0.4899330000000 1.0
C      1  0.5362990000000  0.4212470000000  0.4988650000000 1.0
C      1  0.4458390000000  0.4650070000000  0.5601290000000 1.0
C      1  0.5226140000000  0.3839670000000  0.5025130000000 1.0
C      1  0.5816270000000  0.4329390000000  0.5437770000000 1.0
C      1  0.5071130000000  0.4268840000000  0.5083630000000 1.0
C      1  0.5425150000000  0.5079670000000  0.4062380000000 1.0
C      1  0.5241560000000  0.5125260000000  0.5431160000000 1.0
C      1  0.5152140000000  0.3953000000000  0.5313870000000 1.0
C      1  0.5180850000000  0.5473270000000  0.5758370000000 1.0
C      1  0.4960800000000  0.5382600000000  0.4297280000000 1.0
C      1  0.4301110000000  0.4852630000000  0.5232920000000 1.0
C      1  0.4994520000000  0.5958070000000  0.5215020000000 1.0
C      1  0.4208990000000  0.4523910000000  0.4698800000000 1.0
END
