TITL C-2778437-8639-938 -0.172110496243213 125000 -314.025903868374 0 0 55 (C1) n - 1
REM
REM in /home/nfs/bkarasulu/CARBON/AIRSS/Generating-Clusters/REBO/Only-C1/SD-CG/HFTN-CG
REM
REM
REM
REM
REM
REM ./C.cell (11c1c37f851c82e70ff6c80c92926a4b)
REM
REM compiler GCC version 9.2.1 20190827 (Red Hat 9.2.1-1)
REM options -cpp -mtune=generic -march=x86-64 -g -O0 -fpre-include=/usr/include/finclude/math-vector-fortran.h
REM seed 816554359 109139563 -1548131699 1243412945 774185957 -1685167566 -514418397 1948935664 454489355 987436704 700651462 -2135372827 -1327166795 -1403234872 1289454575 -991309900 949478243 840273431 -992302301 -1505631329 1706566348 252222986 340517100 918820010 -259530464 648662410 -1034333126 -1220226973 -2138243705 -990104036 84870745 1338189594 112357600
REM
CELL 1.54180   50.00000   50.00000   50.00000   90.00000   90.00000   90.00000
LATT -1
SFAC C  
C      1  0.4921440000000  0.4803870000000  0.4531930000000 1.0
C      1  0.4891140000000  0.5161690000000  0.4853670000000 1.0
C      1  0.4668880000000  0.5278900000000  0.4424670000000 1.0
C      1  0.5612670000000  0.4722970000000  0.5160450000000 1.0
C      1  0.5041560000000  0.5249300000000  0.4282590000000 1.0
C      1  0.4707040000000  0.4839660000000  0.5573530000000 1.0
C      1  0.4724640000000  0.5574260000000  0.4479270000000 1.0
C      1  0.4773420000000  0.5050740000000  0.4601800000000 1.0
C      1  0.5212090000000  0.4452310000000  0.5620170000000 1.0
C      1  0.4656750000000  0.4500080000000  0.5163280000000 1.0
C      1  0.5205370000000  0.4851810000000  0.4568490000000 1.0
C      1  0.5003950000000  0.5780110000000  0.5139370000000 1.0
C      1  0.4214920000000  0.5086110000000  0.4659300000000 1.0
C      1  0.4535370000000  0.4515520000000  0.4880010000000 1.0
C      1  0.4679400000000  0.4572900000000  0.5495360000000 1.0
C      1  0.5155780000000  0.5185910000000  0.5763690000000 1.0
C      1  0.4722720000000  0.5745660000000  0.4698320000000 1.0
C      1  0.5243230000000  0.5162760000000  0.4497210000000 1.0
C      1  0.4665520000000  0.4966120000000  0.4976400000000 1.0
C      1  0.5266540000000  0.5600590000000  0.5119690000000 1.0
C      1  0.4802750000000  0.4784070000000  0.5179060000000 1.0
C      1  0.5617900000000  0.5234810000000  0.5154560000000 1.0
C      1  0.5607580000000  0.5225790000000  0.5418870000000 1.0
C      1  0.4798500000000  0.5065560000000  0.4203630000000 1.0
C      1  0.4810780000000  0.4301850000000  0.5377620000000 1.0
C      1  0.5375880000000  0.5371360000000  0.4967370000000 1.0
C      1  0.4441370000000  0.5124060000000  0.5128440000000 1.0
C      1  0.5467810000000  0.4603100000000  0.4934300000000 1.0
C      1  0.4600200000000  0.5367130000000  0.5257870000000 1.0
C      1  0.4214170000000  0.5168850000000  0.4923210000000 1.0
C      1  0.5109480000000  0.4307750000000  0.5366410000000 1.0
C      1  0.5154160000000  0.5248520000000  0.4798230000000 1.0
C      1  0.5229890000000  0.4472670000000  0.5091450000000 1.0
C      1  0.5250670000000  0.4723510000000  0.5600700000000 1.0
C      1  0.5657960000000  0.5247070000000  0.4826970000000 1.0
C      1  0.4827230000000  0.5829460000000  0.4933160000000 1.0
C      1  0.4957550000000  0.5035210000000  0.5334220000000 1.0
C      1  0.5189320000000  0.5480660000000  0.5633000000000 1.0
C      1  0.5058130000000  0.5539730000000  0.5372120000000 1.0
C      1  0.4806330000000  0.4569420000000  0.4461010000000 1.0
C      1  0.5124720000000  0.4760280000000  0.5223770000000 1.0
C      1  0.4960490000000  0.5522810000000  0.4300670000000 1.0
C      1  0.5447950000000  0.4757320000000  0.4697650000000 1.0
C      1  0.5441530000000  0.5280340000000  0.5635710000000 1.0
C      1  0.5327740000000  0.3916770000000  0.5021840000000 1.0
C      1  0.5659570000000  0.4952240000000  0.4662560000000 1.0
C      1  0.4543530000000  0.4768850000000  0.4769140000000 1.0
C      1  0.5026660000000  0.4939070000000  0.5639470000000 1.0
C      1  0.5551570000000  0.5212930000000  0.4506970000000 1.0
C      1  0.4406520000000  0.4900200000000  0.4552130000000 1.0
C      1  0.4545850000000  0.4919230000000  0.4301020000000 1.0
C      1  0.4540280000000  0.5014930000000  0.5435880000000 1.0
C      1  0.5425840000000  0.4795040000000  0.5364290000000 1.0
C      1  0.4865130000000  0.5317360000000  0.5316860000000 1.0
C      1  0.5252560000000  0.4140750000000  0.5120620000000 1.0
END
