TITL C-2778424-3986-856 0.00356051487161696 125000 -1116.58049249668 0 0 192 (C1) n - 1
REM
REM in /home/nfs/bkarasulu/CARBON/AIRSS/Generating-Clusters/REBO/Only-C1/SD-CG/HFTN-CG
REM
REM
REM
REM
REM
REM ./C.cell (11c1c37f851c82e70ff6c80c92926a4b)
REM
REM compiler GCC version 9.2.1 20190827 (Red Hat 9.2.1-1)
REM options -cpp -mtune=generic -march=x86-64 -g -O0 -fpre-include=/usr/include/finclude/math-vector-fortran.h
REM seed -560532273 -777121911 -440031960 1131966579 964138273 1078474716 176820205 2004400509 -1918469762 1469081663 1137841319 -296863077 -619031750 566550290 1701691446 -1200714862 -714691156 -2010686987 -245402814 257497409 2073120786 998083275 -1833044333 -1746129534 -1728550150 -1456036611 1168258304 -1134251473 -1253715404 2103343444 -201973872 -1061578389 -1544417923
REM
CELL 1.54180   50.00000   50.00000   50.00000   90.00000   90.00000   90.00000
LATT -1
SFAC C  
C      1  0.4136810000000  0.4504560000000  0.4717270000000 1.0
C      1  0.5823630000000  0.4804430000000  0.4777810000000 1.0
C      1  0.4854660000000  0.5670330000000  0.4721260000000 1.0
C      1  0.6045870000000  0.5106440000000  0.5303860000000 1.0
C      1  0.5887230000000  0.4408540000000  0.5517210000000 1.0
C      1  0.6245400000000  0.4496000000000  0.4839780000000 1.0
C      1  0.4429570000000  0.4331870000000  0.5362000000000 1.0
C      1  0.4508020000000  0.4742190000000  0.5098110000000 1.0
C      1  0.6134570000000  0.5002920000000  0.4928340000000 1.0
C      1  0.4358120000000  0.4772120000000  0.5813160000000 1.0
C      1  0.5288410000000  0.4403310000000  0.5880940000000 1.0
C      1  0.4980910000000  0.5405910000000  0.4450870000000 1.0
C      1  0.5287260000000  0.4612210000000  0.4728150000000 1.0
C      1  0.5416830000000  0.5223230000000  0.4125060000000 1.0
C      1  0.5696500000000  0.5772420000000  0.5405200000000 1.0
C      1  0.5755290000000  0.4694060000000  0.5019510000000 1.0
C      1  0.4462040000000  0.5681720000000  0.4651780000000 1.0
C      1  0.3939960000000  0.5513460000000  0.4657020000000 1.0
C      1  0.4140850000000  0.5103500000000  0.4785050000000 1.0
C      1  0.5552780000000  0.4175740000000  0.5051340000000 1.0
C      1  0.4223060000000  0.5325200000000  0.5586300000000 1.0
C      1  0.5532450000000  0.4117090000000  0.4724870000000 1.0
C      1  0.5155070000000  0.5406820000000  0.4723930000000 1.0
C      1  0.4948030000000  0.5616630000000  0.5393750000000 1.0
C      1  0.5335950000000  0.5018460000000  0.6387940000000 1.0
C      1  0.4692850000000  0.5198470000000  0.5409030000000 1.0
C      1  0.4470340000000  0.4130230000000  0.4582000000000 1.0
C      1  0.4974220000000  0.6021110000000  0.5117160000000 1.0
C      1  0.4526670000000  0.4652030000000  0.4058620000000 1.0
C      1  0.5330110000000  0.6024850000000  0.4877360000000 1.0
C      1  0.4442760000000  0.5619170000000  0.4233980000000 1.0
C      1  0.5335740000000  0.3722080000000  0.4810710000000 1.0
C      1  0.3834870000000  0.4879380000000  0.5069660000000 1.0
C      1  0.5860400000000  0.5117610000000  0.4762790000000 1.0
C      1  0.4900670000000  0.5306670000000  0.4915320000000 1.0
C      1  0.4932160000000  0.5233420000000  0.3981420000000 1.0
C      1  0.4491090000000  0.5610070000000  0.5674400000000 1.0
C      1  0.4298480000000  0.5008590000000  0.5309400000000 1.0
C      1  0.5012240000000  0.4189840000000  0.5395180000000 1.0
C      1  0.5168830000000  0.4703840000000  0.5990590000000 1.0
C      1  0.3988900000000  0.4711620000000  0.4573620000000 1.0
C      1  0.5620990000000  0.4460530000000  0.5100160000000 1.0
C      1  0.5909170000000  0.4661800000000  0.4556030000000 1.0
C      1  0.4307430000000  0.5103470000000  0.4541560000000 1.0
C      1  0.4807270000000  0.5678450000000  0.5024600000000 1.0
C      1  0.5446400000000  0.4091570000000  0.5363990000000 1.0
C      1  0.4652270000000  0.4819070000000  0.5550120000000 1.0
C      1  0.4895750000000  0.5326080000000  0.5660250000000 1.0
C      1  0.4818150000000  0.4362870000000  0.4938970000000 1.0
C      1  0.5361860000000  0.5399300000000  0.5932150000000 1.0
C      1  0.4531050000000  0.5473920000000  0.5378910000000 1.0
C      1  0.5884410000000  0.5500240000000  0.4373150000000 1.0
C      1  0.5578270000000  0.4632090000000  0.5636760000000 1.0
C      1  0.4170830000000  0.5820610000000  0.4762890000000 1.0
C      1  0.5597060000000  0.5242000000000  0.4881660000000 1.0
C      1  0.4227080000000  0.4900380000000  0.5005560000000 1.0
C      1  0.5730920000000  0.5524970000000  0.5522230000000 1.0
C      1  0.4588000000000  0.5952280000000  0.4815920000000 1.0
C      1  0.4636570000000  0.5145650000000  0.4802880000000 1.0
C      1  0.4790450000000  0.3830110000000  0.4964210000000 1.0
C      1  0.5667320000000  0.5321350000000  0.5164560000000 1.0
C      1  0.4997660000000  0.4187980000000  0.5720240000000 1.0
C      1  0.4201880000000  0.4774290000000  0.5515450000000 1.0
C      1  0.5000020000000  0.5706840000000  0.5720530000000 1.0
C      1  0.4605200000000  0.4471880000000  0.4273000000000 1.0
C      1  0.5232210000000  0.4460440000000  0.5548260000000 1.0
C      1  0.4065320000000  0.4694940000000  0.5227190000000 1.0
C      1  0.5340650000000  0.4702360000000  0.4047280000000 1.0
C      1  0.5011500000000  0.5028290000000  0.4754610000000 1.0
C      1  0.5266450000000  0.5408930000000  0.5031450000000 1.0
C      1  0.4122140000000  0.4795970000000  0.4320290000000 1.0
C      1  0.4972770000000  0.4371120000000  0.4164180000000 1.0
C      1  0.3892720000000  0.5714660000000  0.4898280000000 1.0
C      1  0.5079440000000  0.4368420000000  0.5135060000000 1.0
C      1  0.5480710000000  0.4426840000000  0.4617850000000 1.0
C      1  0.4612620000000  0.4860160000000  0.5957420000000 1.0
C      1  0.4435930000000  0.4392020000000  0.4480140000000 1.0
C      1  0.4676410000000  0.5418610000000  0.4603790000000 1.0
C      1  0.5014530000000  0.5090820000000  0.5355250000000 1.0
C      1  0.5258560000000  0.4625860000000  0.5066730000000 1.0
C      1  0.4995140000000  0.4619170000000  0.5722120000000 1.0
C      1  0.6058060000000  0.4419390000000  0.4641270000000 1.0
C      1  0.5174320000000  0.4198970000000  0.4875210000000 1.0
C      1  0.4753730000000  0.5636640000000  0.4217040000000 1.0
C      1  0.4562550000000  0.5581480000000  0.5121640000000 1.0
C      1  0.5558260000000  0.5007940000000  0.4429800000000 1.0
C      1  0.4152790000000  0.4300850000000  0.4917570000000 1.0
C      1  0.5644560000000  0.4470730000000  0.4327500000000 1.0
C      1  0.4290880000000  0.5824240000000  0.4164810000000 1.0
C      1  0.4209480000000  0.5871060000000  0.5071460000000 1.0
C      1  0.4707880000000  0.4853250000000  0.4352920000000 1.0
C      1  0.4994000000000  0.3977530000000  0.4353680000000 1.0
C      1  0.4850200000000  0.6060950000000  0.4830050000000 1.0
C      1  0.5247010000000  0.3936080000000  0.4957940000000 1.0
C      1  0.5558720000000  0.5303970000000  0.4490190000000 1.0
C      1  0.4685520000000  0.4106940000000  0.5363130000000 1.0
C      1  0.5020820000000  0.4845890000000  0.5043610000000 1.0
C      1  0.5600770000000  0.4294690000000  0.5590790000000 1.0
C      1  0.4686230000000  0.4808430000000  0.4831110000000 1.0
C      1  0.5431120000000  0.4544840000000  0.5331470000000 1.0
C      1  0.3897100000000  0.4900400000000  0.4780630000000 1.0
C      1  0.5230670000000  0.4262510000000  0.4203070000000 1.0
C      1  0.4101250000000  0.5505420000000  0.5473050000000 1.0
C      1  0.6075540000000  0.4917550000000  0.5543460000000 1.0
C      1  0.5061250000000  0.5370070000000  0.5955250000000 1.0
C      1  0.4875970000000  0.4558300000000  0.4420700000000 1.0
C      1  0.5087200000000  0.6030920000000  0.4637130000000 1.0
C      1  0.4739210000000  0.4600330000000  0.6054050000000 1.0
C      1  0.4506850000000  0.5114440000000  0.4195790000000 1.0
C      1  0.5033410000000  0.4932140000000  0.4422220000000 1.0
C      1  0.5327680000000  0.5653800000000  0.5704030000000 1.0
C      1  0.4580850000000  0.5366810000000  0.5897770000000 1.0
C      1  0.4761510000000  0.5637670000000  0.5871850000000 1.0
C      1  0.4160290000000  0.4401630000000  0.5185080000000 1.0
C      1  0.3922190000000  0.5371720000000  0.5143230000000 1.0
C      1  0.5472880000000  0.5739640000000  0.4962930000000 1.0
C      1  0.5961340000000  0.5350560000000  0.5189440000000 1.0
C      1  0.4941900000000  0.5182300000000  0.6135870000000 1.0
C      1  0.4807760000000  0.4075700000000  0.4784920000000 1.0
C      1  0.5505910000000  0.5311500000000  0.5443190000000 1.0
C      1  0.4846710000000  0.5000570000000  0.5750860000000 1.0
C      1  0.5180760000000  0.3920970000000  0.5268460000000 1.0
C      1  0.4689490000000  0.5996910000000  0.5270130000000 1.0
C      1  0.4450100000000  0.4545740000000  0.5573610000000 1.0
C      1  0.5480440000000  0.5116890000000  0.5863140000000 1.0
C      1  0.5353840000000  0.4854300000000  0.5566160000000 1.0
C      1  0.4473740000000  0.5969640000000  0.5083770000000 1.0
C      1  0.5580460000000  0.5494000000000  0.4224780000000 1.0
C      1  0.4457090000000  0.4887390000000  0.4518860000000 1.0
C      1  0.5142800000000  0.5724470000000  0.5061940000000 1.0
C      1  0.4693480000000  0.5815110000000  0.5491860000000 1.0
C      1  0.4427390000000  0.4632350000000  0.4694250000000 1.0
C      1  0.4955250000000  0.4624860000000  0.4807730000000 1.0
C      1  0.4859130000000  0.3860890000000  0.5233430000000 1.0
C      1  0.4378010000000  0.4122470000000  0.4859900000000 1.0
C      1  0.4346910000000  0.4853830000000  0.4137060000000 1.0
C      1  0.4441200000000  0.5081570000000  0.5605470000000 1.0
C      1  0.5331160000000  0.4120110000000  0.5687920000000 1.0
C      1  0.5454590000000  0.5882840000000  0.4590000000000 1.0
C      1  0.5250360000000  0.5474870000000  0.3986400000000 1.0
C      1  0.4982230000000  0.4648700000000  0.6263640000000 1.0
C      1  0.5079770000000  0.5382960000000  0.3765600000000 1.0
C      1  0.4663320000000  0.5157760000000  0.6068250000000 1.0
C      1  0.5961100000000  0.5274430000000  0.4508770000000 1.0
C      1  0.4738440000000  0.4403450000000  0.5779360000000 1.0
C      1  0.4750780000000  0.4010480000000  0.4481440000000 1.0
C      1  0.4980310000000  0.4355200000000  0.6021710000000 1.0
C      1  0.5335390000000  0.4880580000000  0.4581620000000 1.0
C      1  0.5042000000000  0.4798480000000  0.5467110000000 1.0
C      1  0.5297240000000  0.6052680000000  0.5218290000000 1.0
C      1  0.5943150000000  0.4983850000000  0.5788090000000 1.0
C      1  0.5973570000000  0.5616890000000  0.5066150000000 1.0
C      1  0.5431960000000  0.4442400000000  0.4123480000000 1.0
C      1  0.5284230000000  0.5116270000000  0.5175590000000 1.0
C      1  0.6250570000000  0.4755550000000  0.4937320000000 1.0
C      1  0.5071580000000  0.4755110000000  0.4131530000000 1.0
C      1  0.4573650000000  0.4220460000000  0.5074150000000 1.0
C      1  0.5794870000000  0.4877720000000  0.5263800000000 1.0
C      1  0.4831090000000  0.4602060000000  0.3967390000000 1.0
C      1  0.4323040000000  0.5356220000000  0.4333410000000 1.0
C      1  0.4685440000000  0.5339010000000  0.4084110000000 1.0
C      1  0.3985260000000  0.5687520000000  0.5226550000000 1.0
C      1  0.5335140000000  0.5056190000000  0.4858790000000 1.0
C      1  0.5440640000000  0.5890550000000  0.5485100000000 1.0
C      1  0.4992790000000  0.5386300000000  0.5223320000000 1.0
C      1  0.3794870000000  0.5137250000000  0.5191640000000 1.0
C      1  0.5118200000000  0.5897530000000  0.5466670000000 1.0
C      1  0.5541900000000  0.4931440000000  0.4105270000000 1.0
C      1  0.5724240000000  0.5694640000000  0.4537450000000 1.0
C      1  0.4567160000000  0.5080130000000  0.5113410000000 1.0
C      1  0.5007740000000  0.4295280000000  0.4594440000000 1.0
C      1  0.5761540000000  0.4768000000000  0.4303630000000 1.0
C      1  0.5178710000000  0.5707000000000  0.4622680000000 1.0
C      1  0.4104020000000  0.5376480000000  0.4893490000000 1.0
C      1  0.4873650000000  0.5851940000000  0.4440140000000 1.0
C      1  0.5666740000000  0.4914170000000  0.5806780000000 1.0
C      1  0.4785860000000  0.4779920000000  0.5257980000000 1.0
C      1  0.4866190000000  0.4579320000000  0.3690790000000 1.0
C      1  0.5529010000000  0.4998700000000  0.5352790000000 1.0
C      1  0.5122660000000  0.4949960000000  0.6221870000000 1.0
C      1  0.5094710000000  0.5630100000000  0.4221420000000 1.0
C      1  0.5106080000000  0.5198830000000  0.4235700000000 1.0
C      1  0.5220270000000  0.5361140000000  0.5564940000000 1.0
C      1  0.5391410000000  0.5728820000000  0.4292880000000 1.0
C      1  0.4021720000000  0.5440180000000  0.4411110000000 1.0
C      1  0.4372640000000  0.5520310000000  0.4925080000000 1.0
C      1  0.5275990000000  0.4105140000000  0.4499830000000 1.0
C      1  0.5535980000000  0.5525270000000  0.4749040000000 1.0
C      1  0.5739480000000  0.5773670000000  0.5127490000000 1.0
C      1  0.5785900000000  0.4279750000000  0.4563860000000 1.0
C      1  0.5972500000000  0.4649670000000  0.5446190000000 1.0
C      1  0.5180070000000  0.5063060000000  0.5730840000000 1.0
END
