TITL C-2778434-4341-5 0.00693048044258844 125000 -826.179640801644 0 0 142 (C1) n - 1
REM
REM in /home/nfs/bkarasulu/CARBON/AIRSS/Generating-Clusters/REBO/Only-C1/SD-CG/HFTN-CG
REM
REM
REM
REM
REM
REM ./C.cell (11c1c37f851c82e70ff6c80c92926a4b)
REM
REM compiler GCC version 9.2.1 20190827 (Red Hat 9.2.1-1)
REM options -cpp -mtune=generic -march=x86-64 -g -O0 -fpre-include=/usr/include/finclude/math-vector-fortran.h
REM seed -1835154024 1300482164 -1862877563 -603209080 308762 -389935834 853754821 1654624690 929670127 -2086113302 -1627553927 -778102729 1494927461 -1592591067 -848165418 -1430932645 -2119085251 -42015343 -38874273 1887731094 -655039801 1605293785 1315359645 -1484392890 -1378338452 -1787139025 -1574107883 -1554185394 -1942011657 -1207366886 1828913058 1491062292 -259390033
REM
CELL 1.54180   50.00000   50.00000   50.00000   90.00000   90.00000   90.00000
LATT -1
SFAC C  
C      1  0.5584990000000  0.4959950000000  0.5299260000000 1.0
C      1  0.5589960000000  0.5494420000000  0.4243240000000 1.0
C      1  0.5313930000000  0.4465230000000  0.4174100000000 1.0
C      1  0.5162200000000  0.4768820000000  0.4985460000000 1.0
C      1  0.4582730000000  0.4909170000000  0.5841610000000 1.0
C      1  0.5072110000000  0.5122250000000  0.5331030000000 1.0
C      1  0.5200520000000  0.4469610000000  0.5144300000000 1.0
C      1  0.5097850000000  0.4997880000000  0.4769740000000 1.0
C      1  0.4494760000000  0.4447970000000  0.5529570000000 1.0
C      1  0.5475410000000  0.5094150000000  0.4548440000000 1.0
C      1  0.4491760000000  0.4741340000000  0.4109420000000 1.0
C      1  0.4400980000000  0.4598780000000  0.4323270000000 1.0
C      1  0.5396460000000  0.4304390000000  0.4922870000000 1.0
C      1  0.5816620000000  0.5379190000000  0.5340690000000 1.0
C      1  0.4799730000000  0.5510620000000  0.4151430000000 1.0
C      1  0.5030330000000  0.4010840000000  0.5226850000000 1.0
C      1  0.5394170000000  0.4747120000000  0.5472720000000 1.0
C      1  0.4361090000000  0.4777560000000  0.4559180000000 1.0
C      1  0.4059920000000  0.5317750000000  0.4560220000000 1.0
C      1  0.5101570000000  0.5951270000000  0.5272010000000 1.0
C      1  0.4595990000000  0.5178250000000  0.4726290000000 1.0
C      1  0.5884810000000  0.4921820000000  0.4784940000000 1.0
C      1  0.4860110000000  0.4938980000000  0.4309660000000 1.0
C      1  0.3888460000000  0.5047200000000  0.4954730000000 1.0
C      1  0.5676710000000  0.4268010000000  0.5082000000000 1.0
C      1  0.5629520000000  0.4906100000000  0.5009130000000 1.0
C      1  0.4996260000000  0.4076030000000  0.4574450000000 1.0
C      1  0.4480800000000  0.4528570000000  0.5001200000000 1.0
C      1  0.5725200000000  0.4750240000000  0.4297160000000 1.0
C      1  0.4716510000000  0.5434890000000  0.5108110000000 1.0
C      1  0.5108470000000  0.5308020000000  0.4852280000000 1.0
C      1  0.4920820000000  0.4047250000000  0.4907820000000 1.0
C      1  0.4685360000000  0.5456070000000  0.4779080000000 1.0
C      1  0.5305040000000  0.4055150000000  0.5423610000000 1.0
C      1  0.5269520000000  0.4278800000000  0.5682020000000 1.0
C      1  0.5268160000000  0.5406130000000  0.4024420000000 1.0
C      1  0.4539810000000  0.5302180000000  0.5790450000000 1.0
C      1  0.5021590000000  0.5307710000000  0.5595030000000 1.0
C      1  0.4146530000000  0.5610910000000  0.5438970000000 1.0
C      1  0.4113740000000  0.5369690000000  0.5559280000000 1.0
C      1  0.5484150000000  0.4459280000000  0.5846210000000 1.0
C      1  0.5919290000000  0.5348940000000  0.5085050000000 1.0
C      1  0.5071930000000  0.4745450000000  0.5517110000000 1.0
C      1  0.5455670000000  0.4714530000000  0.4194560000000 1.0
C      1  0.4690570000000  0.4811290000000  0.3860730000000 1.0
C      1  0.5393200000000  0.5825480000000  0.5393990000000 1.0
C      1  0.4938120000000  0.5921720000000  0.4634910000000 1.0
C      1  0.5525760000000  0.4409220000000  0.4512490000000 1.0
C      1  0.4961740000000  0.4820120000000  0.5227770000000 1.0
C      1  0.4958330000000  0.5916790000000  0.4970150000000 1.0
C      1  0.5449630000000  0.4313160000000  0.5316830000000 1.0
C      1  0.4830430000000  0.5586350000000  0.5552470000000 1.0
C      1  0.4682010000000  0.4642490000000  0.6006710000000 1.0
C      1  0.4317490000000  0.4886720000000  0.5681390000000 1.0
C      1  0.5782380000000  0.4528820000000  0.4475610000000 1.0
C      1  0.4811180000000  0.4595350000000  0.5066620000000 1.0
C      1  0.5611670000000  0.5594610000000  0.5426730000000 1.0
C      1  0.5556050000000  0.5378630000000  0.5641670000000 1.0
C      1  0.5014810000000  0.4471290000000  0.4139760000000 1.0
C      1  0.4574520000000  0.5169020000000  0.5268970000000 1.0
C      1  0.5018610000000  0.5488030000000  0.4325200000000 1.0
C      1  0.4294530000000  0.5801710000000  0.5320880000000 1.0
C      1  0.5600290000000  0.4777650000000  0.5812910000000 1.0
C      1  0.6064510000000  0.5144810000000  0.4887220000000 1.0
C      1  0.4786500000000  0.4517740000000  0.4746360000000 1.0
C      1  0.4628210000000  0.5873990000000  0.4506340000000 1.0
C      1  0.5421750000000  0.5057650000000  0.4857200000000 1.0
C      1  0.4210100000000  0.5426810000000  0.5045940000000 1.0
C      1  0.5782430000000  0.5171680000000  0.5570970000000 1.0
C      1  0.5332790000000  0.5075620000000  0.5498950000000 1.0
C      1  0.4268230000000  0.5070690000000  0.4479420000000 1.0
C      1  0.4290130000000  0.5069150000000  0.4820030000000 1.0
C      1  0.5001750000000  0.5613520000000  0.5085180000000 1.0
C      1  0.5240850000000  0.4089520000000  0.4799900000000 1.0
C      1  0.5500640000000  0.5375120000000  0.4829810000000 1.0
C      1  0.5253790000000  0.4247650000000  0.4430750000000 1.0
C      1  0.5300410000000  0.5667020000000  0.4244270000000 1.0
C      1  0.4996450000000  0.4463820000000  0.5605660000000 1.0
C      1  0.4276870000000  0.5180460000000  0.5690400000000 1.0
C      1  0.4876930000000  0.4918520000000  0.5994530000000 1.0
C      1  0.4112320000000  0.4964950000000  0.5161010000000 1.0
C      1  0.5262830000000  0.4631410000000  0.4533570000000 1.0
C      1  0.5380850000000  0.4615960000000  0.4820590000000 1.0
C      1  0.4939180000000  0.4423450000000  0.5997650000000 1.0
C      1  0.5280220000000  0.4919780000000  0.4361780000000 1.0
C      1  0.4620820000000  0.4783130000000  0.4728750000000 1.0
C      1  0.4555620000000  0.5341920000000  0.4150360000000 1.0
C      1  0.3852230000000  0.4845520000000  0.4765800000000 1.0
C      1  0.4876450000000  0.4256040000000  0.4310800000000 1.0
C      1  0.4415840000000  0.4342570000000  0.4428660000000 1.0
C      1  0.4009700000000  0.5309980000000  0.4849930000000 1.0
C      1  0.4566240000000  0.5839340000000  0.5146130000000 1.0
C      1  0.5368460000000  0.4955010000000  0.5812700000000 1.0
C      1  0.5774460000000  0.5519790000000  0.4829220000000 1.0
C      1  0.5915320000000  0.4477760000000  0.5173770000000 1.0
C      1  0.5697240000000  0.5803360000000  0.4738980000000 1.0
C      1  0.4374100000000  0.5639350000000  0.4965510000000 1.0
C      1  0.4084210000000  0.4708980000000  0.4716180000000 1.0
C      1  0.5352750000000  0.5722480000000  0.5699900000000 1.0
C      1  0.5268280000000  0.5417730000000  0.5778220000000 1.0
C      1  0.4469510000000  0.5617030000000  0.4346570000000 1.0
C      1  0.4275280000000  0.5355510000000  0.4312330000000 1.0
C      1  0.4923240000000  0.5186610000000  0.5075410000000 1.0
C      1  0.4820260000000  0.5764140000000  0.5312900000000 1.0
C      1  0.5958130000000  0.4623320000000  0.4683350000000 1.0
C      1  0.4115120000000  0.4682750000000  0.5310020000000 1.0
C      1  0.4844020000000  0.4979760000000  0.4603570000000 1.0
C      1  0.5215970000000  0.5227130000000  0.4281850000000 1.0
C      1  0.5297480000000  0.5509700000000  0.5026090000000 1.0
C      1  0.4751630000000  0.5487410000000  0.5828240000000 1.0
C      1  0.4290360000000  0.4650740000000  0.5529540000000 1.0
C      1  0.5197500000000  0.4550150000000  0.5982850000000 1.0
C      1  0.4989580000000  0.4472670000000  0.4538800000000 1.0
C      1  0.4469010000000  0.5643800000000  0.4673610000000 1.0
C      1  0.4995820000000  0.4128380000000  0.5544960000000 1.0
C      1  0.5169530000000  0.4834620000000  0.5967200000000 1.0
C      1  0.4707300000000  0.4440470000000  0.5743400000000 1.0
C      1  0.4920140000000  0.4320220000000  0.5204450000000 1.0
C      1  0.4512470000000  0.4330910000000  0.4721990000000 1.0
C      1  0.5342570000000  0.5407580000000  0.4544470000000 1.0
C      1  0.5770700000000  0.5010980000000  0.4476330000000 1.0
C      1  0.5877710000000  0.4568940000000  0.5453810000000 1.0
C      1  0.4297310000000  0.4758800000000  0.4962240000000 1.0
C      1  0.4583720000000  0.4333760000000  0.5260430000000 1.0
C      1  0.4626310000000  0.5056730000000  0.4096580000000 1.0
C      1  0.5213960000000  0.5732330000000  0.4571030000000 1.0
C      1  0.5562550000000  0.4502150000000  0.5527770000000 1.0
C      1  0.4640190000000  0.4166700000000  0.4968790000000 1.0
C      1  0.4964960000000  0.5491990000000  0.4645400000000 1.0
C      1  0.4937800000000  0.4987830000000  0.5679630000000 1.0
C      1  0.4275420000000  0.5215410000000  0.5225290000000 1.0
C      1  0.5336780000000  0.5829350000000  0.5066090000000 1.0
C      1  0.5726980000000  0.5304250000000  0.4320760000000 1.0
C      1  0.4669900000000  0.4988340000000  0.4995910000000 1.0
C      1  0.5769250000000  0.4849600000000  0.5566140000000 1.0
C      1  0.4890930000000  0.4731220000000  0.4093930000000 1.0
C      1  0.5675130000000  0.4588200000000  0.4960210000000 1.0
C      1  0.6052230000000  0.5388780000000  0.4712750000000 1.0
C      1  0.5426000000000  0.5863200000000  0.4774540000000 1.0
C      1  0.4639210000000  0.5085340000000  0.5551210000000 1.0
C      1  0.4658230000000  0.5953750000000  0.4838480000000 1.0
C      1  0.4997440000000  0.5430180000000  0.5973890000000 1.0
END
