TITL C-2778424-3986-1175 -0.00284518698853394 125000 -533.501003827785 0 0 91 (C1) n - 1
REM
REM in /home/nfs/bkarasulu/CARBON/AIRSS/Generating-Clusters/REBO/Only-C1/SD-CG/HFTN-CG
REM
REM
REM
REM
REM
REM ./C.cell (11c1c37f851c82e70ff6c80c92926a4b)
REM
REM compiler GCC version 9.2.1 20190827 (Red Hat 9.2.1-1)
REM options -cpp -mtune=generic -march=x86-64 -g -O0 -fpre-include=/usr/include/finclude/math-vector-fortran.h
REM seed -367531909 -95905488 -346369484 -410057314 -1905439697 -225749647 1259608349 1001621615 -40764664 443818056 -391330521 1950778696 574609309 -1068625313 -227275656 525842202 1855354737 1256402598 -466715153 757024971 832611408 85490544 -1163874114 527955268 831714710 -913419715 1579353649 518886881 2115289888 -1357318672 -1770462483 -1357370088 -930167389
REM
CELL 1.54180   50.00000   50.00000   50.00000   90.00000   90.00000   90.00000
LATT -1
SFAC C  
C      1  0.5645750000000  0.5155590000000  0.5324930000000 1.0
C      1  0.5459620000000  0.5375010000000  0.5416920000000 1.0
C      1  0.5788800000000  0.4983950000000  0.4705630000000 1.0
C      1  0.4698120000000  0.5580570000000  0.4448230000000 1.0
C      1  0.4812400000000  0.4888710000000  0.4096130000000 1.0
C      1  0.5174730000000  0.4486320000000  0.5117570000000 1.0
C      1  0.5098670000000  0.4184440000000  0.4713860000000 1.0
C      1  0.4399570000000  0.4677600000000  0.4563310000000 1.0
C      1  0.5122080000000  0.5725560000000  0.5303230000000 1.0
C      1  0.4375740000000  0.4399580000000  0.4964910000000 1.0
C      1  0.5764720000000  0.5001320000000  0.5046290000000 1.0
C      1  0.5112490000000  0.4845350000000  0.4176890000000 1.0
C      1  0.4833370000000  0.4669020000000  0.5216130000000 1.0
C      1  0.4718860000000  0.5288640000000  0.4860500000000 1.0
C      1  0.4604690000000  0.4873200000000  0.5514130000000 1.0
C      1  0.5241660000000  0.5598660000000  0.4727250000000 1.0
C      1  0.5272250000000  0.5072210000000  0.4340680000000 1.0
C      1  0.5325270000000  0.4300500000000  0.5526550000000 1.0
C      1  0.4540470000000  0.4394220000000  0.5231740000000 1.0
C      1  0.5270190000000  0.5253930000000  0.5022080000000 1.0
C      1  0.4969620000000  0.5733430000000  0.4821250000000 1.0
C      1  0.5720820000000  0.4646320000000  0.4694370000000 1.0
C      1  0.4908170000000  0.4529400000000  0.4648270000000 1.0
C      1  0.5520020000000  0.4889050000000  0.5412320000000 1.0
C      1  0.4477580000000  0.4654130000000  0.5397070000000 1.0
C      1  0.5865560000000  0.5292360000000  0.4798830000000 1.0
C      1  0.5173980000000  0.4592020000000  0.4839570000000 1.0
C      1  0.4072480000000  0.4843720000000  0.4977840000000 1.0
C      1  0.4833950000000  0.5006140000000  0.5169250000000 1.0
C      1  0.5581130000000  0.4662620000000  0.5252480000000 1.0
C      1  0.4915350000000  0.4334190000000  0.5245550000000 1.0
C      1  0.5379100000000  0.5812310000000  0.5170810000000 1.0
C      1  0.5468640000000  0.5675510000000  0.4912810000000 1.0
C      1  0.5382080000000  0.5177430000000  0.4708560000000 1.0
C      1  0.4734860000000  0.5017050000000  0.4466290000000 1.0
C      1  0.4454850000000  0.5694600000000  0.4862430000000 1.0
C      1  0.5181410000000  0.5453010000000  0.5431560000000 1.0
C      1  0.5023090000000  0.5915550000000  0.5486940000000 1.0
C      1  0.4939340000000  0.5355790000000  0.5609570000000 1.0
C      1  0.3918290000000  0.4993810000000  0.5148030000000 1.0
C      1  0.5031710000000  0.4316600000000  0.5551830000000 1.0
C      1  0.4809620000000  0.4228250000000  0.4614750000000 1.0
C      1  0.4587880000000  0.5143610000000  0.5339200000000 1.0
C      1  0.4442510000000  0.5439760000000  0.4462650000000 1.0
C      1  0.5438300000000  0.5491470000000  0.5797690000000 1.0
C      1  0.5514580000000  0.4619490000000  0.4445640000000 1.0
C      1  0.5060580000000  0.4698900000000  0.5444250000000 1.0
C      1  0.4323890000000  0.5214330000000  0.5189720000000 1.0
C      1  0.5760570000000  0.5555470000000  0.4988520000000 1.0
C      1  0.5209410000000  0.5325610000000  0.5811810000000 1.0
C      1  0.4928370000000  0.5655770000000  0.5088140000000 1.0
C      1  0.5029770000000  0.5338460000000  0.4796720000000 1.0
C      1  0.4332290000000  0.5455610000000  0.4732430000000 1.0
C      1  0.4809170000000  0.4760570000000  0.4829670000000 1.0
C      1  0.4713860000000  0.5745090000000  0.4690210000000 1.0
C      1  0.5284130000000  0.4418340000000  0.4574070000000 1.0
C      1  0.4704720000000  0.5476120000000  0.5084000000000 1.0
C      1  0.5255370000000  0.5387540000000  0.4472630000000 1.0
C      1  0.4068170000000  0.5165330000000  0.5308520000000 1.0
C      1  0.4814280000000  0.4853780000000  0.5716550000000 1.0
C      1  0.5887110000000  0.5292340000000  0.5140180000000 1.0
C      1  0.4310460000000  0.4930690000000  0.4750560000000 1.0
C      1  0.5398470000000  0.4452270000000  0.5290390000000 1.0
C      1  0.5082660000000  0.4116430000000  0.5041770000000 1.0
C      1  0.4277350000000  0.4668750000000  0.5121740000000 1.0
C      1  0.4497350000000  0.5602550000000  0.5455390000000 1.0
C      1  0.5624570000000  0.5595650000000  0.5565900000000 1.0
C      1  0.4567400000000  0.4751890000000  0.5020060000000 1.0
C      1  0.5587090000000  0.4376710000000  0.4853160000000 1.0
C      1  0.4991450000000  0.5071270000000  0.5763540000000 1.0
C      1  0.4929480000000  0.4623660000000  0.4365380000000 1.0
C      1  0.4292860000000  0.5230640000000  0.4903120000000 1.0
C      1  0.5640670000000  0.5700710000000  0.5272220000000 1.0
C      1  0.5237460000000  0.4919990000000  0.5420670000000 1.0
C      1  0.5519530000000  0.4936400000000  0.4509430000000 1.0
C      1  0.5244140000000  0.4555320000000  0.4265220000000 1.0
C      1  0.5302070000000  0.4880880000000  0.4851940000000 1.0
C      1  0.4546980000000  0.4208410000000  0.4567860000000 1.0
C      1  0.4664440000000  0.5386500000000  0.5508280000000 1.0
C      1  0.4614520000000  0.4749200000000  0.4337500000000 1.0
C      1  0.5378250000000  0.4216220000000  0.4905480000000 1.0
C      1  0.5135620000000  0.5108710000000  0.5233420000000 1.0
C      1  0.4467330000000  0.5648410000000  0.5169900000000 1.0
C      1  0.4389950000000  0.4414840000000  0.4682840000000 1.0
C      1  0.4936140000000  0.5453260000000  0.4374590000000 1.0
C      1  0.5493730000000  0.4197440000000  0.5711300000000 1.0
C      1  0.4950300000000  0.5157590000000  0.4364370000000 1.0
C      1  0.4950740000000  0.4569110000000  0.5714300000000 1.0
C      1  0.4604530000000  0.5093090000000  0.4699010000000 1.0
C      1  0.5578050000000  0.4762080000000  0.4959360000000 1.0
C      1  0.5000390000000  0.5006080000000  0.4871370000000 1.0
END
