TITL C-2778423-5760-290 -0.000764540524689895 125000 -1106.56394710908 0 0 190 (C1) n - 1
REM
REM in /home/nfs/bkarasulu/CARBON/AIRSS/Generating-Clusters/REBO/Only-C1/SD-CG/HFTN-CG
REM
REM
REM
REM
REM
REM ./C.cell (11c1c37f851c82e70ff6c80c92926a4b)
REM
REM compiler GCC version 9.2.1 20190827 (Red Hat 9.2.1-1)
REM options -cpp -mtune=generic -march=x86-64 -g -O0 -fpre-include=/usr/include/finclude/math-vector-fortran.h
REM seed -2058575120 -229543782 1530014458 415468095 1419495111 1119058940 -1635476391 -100611007 -104491759 -1805925479 -1776396908 -1671118057 -2126284106 -483615883 556931489 -220927052 -1860743575 377367391 1543063039 -1281531380 1020598816 -1697965790 -1824699994 -465605580 -1521041768 1431894543 -1073314302 -488368991 -130155544 1630270609 1945540349 -413095883 -1308798532
REM
CELL 1.54180   50.00000   50.00000   50.00000   90.00000   90.00000   90.00000
LATT -1
SFAC C  
C      1  0.4396450000000  0.5822830000000  0.5488130000000 1.0
C      1  0.4854060000000  0.4331800000000  0.5595880000000 1.0
C      1  0.4768760000000  0.4715290000000  0.6086330000000 1.0
C      1  0.5919730000000  0.5754180000000  0.5248060000000 1.0
C      1  0.5258780000000  0.4711380000000  0.5444680000000 1.0
C      1  0.5239620000000  0.5128160000000  0.5596810000000 1.0
C      1  0.4224070000000  0.4683020000000  0.4304500000000 1.0
C      1  0.4845050000000  0.5359000000000  0.5862220000000 1.0
C      1  0.4243470000000  0.5074810000000  0.4933270000000 1.0
C      1  0.4916960000000  0.5361380000000  0.4917820000000 1.0
C      1  0.4400110000000  0.4403930000000  0.4230460000000 1.0
C      1  0.5278930000000  0.4572300000000  0.4331610000000 1.0
C      1  0.4988430000000  0.5669020000000  0.4894440000000 1.0
C      1  0.4881260000000  0.5073190000000  0.5947900000000 1.0
C      1  0.4416950000000  0.5909340000000  0.4346950000000 1.0
C      1  0.5341580000000  0.4774110000000  0.6015810000000 1.0
C      1  0.4539580000000  0.5193570000000  0.5628280000000 1.0
C      1  0.4849820000000  0.5787280000000  0.5705720000000 1.0
C      1  0.5217070000000  0.4024320000000  0.5042290000000 1.0
C      1  0.6007230000000  0.5040970000000  0.4979750000000 1.0
C      1  0.5717630000000  0.5162030000000  0.4903060000000 1.0
C      1  0.5955210000000  0.5422820000000  0.5337680000000 1.0
C      1  0.6031290000000  0.5093620000000  0.5315190000000 1.0
C      1  0.5413110000000  0.5280050000000  0.4811430000000 1.0
C      1  0.4491320000000  0.5980520000000  0.5280110000000 1.0
C      1  0.5714710000000  0.4423920000000  0.4304710000000 1.0
C      1  0.5388080000000  0.4393180000000  0.4785100000000 1.0
C      1  0.4779490000000  0.5319490000000  0.5227220000000 1.0
C      1  0.4976090000000  0.4583890000000  0.4380980000000 1.0
C      1  0.4672930000000  0.3991840000000  0.4811490000000 1.0
C      1  0.4996980000000  0.5740240000000  0.5203800000000 1.0
C      1  0.6033700000000  0.4732160000000  0.4532970000000 1.0
C      1  0.4412790000000  0.4822400000000  0.4606240000000 1.0
C      1  0.3985770000000  0.5069840000000  0.5136450000000 1.0
C      1  0.5066910000000  0.4919460000000  0.5253970000000 1.0
C      1  0.4281010000000  0.5547660000000  0.5368350000000 1.0
C      1  0.5350260000000  0.4766140000000  0.4923160000000 1.0
C      1  0.4508870000000  0.5260850000000  0.4120300000000 1.0
C      1  0.5428900000000  0.4240400000000  0.5728190000000 1.0
C      1  0.4779120000000  0.5007460000000  0.5325890000000 1.0
C      1  0.4917980000000  0.5439130000000  0.4153720000000 1.0
C      1  0.5517870000000  0.4518380000000  0.5051490000000 1.0
C      1  0.5725730000000  0.4876420000000  0.4112660000000 1.0
C      1  0.5769200000000  0.5891750000000  0.4972920000000 1.0
C      1  0.4309600000000  0.6057550000000  0.4638090000000 1.0
C      1  0.5537010000000  0.5650630000000  0.4256360000000 1.0
C      1  0.5485060000000  0.5002280000000  0.5084130000000 1.0
C      1  0.5665190000000  0.5173870000000  0.4061910000000 1.0
C      1  0.5024580000000  0.5275320000000  0.4641590000000 1.0
C      1  0.4975340000000  0.4489170000000  0.5050490000000 1.0
C      1  0.5452840000000  0.4451940000000  0.4166260000000 1.0
C      1  0.5074720000000  0.4090050000000  0.5822440000000 1.0
C      1  0.5666950000000  0.4347650000000  0.5818340000000 1.0
C      1  0.4860200000000  0.3914650000000  0.5319240000000 1.0
C      1  0.4047460000000  0.4391680000000  0.5326880000000 1.0
C      1  0.4949870000000  0.4017140000000  0.4619820000000 1.0
C      1  0.4893580000000  0.4883160000000  0.3783280000000 1.0
C      1  0.4547820000000  0.5455500000000  0.5518770000000 1.0
C      1  0.5376140000000  0.5251290000000  0.6018890000000 1.0
C      1  0.5379710000000  0.4653470000000  0.4600020000000 1.0
C      1  0.5301750000000  0.5925650000000  0.5642030000000 1.0
C      1  0.5427060000000  0.5637470000000  0.5395610000000 1.0
C      1  0.3974080000000  0.5570790000000  0.5270200000000 1.0
C      1  0.5238270000000  0.5545550000000  0.4177220000000 1.0
C      1  0.5577860000000  0.4906960000000  0.4630850000000 1.0
C      1  0.5229630000000  0.5190770000000  0.5202380000000 1.0
C      1  0.4605360000000  0.4786570000000  0.3914300000000 1.0
C      1  0.4461500000000  0.4451150000000  0.5000370000000 1.0
C      1  0.5440210000000  0.4050310000000  0.5214840000000 1.0
C      1  0.4081400000000  0.4961510000000  0.4438430000000 1.0
C      1  0.4755530000000  0.4913780000000  0.4423680000000 1.0
C      1  0.5448050000000  0.4816990000000  0.4004850000000 1.0
C      1  0.5246800000000  0.5651980000000  0.4673170000000 1.0
C      1  0.5307430000000  0.5682410000000  0.5772030000000 1.0
C      1  0.4459170000000  0.5381420000000  0.5130670000000 1.0
C      1  0.5480020000000  0.5791590000000  0.4988130000000 1.0
C      1  0.5109710000000  0.4289070000000  0.4864810000000 1.0
C      1  0.3997530000000  0.4845950000000  0.4897620000000 1.0
C      1  0.5191450000000  0.5432060000000  0.5341680000000 1.0
C      1  0.5411670000000  0.4228010000000  0.5440700000000 1.0
C      1  0.5890020000000  0.4550590000000  0.5408250000000 1.0
C      1  0.5751590000000  0.5474640000000  0.4162460000000 1.0
C      1  0.4295740000000  0.5065050000000  0.4226210000000 1.0
C      1  0.5509850000000  0.5472650000000  0.5041710000000 1.0
C      1  0.4213500000000  0.4076710000000  0.4938790000000 1.0
C      1  0.5148210000000  0.4853830000000  0.3880780000000 1.0
C      1  0.4875650000000  0.4436980000000  0.4106730000000 1.0
C      1  0.5895390000000  0.5163920000000  0.5611230000000 1.0
C      1  0.4796380000000  0.5236830000000  0.4399320000000 1.0
C      1  0.5844470000000  0.5509880000000  0.5043570000000 1.0
C      1  0.4643500000000  0.4571160000000  0.4805690000000 1.0
C      1  0.5271450000000  0.5976100000000  0.5037860000000 1.0
C      1  0.3793520000000  0.4181530000000  0.5237070000000 1.0
C      1  0.4603000000000  0.6170090000000  0.5046850000000 1.0
C      1  0.4950720000000  0.4201150000000  0.4269000000000 1.0
C      1  0.5053880000000  0.4768960000000  0.4980100000000 1.0
C      1  0.5852290000000  0.4314170000000  0.5277570000000 1.0
C      1  0.5854850000000  0.4684520000000  0.4302260000000 1.0
C      1  0.5620140000000  0.5821820000000  0.5361420000000 1.0
C      1  0.5033230000000  0.4911620000000  0.5702230000000 1.0
C      1  0.4496130000000  0.5630910000000  0.4528200000000 1.0
C      1  0.6004590000000  0.4764700000000  0.5263480000000 1.0
C      1  0.5100500000000  0.5431610000000  0.5664880000000 1.0
C      1  0.4541760000000  0.4632980000000  0.5768320000000 1.0
C      1  0.5634350000000  0.5173830000000  0.4496020000000 1.0
C      1  0.5544710000000  0.5742230000000  0.4536170000000 1.0
C      1  0.4305060000000  0.4201640000000  0.4492320000000 1.0
C      1  0.4703990000000  0.4220470000000  0.4486550000000 1.0
C      1  0.5909460000000  0.5412260000000  0.4758610000000 1.0
C      1  0.4016040000000  0.4718210000000  0.4643710000000 1.0
C      1  0.4794660000000  0.6123270000000  0.4838950000000 1.0
C      1  0.4171680000000  0.4764820000000  0.5694840000000 1.0
C      1  0.6059030000000  0.4484830000000  0.4714360000000 1.0
C      1  0.4821310000000  0.4448860000000  0.5301500000000 1.0
C      1  0.4955810000000  0.4642140000000  0.5519600000000 1.0
C      1  0.4975740000000  0.4652990000000  0.5916070000000 1.0
C      1  0.5176240000000  0.5974570000000  0.5332980000000 1.0
C      1  0.5634790000000  0.5308610000000  0.5312060000000 1.0
C      1  0.3940230000000  0.4280640000000  0.4955810000000 1.0
C      1  0.4898890000000  0.4428570000000  0.4656260000000 1.0
C      1  0.5510750000000  0.5017140000000  0.5423170000000 1.0
C      1  0.4625980000000  0.4398820000000  0.5785690000000 1.0
C      1  0.5082810000000  0.4907720000000  0.4409470000000 1.0
C      1  0.5486870000000  0.5370780000000  0.5600860000000 1.0
C      1  0.5207200000000  0.4129040000000  0.4414560000000 1.0
C      1  0.4306460000000  0.5148030000000  0.4614930000000 1.0
C      1  0.4612420000000  0.4493140000000  0.4021050000000 1.0
C      1  0.5685540000000  0.4914230000000  0.5676390000000 1.0
C      1  0.5502830000000  0.4244030000000  0.4502690000000 1.0
C      1  0.4155740000000  0.5808390000000  0.5095670000000 1.0
C      1  0.5006730000000  0.6038490000000  0.5615210000000 1.0
C      1  0.5428760000000  0.4486800000000  0.5326080000000 1.0
C      1  0.3984380000000  0.5250730000000  0.5352750000000 1.0
C      1  0.5439450000000  0.4643500000000  0.6240510000000 1.0
C      1  0.5257320000000  0.3939960000000  0.4742930000000 1.0
C      1  0.5716670000000  0.4655130000000  0.4813190000000 1.0
C      1  0.4692560000000  0.5738530000000  0.4779630000000 1.0
C      1  0.4189870000000  0.4467620000000  0.5032730000000 1.0
C      1  0.5034760000000  0.5551940000000  0.4442650000000 1.0
C      1  0.5780470000000  0.4319940000000  0.4780260000000 1.0
C      1  0.4093770000000  0.4586930000000  0.5549000000000 1.0
C      1  0.4586500000000  0.5559790000000  0.5901890000000 1.0
C      1  0.4538710000000  0.4522280000000  0.4505220000000 1.0
C      1  0.5737410000000  0.4615100000000  0.5663290000000 1.0
C      1  0.4935530000000  0.4029420000000  0.5569490000000 1.0
C      1  0.6117370000000  0.4979840000000  0.4663760000000 1.0
C      1  0.5258180000000  0.5509370000000  0.6023940000000 1.0
C      1  0.4145000000000  0.4457620000000  0.4532550000000 1.0
C      1  0.5386020000000  0.5254730000000  0.4193300000000 1.0
C      1  0.4179590000000  0.5757800000000  0.4543850000000 1.0
C      1  0.4530890000000  0.5793110000000  0.5730800000000 1.0
C      1  0.4488480000000  0.5791750000000  0.4999800000000 1.0
C      1  0.5385760000000  0.5380680000000  0.4508450000000 1.0
C      1  0.4220820000000  0.5500070000000  0.4968240000000 1.0
C      1  0.4970480000000  0.5643700000000  0.5975660000000 1.0
C      1  0.4590320000000  0.4940070000000  0.6017120000000 1.0
C      1  0.6009420000000  0.4719400000000  0.4946540000000 1.0
C      1  0.4495370000000  0.5341890000000  0.4452470000000 1.0
C      1  0.5769950000000  0.5719490000000  0.4713330000000 1.0
C      1  0.4643590000000  0.6007950000000  0.4581350000000 1.0
C      1  0.4291420000000  0.6078680000000  0.4948370000000 1.0
C      1  0.5071410000000  0.6082110000000  0.4869000000000 1.0
C      1  0.4664680000000  0.5117550000000  0.3866730000000 1.0
C      1  0.5206200000000  0.5025380000000  0.6041780000000 1.0
C      1  0.5218790000000  0.5002130000000  0.4162670000000 1.0
C      1  0.4401530000000  0.4063430000000  0.4724530000000 1.0
C      1  0.4604260000000  0.4287710000000  0.5176550000000 1.0
C      1  0.4868210000000  0.4818980000000  0.4735020000000 1.0
C      1  0.5580800000000  0.4044990000000  0.4753990000000 1.0
C      1  0.4148990000000  0.5142210000000  0.5566280000000 1.0
C      1  0.4638890000000  0.4868550000000  0.5604750000000 1.0
C      1  0.6097850000000  0.5250070000000  0.4559020000000 1.0
C      1  0.5253700000000  0.5030500000000  0.4642780000000 1.0
C      1  0.4604850000000  0.4967920000000  0.4807940000000 1.0
C      1  0.5640620000000  0.5211380000000  0.5835860000000 1.0
C      1  0.4502960000000  0.4984320000000  0.5121400000000 1.0
C      1  0.5868340000000  0.5292780000000  0.4380760000000 1.0
C      1  0.4025180000000  0.5618100000000  0.4750750000000 1.0
C      1  0.4812120000000  0.5395740000000  0.3900370000000 1.0
C      1  0.5177760000000  0.4410750000000  0.5862120000000 1.0
C      1  0.4824860000000  0.5591930000000  0.5427580000000 1.0
C      1  0.4392960000000  0.4972290000000  0.5414890000000 1.0
C      1  0.3835500000000  0.5606340000000  0.4972020000000 1.0
C      1  0.4114730000000  0.4067740000000  0.5238130000000 1.0
C      1  0.4524590000000  0.4826130000000  0.4224410000000 1.0
C      1  0.5700680000000  0.4140080000000  0.5058050000000 1.0
C      1  0.4617180000000  0.5271230000000  0.4871080000000 1.0
C      1  0.4705740000000  0.4028090000000  0.5101210000000 1.0
C      1  0.4336660000000  0.5010070000000  0.5824010000000 1.0
C      1  0.5402010000000  0.4638660000000  0.5729620000000 1.0
END
