TITL C-2778431-5191-81 0.00117114136009619 125000 -1002.70651827888 0 0 174 (C1) n - 1
REM
REM in /home/nfs/bkarasulu/CARBON/AIRSS/Generating-Clusters/REBO/Only-C1/SD-CG/HFTN-CG
REM
REM
REM
REM
REM
REM ./C.cell (11c1c37f851c82e70ff6c80c92926a4b)
REM
REM compiler GCC version 9.2.1 20190827 (Red Hat 9.2.1-1)
REM options -cpp -mtune=generic -march=x86-64 -g -O0 -fpre-include=/usr/include/finclude/math-vector-fortran.h
REM seed 1406239797 -1444499671 -541596386 -927630031 213003318 1754506918 -1857329857 -1000795896 -755278196 -1544605396 590237077 -1796478525 1079287567 878884479 -739903964 504503574 -1857071261 -700860909 650867040 1065399839 1912274974 -1720169178 -1396975203 1444418792 640633801 580499226 241174806 -1942909906 1560403472 873774296 1898542830 -1352699141 -1669431838
REM
CELL 1.54180   50.00000   50.00000   50.00000   90.00000   90.00000   90.00000
LATT -1
SFAC C  
C      1  0.5401380000000  0.4675210000000  0.5486950000000 1.0
C      1  0.4153990000000  0.4479760000000  0.5395930000000 1.0
C      1  0.6077450000000  0.4768050000000  0.5037660000000 1.0
C      1  0.3920160000000  0.5167210000000  0.5140970000000 1.0
C      1  0.5472750000000  0.5023390000000  0.5287170000000 1.0
C      1  0.4904470000000  0.4541400000000  0.4471370000000 1.0
C      1  0.4190160000000  0.5597080000000  0.5276610000000 1.0
C      1  0.4081170000000  0.4906530000000  0.4761120000000 1.0
C      1  0.4669690000000  0.4103000000000  0.4749210000000 1.0
C      1  0.3871750000000  0.4685520000000  0.4888090000000 1.0
C      1  0.5070290000000  0.5416060000000  0.5368330000000 1.0
C      1  0.5715630000000  0.5148170000000  0.5673530000000 1.0
C      1  0.5453640000000  0.4048020000000  0.4273020000000 1.0
C      1  0.5535360000000  0.5561580000000  0.5294320000000 1.0
C      1  0.4460610000000  0.5579870000000  0.5732100000000 1.0
C      1  0.4169220000000  0.5564040000000  0.4758630000000 1.0
C      1  0.5340570000000  0.4351970000000  0.5468460000000 1.0
C      1  0.4379860000000  0.5131070000000  0.4619880000000 1.0
C      1  0.4819490000000  0.5174870000000  0.5811390000000 1.0
C      1  0.4312540000000  0.5027150000000  0.5272800000000 1.0
C      1  0.4573840000000  0.6015360000000  0.4985310000000 1.0
C      1  0.5596840000000  0.5932950000000  0.4845930000000 1.0
C      1  0.4741970000000  0.5625330000000  0.5868320000000 1.0
C      1  0.5230920000000  0.4147170000000  0.4394090000000 1.0
C      1  0.4689960000000  0.4544060000000  0.4136660000000 1.0
C      1  0.5961720000000  0.4701820000000  0.4752380000000 1.0
C      1  0.5029090000000  0.4565890000000  0.4163610000000 1.0
C      1  0.4606470000000  0.5305470000000  0.4801110000000 1.0
C      1  0.4527630000000  0.4446600000000  0.4384340000000 1.0
C      1  0.5714400000000  0.5467810000000  0.5024900000000 1.0
C      1  0.4963800000000  0.5616790000000  0.4243440000000 1.0
C      1  0.5567050000000  0.4170630000000  0.4980050000000 1.0
C      1  0.5271540000000  0.5934570000000  0.4550580000000 1.0
C      1  0.5472760000000  0.5020840000000  0.5863150000000 1.0
C      1  0.6007700000000  0.5302650000000  0.5135670000000 1.0
C      1  0.4566090000000  0.5872570000000  0.4559090000000 1.0
C      1  0.5653230000000  0.5136120000000  0.5057370000000 1.0
C      1  0.5946080000000  0.4527280000000  0.5243380000000 1.0
C      1  0.4726450000000  0.4151170000000  0.5471400000000 1.0
C      1  0.4846930000000  0.5828760000000  0.5646250000000 1.0
C      1  0.5446970000000  0.4610210000000  0.5182700000000 1.0
C      1  0.4224180000000  0.4546230000000  0.4420250000000 1.0
C      1  0.4101360000000  0.4849860000000  0.4457620000000 1.0
C      1  0.4702810000000  0.5263310000000  0.4020140000000 1.0
C      1  0.4926710000000  0.4068260000000  0.4317450000000 1.0
C      1  0.4340860000000  0.5838060000000  0.4811930000000 1.0
C      1  0.5414370000000  0.4137710000000  0.5934410000000 1.0
C      1  0.5578380000000  0.4900630000000  0.4389060000000 1.0
C      1  0.4809770000000  0.4389320000000  0.5897930000000 1.0
C      1  0.4640280000000  0.5018580000000  0.4897980000000 1.0
C      1  0.4474270000000  0.4862640000000  0.5941320000000 1.0
C      1  0.5940670000000  0.5482920000000  0.5354190000000 1.0
C      1  0.5124890000000  0.4850110000000  0.4334640000000 1.0
C      1  0.5321820000000  0.5450740000000  0.4308120000000 1.0
C      1  0.4376780000000  0.4136410000000  0.4810870000000 1.0
C      1  0.5355540000000  0.4535430000000  0.4725920000000 1.0
C      1  0.4810730000000  0.5507770000000  0.4915040000000 1.0
C      1  0.4103630000000  0.4282600000000  0.5166690000000 1.0
C      1  0.4612270000000  0.5203860000000  0.4286390000000 1.0
C      1  0.5717940000000  0.5810660000000  0.4396690000000 1.0
C      1  0.5390410000000  0.5125430000000  0.3882000000000 1.0
C      1  0.4957250000000  0.4896510000000  0.5787840000000 1.0
C      1  0.5790310000000  0.4242500000000  0.5227780000000 1.0
C      1  0.5326140000000  0.5323390000000  0.5919000000000 1.0
C      1  0.5111540000000  0.4534470000000  0.5855800000000 1.0
C      1  0.4821420000000  0.5759280000000  0.4725250000000 1.0
C      1  0.4473250000000  0.4818710000000  0.4594520000000 1.0
C      1  0.5551390000000  0.4647750000000  0.4248170000000 1.0
C      1  0.5135440000000  0.5187890000000  0.4288870000000 1.0
C      1  0.4881150000000  0.6005000000000  0.4514080000000 1.0
C      1  0.5008530000000  0.5119930000000  0.5293830000000 1.0
C      1  0.4353400000000  0.4937840000000  0.4968150000000 1.0
C      1  0.4719150000000  0.4696820000000  0.5854800000000 1.0
C      1  0.5729870000000  0.5082720000000  0.4236120000000 1.0
C      1  0.4933910000000  0.6009520000000  0.5373500000000 1.0
C      1  0.3983010000000  0.4419450000000  0.4919230000000 1.0
C      1  0.5332300000000  0.4643630000000  0.4063530000000 1.0
C      1  0.4767640000000  0.5114210000000  0.5493270000000 1.0
C      1  0.4614310000000  0.4439550000000  0.5121000000000 1.0
C      1  0.4590530000000  0.4517060000000  0.4715500000000 1.0
C      1  0.4520110000000  0.5263620000000  0.5367520000000 1.0
C      1  0.5000550000000  0.5259650000000  0.4768500000000 1.0
C      1  0.5628240000000  0.5515950000000  0.4440770000000 1.0
C      1  0.5530070000000  0.5571580000000  0.5807320000000 1.0
C      1  0.4141070000000  0.4679120000000  0.5178920000000 1.0
C      1  0.4890350000000  0.5997690000000  0.5038800000000 1.0
C      1  0.4748690000000  0.4234930000000  0.4473560000000 1.0
C      1  0.5241970000000  0.4893510000000  0.6250990000000 1.0
C      1  0.5353350000000  0.4878750000000  0.5001420000000 1.0
C      1  0.6077610000000  0.5026340000000  0.5188440000000 1.0
C      1  0.4661960000000  0.4839990000000  0.4081150000000 1.0
C      1  0.4634170000000  0.5431060000000  0.4511380000000 1.0
C      1  0.4215640000000  0.4379850000000  0.4694450000000 1.0
C      1  0.4871840000000  0.5112410000000  0.4490350000000 1.0
C      1  0.4306000000000  0.4579660000000  0.5606380000000 1.0
C      1  0.4333450000000  0.4114670000000  0.5098090000000 1.0
C      1  0.5471560000000  0.4912970000000  0.4682150000000 1.0
C      1  0.4194110000000  0.5107930000000  0.5575420000000 1.0
C      1  0.5274260000000  0.5615720000000  0.4594100000000 1.0
C      1  0.5089910000000  0.3871340000000  0.4793660000000 1.0
C      1  0.6081800000000  0.5843060000000  0.4968230000000 1.0
C      1  0.5100630000000  0.5914620000000  0.4268850000000 1.0
C      1  0.5704390000000  0.5428720000000  0.5562620000000 1.0
C      1  0.4928750000000  0.4937720000000  0.4059880000000 1.0
C      1  0.5079940000000  0.4758530000000  0.5151190000000 1.0
C      1  0.4296510000000  0.5302200000000  0.4348070000000 1.0
C      1  0.5075580000000  0.4019760000000  0.5164340000000 1.0
C      1  0.5010550000000  0.4457630000000  0.5072740000000 1.0
C      1  0.4849860000000  0.5619710000000  0.5389450000000 1.0
C      1  0.5329640000000  0.5103470000000  0.5581660000000 1.0
C      1  0.4131480000000  0.5229230000000  0.4807700000000 1.0
C      1  0.4804290000000  0.4008430000000  0.5035880000000 1.0
C      1  0.4943980000000  0.4552060000000  0.5559130000000 1.0
C      1  0.5499870000000  0.4728470000000  0.5888070000000 1.0
C      1  0.4777650000000  0.4812560000000  0.4523700000000 1.0
C      1  0.5272270000000  0.5382210000000  0.3896310000000 1.0
C      1  0.5359130000000  0.3963110000000  0.5158580000000 1.0
C      1  0.5150170000000  0.4801610000000  0.4665740000000 1.0
C      1  0.5232990000000  0.5405130000000  0.5604700000000 1.0
C      1  0.5833300000000  0.5310250000000  0.4359970000000 1.0
C      1  0.4874810000000  0.4363970000000  0.4827870000000 1.0
C      1  0.5217920000000  0.4901280000000  0.3949940000000 1.0
C      1  0.5582400000000  0.5988650000000  0.4556590000000 1.0
C      1  0.5196180000000  0.4439980000000  0.4502320000000 1.0
C      1  0.5525180000000  0.5484720000000  0.4755770000000 1.0
C      1  0.4328140000000  0.4618950000000  0.4908520000000 1.0
C      1  0.5822210000000  0.4479830000000  0.4621430000000 1.0
C      1  0.4994080000000  0.5403470000000  0.5923520000000 1.0
C      1  0.4618000000000  0.4614190000000  0.5555230000000 1.0
C      1  0.6053660000000  0.4949010000000  0.5470900000000 1.0
C      1  0.5590420000000  0.4392170000000  0.4769960000000 1.0
C      1  0.4360810000000  0.5608510000000  0.4487630000000 1.0
C      1  0.5663100000000  0.5097100000000  0.3959540000000 1.0
C      1  0.3924260000000  0.4890530000000  0.5128520000000 1.0
C      1  0.5729910000000  0.4907960000000  0.4873390000000 1.0
C      1  0.4336060000000  0.5295900000000  0.5823420000000 1.0
C      1  0.5246410000000  0.5675160000000  0.4069760000000 1.0
C      1  0.5136320000000  0.4804980000000  0.6033120000000 1.0
C      1  0.4693080000000  0.4195590000000  0.5747820000000 1.0
C      1  0.5712090000000  0.4643480000000  0.5055710000000 1.0
C      1  0.4322710000000  0.5851590000000  0.5151360000000 1.0
C      1  0.4255500000000  0.4825650000000  0.5755340000000 1.0
C      1  0.5903610000000  0.4661970000000  0.5525730000000 1.0
C      1  0.4690210000000  0.4692850000000  0.5117650000000 1.0
C      1  0.5651520000000  0.4872830000000  0.5526390000000 1.0
C      1  0.5282320000000  0.5619290000000  0.5098560000000 1.0
C      1  0.5063730000000  0.4115670000000  0.4688940000000 1.0
C      1  0.4547850000000  0.5137470000000  0.5952520000000 1.0
C      1  0.5690000000000  0.4534640000000  0.5731630000000 1.0
C      1  0.5761140000000  0.4473490000000  0.4338470000000 1.0
C      1  0.5815560000000  0.5774330000000  0.4952180000000 1.0
C      1  0.5456740000000  0.5738280000000  0.5553950000000 1.0
C      1  0.5532660000000  0.4132370000000  0.5371240000000 1.0
C      1  0.4958180000000  0.5696890000000  0.5109720000000 1.0
C      1  0.4187130000000  0.5450040000000  0.5564340000000 1.0
C      1  0.5403610000000  0.4402450000000  0.5861000000000 1.0
C      1  0.4594600000000  0.4871010000000  0.5360210000000 1.0
C      1  0.4957690000000  0.5513770000000  0.4544090000000 1.0
C      1  0.5076000000000  0.6056030000000  0.4792370000000 1.0
C      1  0.4903820000000  0.4842220000000  0.4896590000000 1.0
C      1  0.4988390000000  0.5371790000000  0.4042410000000 1.0
C      1  0.4088480000000  0.5098240000000  0.4293760000000 1.0
C      1  0.5019700000000  0.4288810000000  0.5369040000000 1.0
C      1  0.5124920000000  0.5676410000000  0.5766740000000 1.0
C      1  0.4608630000000  0.5928150000000  0.5312990000000 1.0
C      1  0.4589590000000  0.4057390000000  0.5234520000000 1.0
C      1  0.5311340000000  0.4351240000000  0.5102630000000 1.0
C      1  0.4068950000000  0.5439840000000  0.5058650000000 1.0
C      1  0.5211920000000  0.5912160000000  0.5534250000000 1.0
C      1  0.4515380000000  0.5602330000000  0.5396830000000 1.0
C      1  0.5133440000000  0.5316140000000  0.5048970000000 1.0
C      1  0.5108050000000  0.4847990000000  0.5483810000000 1.0
C      1  0.5332050000000  0.5889770000000  0.4942810000000 1.0
C      1  0.4402010000000  0.4805430000000  0.4263080000000 1.0
END
