TITL C-2778423-5760-723 0.000906835631902372 125000 -125.805605913657 0 0 23 (C1) n - 1
REM
REM in /home/nfs/bkarasulu/CARBON/AIRSS/Generating-Clusters/REBO/Only-C1/SD-CG/HFTN-CG
REM
REM
REM
REM
REM
REM ./C.cell (11c1c37f851c82e70ff6c80c92926a4b)
REM
REM compiler GCC version 9.2.1 20190827 (Red Hat 9.2.1-1)
REM options -cpp -mtune=generic -march=x86-64 -g -O0 -fpre-include=/usr/include/finclude/math-vector-fortran.h
REM seed 1920878671 -780369935 -1071702124 1319853478 124010452 -1131934844 1143414833 676740916 1149154733 -13521311 -939223134 1194160129 -698563644 837686739 1682757905 -538933379 -1211737017 25226609 1249467051 792862675 716157416 -143925440 1191765778 -696523503 -1766978228 606540743 -1314970209 1775657517 -957349132 1159852390 -162990634 353744423 -225972470
REM
CELL 1.54180   50.00000   50.00000   50.00000   90.00000   90.00000   90.00000
LATT -1
SFAC C  
C      1  0.5462960000000  0.4919820000000  0.5502520000000 1.0
C      1  0.5686370000000  0.5063710000000  0.4664420000000 1.0
C      1  0.4110590000000  0.4577970000000  0.4530440000000 1.0
C      1  0.5169140000000  0.5039850000000  0.4748370000000 1.0
C      1  0.4312390000000  0.5377350000000  0.5099040000000 1.0
C      1  0.5204390000000  0.4986860000000  0.5460030000000 1.0
C      1  0.4084400000000  0.5506570000000  0.5097150000000 1.0
C      1  0.4552490000000  0.5241260000000  0.5101040000000 1.0
C      1  0.4928510000000  0.5124540000000  0.5541130000000 1.0
C      1  0.4873240000000  0.4653990000000  0.4880600000000 1.0
C      1  0.4666940000000  0.5119110000000  0.4838360000000 1.0
C      1  0.4461060000000  0.4918860000000  0.4724410000000 1.0
C      1  0.5418060000000  0.5069950000000  0.4661590000000 1.0
C      1  0.4285210000000  0.4747820000000  0.4627090000000 1.0
C      1  0.4828040000000  0.4405140000000  0.4846590000000 1.0
C      1  0.5917050000000  0.5019380000000  0.4796630000000 1.0
C      1  0.5725230000000  0.4889320000000  0.5455070000000 1.0
C      1  0.5938950000000  0.4901690000000  0.5291600000000 1.0
C      1  0.6018310000000  0.4953850000000  0.5038580000000 1.0
C      1  0.4979010000000  0.5013910000000  0.5212280000000 1.0
C      1  0.4927920000000  0.4955000000000  0.4921750000000 1.0
C      1  0.4719410000000  0.5192520000000  0.5312260000000 1.0
C      1  0.4730340000000  0.5321540000000  0.4649060000000 1.0
END
