TITL C-2778430-5657-948 0.00317049739999192 125000 -937.477179590386 0 0 160 (C1) n - 1
REM
REM in /home/nfs/bkarasulu/CARBON/AIRSS/Generating-Clusters/REBO/Only-C1/SD-CG/HFTN-CG
REM
REM
REM
REM
REM
REM ./C.cell (11c1c37f851c82e70ff6c80c92926a4b)
REM
REM compiler GCC version 9.2.1 20190827 (Red Hat 9.2.1-1)
REM options -cpp -mtune=generic -march=x86-64 -g -O0 -fpre-include=/usr/include/finclude/math-vector-fortran.h
REM seed 364712939 -234485603 1138006505 -270702799 1280320702 2120587772 -187785538 -1347134737 -1754407657 1582950529 375864017 852043526 713283264 -858324835 -124568345 986075235 1652464797 -268183271 543598877 -1899388268 1064514725 -734682325 -328176497 381731736 -1118803506 -400915074 -2093304794 -926767082 188394898 -716853088 563105226 -761873554 -1495851596
REM
CELL 1.54180   50.00000   50.00000   50.00000   90.00000   90.00000   90.00000
LATT -1
SFAC C  
C      1  0.5536390000000  0.4531450000000  0.4220230000000 1.0
C      1  0.4749980000000  0.4961240000000  0.4121990000000 1.0
C      1  0.5085550000000  0.6019120000000  0.5415400000000 1.0
C      1  0.5537400000000  0.4387130000000  0.4681210000000 1.0
C      1  0.4760890000000  0.5106490000000  0.5118880000000 1.0
C      1  0.5184910000000  0.5724730000000  0.5763960000000 1.0
C      1  0.5522050000000  0.4946060000000  0.4451310000000 1.0
C      1  0.5311520000000  0.5325800000000  0.5073000000000 1.0
C      1  0.5399500000000  0.4792270000000  0.5164020000000 1.0
C      1  0.5866170000000  0.5542010000000  0.4653810000000 1.0
C      1  0.4430210000000  0.5124940000000  0.5134920000000 1.0
C      1  0.4681150000000  0.5731740000000  0.4306980000000 1.0
C      1  0.5554230000000  0.4180270000000  0.5304910000000 1.0
C      1  0.5459530000000  0.3913030000000  0.4631080000000 1.0
C      1  0.5137830000000  0.4976490000000  0.5143850000000 1.0
C      1  0.5298840000000  0.5961610000000  0.5844230000000 1.0
C      1  0.4386260000000  0.4173720000000  0.4716460000000 1.0
C      1  0.5062540000000  0.4339280000000  0.5782700000000 1.0
C      1  0.5708640000000  0.5185290000000  0.4448990000000 1.0
C      1  0.4226110000000  0.5320030000000  0.5619770000000 1.0
C      1  0.4681540000000  0.4119660000000  0.4648840000000 1.0
C      1  0.5038880000000  0.5969270000000  0.4570540000000 1.0
C      1  0.4546610000000  0.4561080000000  0.5613550000000 1.0
C      1  0.5885490000000  0.4515010000000  0.5404860000000 1.0
C      1  0.4636620000000  0.4792200000000  0.4394970000000 1.0
C      1  0.4994750000000  0.3912720000000  0.4861170000000 1.0
C      1  0.4931170000000  0.4950770000000  0.4477860000000 1.0
C      1  0.5513430000000  0.4599590000000  0.4936900000000 1.0
C      1  0.5149410000000  0.4768200000000  0.4647540000000 1.0
C      1  0.5550770000000  0.5083650000000  0.5640490000000 1.0
C      1  0.4552580000000  0.5594840000000  0.5150610000000 1.0
C      1  0.4962740000000  0.5882930000000  0.4312730000000 1.0
C      1  0.5767150000000  0.5705680000000  0.4903020000000 1.0
C      1  0.5917450000000  0.4658120000000  0.5161300000000 1.0
C      1  0.5527020000000  0.4850340000000  0.5400600000000 1.0
C      1  0.3996730000000  0.4622010000000  0.5057970000000 1.0
C      1  0.4084100000000  0.4838600000000  0.5493230000000 1.0
C      1  0.4937260000000  0.4990390000000  0.5733170000000 1.0
C      1  0.4311310000000  0.4880150000000  0.4408000000000 1.0
C      1  0.5293930000000  0.5581060000000  0.4746110000000 1.0
C      1  0.5091480000000  0.4571520000000  0.5453240000000 1.0
C      1  0.4801900000000  0.4259650000000  0.5674220000000 1.0
C      1  0.5626390000000  0.4370940000000  0.5559360000000 1.0
C      1  0.4471950000000  0.5211270000000  0.5810340000000 1.0
C      1  0.4330990000000  0.4648130000000  0.5858300000000 1.0
C      1  0.4342700000000  0.4193410000000  0.5369020000000 1.0
C      1  0.4351600000000  0.5420100000000  0.5088320000000 1.0
C      1  0.5676230000000  0.5498690000000  0.5405810000000 1.0
C      1  0.5906300000000  0.4607460000000  0.4878500000000 1.0
C      1  0.5443030000000  0.4340950000000  0.5099390000000 1.0
C      1  0.4763060000000  0.3953640000000  0.5273850000000 1.0
C      1  0.4962940000000  0.5433390000000  0.5439340000000 1.0
C      1  0.5031930000000  0.4126050000000  0.5197180000000 1.0
C      1  0.4931190000000  0.5706450000000  0.5610330000000 1.0
C      1  0.4593970000000  0.4104840000000  0.5486900000000 1.0
C      1  0.5741310000000  0.5308100000000  0.4131550000000 1.0
C      1  0.5672020000000  0.4762710000000  0.4683850000000 1.0
C      1  0.5336860000000  0.4167630000000  0.4638730000000 1.0
C      1  0.4200250000000  0.5362400000000  0.4407640000000 1.0
C      1  0.5874770000000  0.4931160000000  0.5220310000000 1.0
C      1  0.4003090000000  0.5147280000000  0.4863120000000 1.0
C      1  0.4863470000000  0.5351610000000  0.3753350000000 1.0
C      1  0.4349320000000  0.4181200000000  0.5058380000000 1.0
C      1  0.4171100000000  0.4607520000000  0.4445370000000 1.0
C      1  0.5195540000000  0.5435680000000  0.4454920000000 1.0
C      1  0.5906280000000  0.5296280000000  0.5366550000000 1.0
C      1  0.4303550000000  0.5906520000000  0.5158170000000 1.0
C      1  0.4973530000000  0.5556040000000  0.4299970000000 1.0
C      1  0.5128520000000  0.5602840000000  0.5043270000000 1.0
C      1  0.4710140000000  0.5522840000000  0.5735230000000 1.0
C      1  0.4005940000000  0.4597700000000  0.5355620000000 1.0
C      1  0.5418390000000  0.5992700000000  0.5062200000000 1.0
C      1  0.5321550000000  0.6206040000000  0.5291830000000 1.0
C      1  0.4890920000000  0.4758420000000  0.5924270000000 1.0
C      1  0.4468210000000  0.4924210000000  0.4894870000000 1.0
C      1  0.5850790000000  0.5640330000000  0.5173100000000 1.0
C      1  0.5222850000000  0.5108100000000  0.4456980000000 1.0
C      1  0.5677900000000  0.4438440000000  0.4450720000000 1.0
C      1  0.4126350000000  0.4356980000000  0.5455520000000 1.0
C      1  0.5104210000000  0.4910490000000  0.5477890000000 1.0
C      1  0.4738610000000  0.4689240000000  0.4704890000000 1.0
C      1  0.5161940000000  0.4235960000000  0.4385430000000 1.0
C      1  0.4861830000000  0.4223180000000  0.4460040000000 1.0
C      1  0.5228100000000  0.5177990000000  0.4065560000000 1.0
C      1  0.4781280000000  0.5305830000000  0.5927830000000 1.0
C      1  0.4316720000000  0.4955940000000  0.5368240000000 1.0
C      1  0.4749430000000  0.4791100000000  0.5145800000000 1.0
C      1  0.5430230000000  0.5388280000000  0.4246180000000 1.0
C      1  0.5202320000000  0.5839500000000  0.5204510000000 1.0
C      1  0.4109890000000  0.4798640000000  0.5776180000000 1.0
C      1  0.5563960000000  0.4808530000000  0.4173410000000 1.0
C      1  0.4661880000000  0.4089190000000  0.4987520000000 1.0
C      1  0.4566500000000  0.4420230000000  0.4072050000000 1.0
C      1  0.5064960000000  0.4162990000000  0.4796700000000 1.0
C      1  0.5530090000000  0.5069180000000  0.4033220000000 1.0
C      1  0.5321970000000  0.4919670000000  0.4794710000000 1.0
C      1  0.4892530000000  0.4430070000000  0.4863370000000 1.0
C      1  0.4356040000000  0.5730150000000  0.4676740000000 1.0
C      1  0.4810650000000  0.5563980000000  0.5065890000000 1.0
C      1  0.5596930000000  0.4600900000000  0.5798620000000 1.0
C      1  0.5511200000000  0.5812190000000  0.4865070000000 1.0
C      1  0.4216180000000  0.4406320000000  0.4615240000000 1.0
C      1  0.5328450000000  0.4005570000000  0.5436680000000 1.0
C      1  0.4801200000000  0.4499480000000  0.4180070000000 1.0
C      1  0.5289270000000  0.4318490000000  0.5565980000000 1.0
C      1  0.4699640000000  0.5285420000000  0.5382260000000 1.0
C      1  0.4712490000000  0.5936310000000  0.4925960000000 1.0
C      1  0.4034050000000  0.5276710000000  0.5407370000000 1.0
C      1  0.6030410000000  0.5298970000000  0.4745370000000 1.0
C      1  0.4777110000000  0.4449490000000  0.5403530000000 1.0
C      1  0.4488340000000  0.4619240000000  0.5006200000000 1.0
C      1  0.5507440000000  0.5385310000000  0.5609390000000 1.0
C      1  0.4640230000000  0.4649890000000  0.5915150000000 1.0
C      1  0.4934440000000  0.5294400000000  0.4002010000000 1.0
C      1  0.5069060000000  0.4631460000000  0.4116570000000 1.0
C      1  0.4538600000000  0.4767920000000  0.5381500000000 1.0
C      1  0.5182400000000  0.6191420000000  0.4627820000000 1.0
C      1  0.4493790000000  0.5795840000000  0.5400940000000 1.0
C      1  0.6038100000000  0.5302720000000  0.5068910000000 1.0
C      1  0.4231700000000  0.4467140000000  0.4933260000000 1.0
C      1  0.4785250000000  0.6071820000000  0.5162770000000 1.0
C      1  0.5364070000000  0.4717100000000  0.5904610000000 1.0
C      1  0.5348600000000  0.4996310000000  0.5857540000000 1.0
C      1  0.4076450000000  0.5310100000000  0.5119350000000 1.0
C      1  0.4687550000000  0.5030710000000  0.4704210000000 1.0
C      1  0.5169220000000  0.4342610000000  0.5136410000000 1.0
C      1  0.5859650000000  0.5015600000000  0.5534630000000 1.0
C      1  0.4401080000000  0.5341160000000  0.4202980000000 1.0
C      1  0.5078610000000  0.3857800000000  0.5361570000000 1.0
C      1  0.5108330000000  0.5226470000000  0.5888190000000 1.0
C      1  0.4430750000000  0.5883030000000  0.4901690000000 1.0
C      1  0.4726640000000  0.5340780000000  0.4246210000000 1.0
C      1  0.4461860000000  0.5054540000000  0.4157510000000 1.0
C      1  0.4475390000000  0.5493820000000  0.5528470000000 1.0
C      1  0.5003170000000  0.5232520000000  0.4960350000000 1.0
C      1  0.5828520000000  0.4706400000000  0.5634930000000 1.0
C      1  0.4670080000000  0.5086370000000  0.5618250000000 1.0
C      1  0.4908410000000  0.5802010000000  0.4763040000000 1.0
C      1  0.6043230000000  0.5120640000000  0.4456050000000 1.0
C      1  0.4163080000000  0.4854430000000  0.4864430000000 1.0
C      1  0.5474490000000  0.5108890000000  0.4932280000000 1.0
C      1  0.5296570000000  0.5466230000000  0.5776550000000 1.0
C      1  0.5176520000000  0.5228740000000  0.5367840000000 1.0
C      1  0.5266140000000  0.4439140000000  0.4205030000000 1.0
C      1  0.5009140000000  0.4616920000000  0.5124930000000 1.0
C      1  0.5024490000000  0.4912840000000  0.4077370000000 1.0
C      1  0.4681690000000  0.4392230000000  0.5128400000000 1.0
C      1  0.4889640000000  0.5461840000000  0.4757550000000 1.0
C      1  0.4771330000000  0.5943600000000  0.5466770000000 1.0
C      1  0.5554800000000  0.5432580000000  0.4625270000000 1.0
C      1  0.6150430000000  0.5586150000000  0.5206360000000 1.0
C      1  0.5707220000000  0.5567990000000  0.4350440000000 1.0
C      1  0.4678960000000  0.5323210000000  0.4582730000000 1.0
C      1  0.4515840000000  0.5592200000000  0.4491480000000 1.0
C      1  0.4160750000000  0.5131790000000  0.4562200000000 1.0
C      1  0.3823650000000  0.4867350000000  0.4913100000000 1.0
C      1  0.5909970000000  0.4975480000000  0.4722730000000 1.0
C      1  0.4940840000000  0.4551400000000  0.4486180000000 1.0
C      1  0.5776640000000  0.5102500000000  0.4982550000000 1.0
C      1  0.5109880000000  0.4581180000000  0.5932220000000 1.0
END
