TITL C-2778431-5191-935 -0.00149348170328695 125000 -294.544541784927 0 0 52 (C1) n - 1
REM
REM in /home/nfs/bkarasulu/CARBON/AIRSS/Generating-Clusters/REBO/Only-C1/SD-CG/HFTN-CG
REM
REM
REM
REM
REM
REM ./C.cell (11c1c37f851c82e70ff6c80c92926a4b)
REM
REM compiler GCC version 9.2.1 20190827 (Red Hat 9.2.1-1)
REM options -cpp -mtune=generic -march=x86-64 -g -O0 -fpre-include=/usr/include/finclude/math-vector-fortran.h
REM seed -697308499 -1355472299 830820170 -798354215 338424342 -1273368553 1558176805 -452000372 -940956021 -1747579628 889433382 2146153032 903836793 3527216 -833860452 657940908 1985994845 -593748915 -1260563523 -53982667 1702595844 -2098417727 -692431526 678091228 2029936294 -1910347679 -709995875 -431704318 1177692827 -1294028751 924186627 1732696363 609055248
REM
CELL 1.54180   50.00000   50.00000   50.00000   90.00000   90.00000   90.00000
LATT -1
SFAC C  
C      1  0.4440710000000  0.5355040000000  0.4687990000000 1.0
C      1  0.4930570000000  0.4184200000000  0.5375910000000 1.0
C      1  0.4567520000000  0.5194380000000  0.5126930000000 1.0
C      1  0.4609320000000  0.5078850000000  0.5613090000000 1.0
C      1  0.4402030000000  0.4773050000000  0.5319650000000 1.0
C      1  0.5222400000000  0.4719180000000  0.5420560000000 1.0
C      1  0.4593150000000  0.4584170000000  0.4560790000000 1.0
C      1  0.4740880000000  0.4911330000000  0.6048220000000 1.0
C      1  0.4731390000000  0.4242940000000  0.4922130000000 1.0
C      1  0.4904410000000  0.5227480000000  0.5094770000000 1.0
C      1  0.4895400000000  0.4682010000000  0.5193260000000 1.0
C      1  0.4982170000000  0.5000490000000  0.5269410000000 1.0
C      1  0.4951960000000  0.4820680000000  0.4915040000000 1.0
C      1  0.5472360000000  0.4329230000000  0.4790600000000 1.0
C      1  0.4501100000000  0.5339890000000  0.4403940000000 1.0
C      1  0.5017270000000  0.4822660000000  0.5660400000000 1.0
C      1  0.5750130000000  0.4942750000000  0.4807610000000 1.0
C      1  0.4597930000000  0.5567390000000  0.4812010000000 1.0
C      1  0.5096580000000  0.5294700000000  0.4820340000000 1.0
C      1  0.4756770000000  0.5536170000000  0.4356790000000 1.0
C      1  0.5409030000000  0.5267520000000  0.4749550000000 1.0
C      1  0.4623210000000  0.4337590000000  0.4694680000000 1.0
C      1  0.5415210000000  0.4996930000000  0.5074490000000 1.0
C      1  0.5517340000000  0.5021200000000  0.4655870000000 1.0
C      1  0.5002930000000  0.5597270000000  0.5210310000000 1.0
C      1  0.4778030000000  0.5218500000000  0.4277630000000 1.0
C      1  0.4478210000000  0.5041210000000  0.5367260000000 1.0
C      1  0.4462200000000  0.5099910000000  0.4849430000000 1.0
C      1  0.5291130000000  0.4978440000000  0.5606530000000 1.0
C      1  0.4701800000000  0.5499400000000  0.5107310000000 1.0
C      1  0.5773100000000  0.5565860000000  0.4939880000000 1.0
C      1  0.5420390000000  0.4593470000000  0.4866570000000 1.0
C      1  0.4809600000000  0.5648060000000  0.4625500000000 1.0
C      1  0.5450090000000  0.5278830000000  0.5222540000000 1.0
C      1  0.4722740000000  0.4891990000000  0.4780570000000 1.0
C      1  0.5803440000000  0.4650250000000  0.5253920000000 1.0
C      1  0.5117900000000  0.4792770000000  0.4480230000000 1.0
C      1  0.5290110000000  0.4629100000000  0.5168900000000 1.0
C      1  0.4816720000000  0.4687460000000  0.4421670000000 1.0
C      1  0.5559260000000  0.5394910000000  0.4959020000000 1.0
C      1  0.4423850000000  0.4798780000000  0.4695780000000 1.0
C      1  0.5117060000000  0.5740580000000  0.4988240000000 1.0
C      1  0.4787270000000  0.4935780000000  0.5781030000000 1.0
C      1  0.4810400000000  0.4357180000000  0.5196040000000 1.0
C      1  0.5348430000000  0.4785860000000  0.4625960000000 1.0
C      1  0.5173530000000  0.4992570000000  0.4918620000000 1.0
C      1  0.5062900000000  0.5596630000000  0.4746320000000 1.0
C      1  0.5649270000000  0.4761210000000  0.5057810000000 1.0
C      1  0.4590070000000  0.4588310000000  0.5281550000000 1.0
C      1  0.4904130000000  0.4977040000000  0.4313980000000 1.0
C      1  0.5172130000000  0.5432480000000  0.5354420000000 1.0
C      1  0.5354460000000  0.5236310000000  0.5528940000000 1.0
END
