TITL C-2778429-3646-510 -0.00134709048453878 125000 -621.851386456633 0 0 106 (C1) n - 1
REM
REM in /home/nfs/bkarasulu/CARBON/AIRSS/Generating-Clusters/REBO/Only-C1/SD-CG/HFTN-CG
REM
REM
REM
REM
REM
REM ./C.cell (11c1c37f851c82e70ff6c80c92926a4b)
REM
REM compiler GCC version 9.2.1 20190827 (Red Hat 9.2.1-1)
REM options -cpp -mtune=generic -march=x86-64 -g -O0 -fpre-include=/usr/include/finclude/math-vector-fortran.h
REM seed -380843963 -381287899 -1085481281 -1243436596 -1686417770 -1882034513 1845604768 -1378486844 -486974966 -645504577 1647298218 -641792413 1971630479 769413956 695506444 1530361643 1803323900 -1248274081 -1250938115 1601028799 1792255923 2071122832 -1145979656 -1926885437 -1115842562 538938291 -254497812 2144310661 893743539 1914190681 772368957 570915856 112673488
REM
CELL 1.54180   50.00000   50.00000   50.00000   90.00000   90.00000   90.00000
LATT -1
SFAC C  
C      1  0.5244220000000  0.4686210000000  0.5132870000000 1.0
C      1  0.5154270000000  0.4272410000000  0.4472980000000 1.0
C      1  0.4271770000000  0.4974860000000  0.5466840000000 1.0
C      1  0.5324380000000  0.5675220000000  0.4462940000000 1.0
C      1  0.5364130000000  0.4774510000000  0.4206300000000 1.0
C      1  0.4545310000000  0.5394200000000  0.5057090000000 1.0
C      1  0.4765370000000  0.4509610000000  0.5038880000000 1.0
C      1  0.5477970000000  0.5301290000000  0.5646570000000 1.0
C      1  0.5229890000000  0.5972600000000  0.5054880000000 1.0
C      1  0.5876680000000  0.4663900000000  0.4605590000000 1.0
C      1  0.5647340000000  0.5640230000000  0.4987000000000 1.0
C      1  0.4809070000000  0.5296100000000  0.4260280000000 1.0
C      1  0.4411250000000  0.5573530000000  0.4390070000000 1.0
C      1  0.4971520000000  0.4170840000000  0.4925310000000 1.0
C      1  0.4444820000000  0.5649010000000  0.5594470000000 1.0
C      1  0.4219600000000  0.4587970000000  0.5093940000000 1.0
C      1  0.5492770000000  0.5038520000000  0.5218130000000 1.0
C      1  0.4798680000000  0.4898870000000  0.4956850000000 1.0
C      1  0.5597770000000  0.4703000000000  0.5639570000000 1.0
C      1  0.5152010000000  0.5295270000000  0.4862810000000 1.0
C      1  0.5048730000000  0.5856630000000  0.5318500000000 1.0
C      1  0.4992530000000  0.5051260000000  0.4745950000000 1.0
C      1  0.5424400000000  0.5634820000000  0.5140330000000 1.0
C      1  0.5468360000000  0.4923280000000  0.4717260000000 1.0
C      1  0.4993150000000  0.5768320000000  0.5016750000000 1.0
C      1  0.5928000000000  0.4993100000000  0.5219650000000 1.0
C      1  0.5364610000000  0.5114590000000  0.4219960000000 1.0
C      1  0.5444840000000  0.5444220000000  0.4252970000000 1.0
C      1  0.5728770000000  0.5337690000000  0.4905350000000 1.0
C      1  0.4661550000000  0.5687190000000  0.4813500000000 1.0
C      1  0.5196910000000  0.4240370000000  0.5341360000000 1.0
C      1  0.5738460000000  0.5457260000000  0.4376810000000 1.0
C      1  0.4293210000000  0.4865590000000  0.5059220000000 1.0
C      1  0.5647990000000  0.4482610000000  0.5318370000000 1.0
C      1  0.5607920000000  0.5292670000000  0.5398060000000 1.0
C      1  0.3841780000000  0.5474780000000  0.4716560000000 1.0
C      1  0.5429550000000  0.5956740000000  0.4857060000000 1.0
C      1  0.4548670000000  0.4579170000000  0.4799860000000 1.0
C      1  0.5190090000000  0.5266600000000  0.5371290000000 1.0
C      1  0.5255260000000  0.5407810000000  0.5139990000000 1.0
C      1  0.5114320000000  0.5450240000000  0.5573000000000 1.0
C      1  0.5743930000000  0.5576230000000  0.4664510000000 1.0
C      1  0.4106910000000  0.5123950000000  0.5072750000000 1.0
C      1  0.5503090000000  0.5784450000000  0.4645600000000 1.0
C      1  0.5393100000000  0.4421820000000  0.5165460000000 1.0
C      1  0.4813920000000  0.5175700000000  0.5495740000000 1.0
C      1  0.4692580000000  0.4884820000000  0.5627770000000 1.0
C      1  0.5100530000000  0.4565460000000  0.4644410000000 1.0
C      1  0.4346150000000  0.5257790000000  0.4873440000000 1.0
C      1  0.4505790000000  0.5318470000000  0.4366360000000 1.0
C      1  0.5830150000000  0.5249870000000  0.5190500000000 1.0
C      1  0.5206710000000  0.4856710000000  0.4647790000000 1.0
C      1  0.5207020000000  0.4940300000000  0.5340690000000 1.0
C      1  0.4022540000000  0.5340420000000  0.4838210000000 1.0
C      1  0.4787670000000  0.4836080000000  0.4304550000000 1.0
C      1  0.5026180000000  0.4654010000000  0.4938520000000 1.0
C      1  0.4953470000000  0.4180340000000  0.5206370000000 1.0
C      1  0.5675850000000  0.4844730000000  0.4540570000000 1.0
C      1  0.5047470000000  0.5646830000000  0.4498500000000 1.0
C      1  0.5030150000000  0.5054370000000  0.4208720000000 1.0
C      1  0.4382770000000  0.4285290000000  0.4742930000000 1.0
C      1  0.4527190000000  0.4631520000000  0.4352650000000 1.0
C      1  0.4438850000000  0.4732700000000  0.5582490000000 1.0
C      1  0.5050990000000  0.4355520000000  0.5836790000000 1.0
C      1  0.4479620000000  0.4485160000000  0.5377260000000 1.0
C      1  0.4921150000000  0.4567350000000  0.4355580000000 1.0
C      1  0.5244010000000  0.4539200000000  0.4274560000000 1.0
C      1  0.5339460000000  0.4222440000000  0.5595020000000 1.0
C      1  0.4818860000000  0.4252320000000  0.4411160000000 1.0
C      1  0.6066030000000  0.4493400000000  0.4666890000000 1.0
C      1  0.4708770000000  0.4272790000000  0.4807860000000 1.0
C      1  0.4658000000000  0.4216430000000  0.5287400000000 1.0
C      1  0.5180330000000  0.5547760000000  0.4082910000000 1.0
C      1  0.4542180000000  0.4946350000000  0.5262110000000 1.0
C      1  0.5202380000000  0.4192280000000  0.4769720000000 1.0
C      1  0.4545360000000  0.4374310000000  0.4457460000000 1.0
C      1  0.5291380000000  0.5106380000000  0.5739050000000 1.0
C      1  0.4655960000000  0.5239380000000  0.5256740000000 1.0
C      1  0.4896470000000  0.4853020000000  0.5882690000000 1.0
C      1  0.4954400000000  0.5552250000000  0.4248770000000 1.0
C      1  0.4338780000000  0.5722150000000  0.5301900000000 1.0
C      1  0.4208710000000  0.5460990000000  0.5450540000000 1.0
C      1  0.4781020000000  0.4744350000000  0.5263930000000 1.0
C      1  0.4501480000000  0.5698000000000  0.5067310000000 1.0
C      1  0.4408870000000  0.4333120000000  0.5080580000000 1.0
C      1  0.5705980000000  0.4799190000000  0.5333090000000 1.0
C      1  0.4517020000000  0.5743040000000  0.4577230000000 1.0
C      1  0.4122140000000  0.5205310000000  0.5372550000000 1.0
C      1  0.5377670000000  0.4830030000000  0.5753300000000 1.0
C      1  0.4711280000000  0.5705710000000  0.5654260000000 1.0
C      1  0.4862220000000  0.4206900000000  0.5770630000000 1.0
C      1  0.4612470000000  0.4238250000000  0.5616050000000 1.0
C      1  0.4964490000000  0.5565690000000  0.4781380000000 1.0
C      1  0.5674870000000  0.5003910000000  0.4304410000000 1.0
C      1  0.4509090000000  0.4885220000000  0.4829650000000 1.0
C      1  0.5861310000000  0.5220590000000  0.4306970000000 1.0
C      1  0.4995620000000  0.5113030000000  0.5747930000000 1.0
C      1  0.4972310000000  0.5695840000000  0.5543370000000 1.0
C      1  0.5428860000000  0.4272260000000  0.4898180000000 1.0
C      1  0.4784220000000  0.5082250000000  0.4519900000000 1.0
C      1  0.4476440000000  0.5124590000000  0.4625660000000 1.0
C      1  0.4992050000000  0.4779290000000  0.5503070000000 1.0
C      1  0.4412560000000  0.4444690000000  0.5751480000000 1.0
C      1  0.5579280000000  0.4387080000000  0.5608400000000 1.0
C      1  0.5462510000000  0.5152250000000  0.4915160000000 1.0
C      1  0.5123460000000  0.4645000000000  0.5787420000000 1.0
END
