TITL C-2778431-5191-463 0.0177935905149986 125000 -213.649943873713 0 0 37 (C1) n - 1
REM
REM in /home/nfs/bkarasulu/CARBON/AIRSS/Generating-Clusters/REBO/Only-C1/SD-CG/HFTN-CG
REM
REM
REM
REM
REM
REM ./C.cell (11c1c37f851c82e70ff6c80c92926a4b)
REM
REM compiler GCC version 9.2.1 20190827 (Red Hat 9.2.1-1)
REM options -cpp -mtune=generic -march=x86-64 -g -O0 -fpre-include=/usr/include/finclude/math-vector-fortran.h
REM seed -865976554 1326307516 1733369193 -1363961618 -828295904 334387422 -200352512 1165472375 -2064787807 -605943945 -237133255 560042739 -1195849798 1751655925 -1636403852 -1731998607 991968405 -1206833465 1662599081 -745318969 -886810724 1892718069 360381509 1934227613 1288859683 1777960807 1603116932 1482466687 -1100091181 -878178525 -317325277 1255507799 1616645224
REM
CELL 1.54180   50.00000   50.00000   50.00000   90.00000   90.00000   90.00000
LATT -1
SFAC C  
C      1  0.4991520000000  0.5077790000000  0.5094720000000 1.0
C      1  0.5162900000000  0.5288330000000  0.4609300000000 1.0
C      1  0.5565130000000  0.5096500000000  0.4555330000000 1.0
C      1  0.5260890000000  0.5071500000000  0.4996420000000 1.0
C      1  0.4463220000000  0.5033090000000  0.4686430000000 1.0
C      1  0.5229700000000  0.4695060000000  0.4673330000000 1.0
C      1  0.4716970000000  0.4664830000000  0.4515970000000 1.0
C      1  0.5249640000000  0.5425070000000  0.5803880000000 1.0
C      1  0.4304610000000  0.4526810000000  0.5415120000000 1.0
C      1  0.4486190000000  0.4645820000000  0.5250320000000 1.0
C      1  0.5296420000000  0.4988110000000  0.4691560000000 1.0
C      1  0.4432380000000  0.5018510000000  0.4393130000000 1.0
C      1  0.5395880000000  0.4614700000000  0.5399090000000 1.0
C      1  0.5423620000000  0.5277370000000  0.5117810000000 1.0
C      1  0.5400170000000  0.4524170000000  0.5144530000000 1.0
C      1  0.4565780000000  0.4757620000000  0.4760740000000 1.0
C      1  0.5243370000000  0.5427190000000  0.5303000000000 1.0
C      1  0.5622670000000  0.5356170000000  0.4624470000000 1.0
C      1  0.4589330000000  0.4805120000000  0.4292750000000 1.0
C      1  0.5294260000000  0.5546300000000  0.6031900000000 1.0
C      1  0.5303620000000  0.4799720000000  0.5576700000000 1.0
C      1  0.4493200000000  0.4577900000000  0.4971350000000 1.0
C      1  0.4424450000000  0.4315210000000  0.4900170000000 1.0
C      1  0.4918610000000  0.4966540000000  0.5344290000000 1.0
C      1  0.4892200000000  0.5324920000000  0.4680750000000 1.0
C      1  0.4993250000000  0.4619090000000  0.4543420000000 1.0
C      1  0.5162180000000  0.5700070000000  0.4909830000000 1.0
C      1  0.5567640000000  0.5435330000000  0.4927350000000 1.0
C      1  0.4685860000000  0.4814270000000  0.5351060000000 1.0
C      1  0.5347480000000  0.5542620000000  0.4696530000000 1.0
C      1  0.4360260000000  0.4069970000000  0.4833710000000 1.0
C      1  0.4602040000000  0.5254040000000  0.4790510000000 1.0
C      1  0.5202210000000  0.5296200000000  0.5561510000000 1.0
C      1  0.5045320000000  0.5551710000000  0.5117840000000 1.0
C      1  0.5121110000000  0.5015320000000  0.5545380000000 1.0
C      1  0.5340130000000  0.4540600000000  0.4881470000000 1.0
C      1  0.4845830000000  0.5336440000000  0.5008330000000 1.0
END
