TITL C-2778424-3986-514 0.0041377941346389 125000 -765.456508886102 0 0 130 (C1) n - 1
REM
REM in /home/nfs/bkarasulu/CARBON/AIRSS/Generating-Clusters/REBO/Only-C1/SD-CG/HFTN-CG
REM
REM
REM
REM
REM
REM ./C.cell (11c1c37f851c82e70ff6c80c92926a4b)
REM
REM compiler GCC version 9.2.1 20190827 (Red Hat 9.2.1-1)
REM options -cpp -mtune=generic -march=x86-64 -g -O0 -fpre-include=/usr/include/finclude/math-vector-fortran.h
REM seed -254603361 200942359 758708742 -1184038960 -680804409 2066690624 -1600242427 921749176 -664636955 -949257545 -1667681525 -1139443255 299860194 -1671169544 -1278659141 1386303030 710924506 152143707 1472658819 904354860 -1586371424 2112405720 -990483543 -473059483 1160127635 943998412 619978909 1888365779 -347195324 550807358 -1995942959 48803044 -1896804411
REM
CELL 1.54180   50.00000   50.00000   50.00000   90.00000   90.00000   90.00000
LATT -1
SFAC C  
C      1  0.5443750000000  0.5864800000000  0.4960500000000 1.0
C      1  0.4103260000000  0.5013320000000  0.4396150000000 1.0
C      1  0.4521360000000  0.5713760000000  0.5472540000000 1.0
C      1  0.5580950000000  0.5081640000000  0.5659510000000 1.0
C      1  0.5170740000000  0.4901350000000  0.4443520000000 1.0
C      1  0.4671610000000  0.5642200000000  0.5076440000000 1.0
C      1  0.5459610000000  0.4493220000000  0.4600690000000 1.0
C      1  0.4728150000000  0.4856510000000  0.4057610000000 1.0
C      1  0.5341620000000  0.5000330000000  0.5847790000000 1.0
C      1  0.4527190000000  0.4877220000000  0.5486270000000 1.0
C      1  0.5145900000000  0.4792580000000  0.5829890000000 1.0
C      1  0.5002590000000  0.5067980000000  0.4960150000000 1.0
C      1  0.5496900000000  0.5239460000000  0.4849280000000 1.0
C      1  0.5733730000000  0.4849640000000  0.4455600000000 1.0
C      1  0.5033970000000  0.5356850000000  0.5134160000000 1.0
C      1  0.5199770000000  0.4506960000000  0.5688950000000 1.0
C      1  0.4649250000000  0.6129100000000  0.5153240000000 1.0
C      1  0.4353550000000  0.5166300000000  0.4886470000000 1.0
C      1  0.5879990000000  0.4914330000000  0.4740190000000 1.0
C      1  0.4959630000000  0.5709280000000  0.4729910000000 1.0
C      1  0.4160380000000  0.5083710000000  0.5146160000000 1.0
C      1  0.5380530000000  0.5181250000000  0.5225020000000 1.0
C      1  0.4348760000000  0.5301100000000  0.5262170000000 1.0
C      1  0.5982890000000  0.5076140000000  0.4990320000000 1.0
C      1  0.5786880000000  0.5415840000000  0.5301070000000 1.0
C      1  0.4648150000000  0.5088610000000  0.5724410000000 1.0
C      1  0.4583850000000  0.4022860000000  0.4994530000000 1.0
C      1  0.5544130000000  0.4858020000000  0.4739650000000 1.0
C      1  0.4435980000000  0.5759110000000  0.4403520000000 1.0
C      1  0.4624620000000  0.4322440000000  0.5072590000000 1.0
C      1  0.5647670000000  0.5695320000000  0.5153370000000 1.0
C      1  0.5340460000000  0.5234950000000  0.5524450000000 1.0
C      1  0.5049660000000  0.5133920000000  0.5613500000000 1.0
C      1  0.5940550000000  0.4554320000000  0.4903450000000 1.0
C      1  0.5030370000000  0.5547720000000  0.5764830000000 1.0
C      1  0.5009020000000  0.4816280000000  0.4040200000000 1.0
C      1  0.5358320000000  0.5516300000000  0.5694430000000 1.0
C      1  0.6023280000000  0.4749880000000  0.5075140000000 1.0
C      1  0.4366590000000  0.5032970000000  0.4333430000000 1.0
C      1  0.5616200000000  0.4652620000000  0.5393970000000 1.0
C      1  0.5607900000000  0.4339230000000  0.5373780000000 1.0
C      1  0.4902450000000  0.5431380000000  0.4827960000000 1.0
C      1  0.4066800000000  0.4593220000000  0.5379790000000 1.0
C      1  0.5338300000000  0.5454330000000  0.5028280000000 1.0
C      1  0.4432800000000  0.5866280000000  0.5177080000000 1.0
C      1  0.4864800000000  0.4429950000000  0.4387150000000 1.0
C      1  0.5644920000000  0.5263740000000  0.4558630000000 1.0
C      1  0.5797070000000  0.5124300000000  0.5461690000000 1.0
C      1  0.4892570000000  0.6116280000000  0.4955180000000 1.0
C      1  0.4377730000000  0.4916340000000  0.4715330000000 1.0
C      1  0.4415270000000  0.5510310000000  0.4512830000000 1.0
C      1  0.5230190000000  0.4672890000000  0.5114330000000 1.0
C      1  0.4931750000000  0.4154370000000  0.4577190000000 1.0
C      1  0.4658840000000  0.4420020000000  0.5678890000000 1.0
C      1  0.5899570000000  0.5389610000000  0.4991860000000 1.0
C      1  0.5389140000000  0.4251130000000  0.5602220000000 1.0
C      1  0.4219490000000  0.4325520000000  0.5326080000000 1.0
C      1  0.4418800000000  0.4050480000000  0.5276630000000 1.0
C      1  0.4782110000000  0.4672610000000  0.5366940000000 1.0
C      1  0.5192010000000  0.5284210000000  0.5889990000000 1.0
C      1  0.5349090000000  0.4726850000000  0.5492010000000 1.0
C      1  0.5200470000000  0.4932650000000  0.5303410000000 1.0
C      1  0.4806860000000  0.4386990000000  0.5273040000000 1.0
C      1  0.4323210000000  0.5470190000000  0.4775950000000 1.0
C      1  0.4807570000000  0.5944130000000  0.4739270000000 1.0
C      1  0.5292630000000  0.5004410000000  0.4812070000000 1.0
C      1  0.5387510000000  0.5677100000000  0.4482750000000 1.0
C      1  0.4802350000000  0.5214040000000  0.4319280000000 1.0
C      1  0.5293180000000  0.5605030000000  0.5309900000000 1.0
C      1  0.4960470000000  0.4158090000000  0.5423440000000 1.0
C      1  0.5385800000000  0.4025580000000  0.4542530000000 1.0
C      1  0.5785370000000  0.5492970000000  0.4745220000000 1.0
C      1  0.5054910000000  0.5288190000000  0.4184710000000 1.0
C      1  0.4714240000000  0.5614170000000  0.5736680000000 1.0
C      1  0.5656730000000  0.5090920000000  0.5090570000000 1.0
C      1  0.5695120000000  0.4561420000000  0.4771770000000 1.0
C      1  0.4477600000000  0.4265480000000  0.5527980000000 1.0
C      1  0.4279100000000  0.5577880000000  0.5075120000000 1.0
C      1  0.5469020000000  0.5064430000000  0.4088000000000 1.0
C      1  0.5568860000000  0.5604300000000  0.5471470000000 1.0
C      1  0.5296900000000  0.4179510000000  0.4982270000000 1.0
C      1  0.4201540000000  0.5641470000000  0.5401360000000 1.0
C      1  0.5235780000000  0.5485270000000  0.4336370000000 1.0
C      1  0.4731860000000  0.5487750000000  0.5358290000000 1.0
C      1  0.4331790000000  0.4431400000000  0.5050240000000 1.0
C      1  0.4891550000000  0.5848900000000  0.5574860000000 1.0
C      1  0.5161640000000  0.6029340000000  0.5060380000000 1.0
C      1  0.4865380000000  0.4865640000000  0.5843030000000 1.0
C      1  0.4544050000000  0.5349000000000  0.5723670000000 1.0
C      1  0.4144600000000  0.4691180000000  0.4680050000000 1.0
C      1  0.5622910000000  0.5723140000000  0.4705690000000 1.0
C      1  0.4866420000000  0.4962830000000  0.4440480000000 1.0
C      1  0.5049790000000  0.4187270000000  0.4256940000000 1.0
C      1  0.4820810000000  0.5867540000000  0.5258280000000 1.0
C      1  0.5388930000000  0.4449650000000  0.5134990000000 1.0
C      1  0.4671700000000  0.5190320000000  0.5284200000000 1.0
C      1  0.5071640000000  0.5218090000000  0.4666340000000 1.0
C      1  0.4325750000000  0.4738350000000  0.5031650000000 1.0
C      1  0.4466860000000  0.4340400000000  0.4604210000000 1.0
C      1  0.5431290000000  0.4074930000000  0.5247280000000 1.0
C      1  0.5801700000000  0.4861450000000  0.5274080000000 1.0
C      1  0.5232550000000  0.5774290000000  0.4721720000000 1.0
C      1  0.4311560000000  0.5387790000000  0.5570370000000 1.0
C      1  0.5327480000000  0.5188200000000  0.4459280000000 1.0
C      1  0.5082240000000  0.4508160000000  0.4144990000000 1.0
C      1  0.5587810000000  0.4657380000000  0.4259520000000 1.0
C      1  0.4531150000000  0.4807080000000  0.4256480000000 1.0
C      1  0.4928610000000  0.4349850000000  0.5651220000000 1.0
C      1  0.4793280000000  0.4840270000000  0.4919300000000 1.0
C      1  0.4581420000000  0.4827780000000  0.5152790000000 1.0
C      1  0.4661270000000  0.4832190000000  0.4633350000000 1.0
C      1  0.5314200000000  0.4679780000000  0.4256330000000 1.0
C      1  0.5183510000000  0.4076970000000  0.4741390000000 1.0
C      1  0.5184590000000  0.5050360000000  0.4068930000000 1.0
C      1  0.4614730000000  0.4562060000000  0.4456770000000 1.0
C      1  0.5667350000000  0.5099050000000  0.4271340000000 1.0
C      1  0.4629490000000  0.4693510000000  0.5735570000000 1.0
C      1  0.5135260000000  0.5867330000000  0.5337360000000 1.0
C      1  0.4037930000000  0.4870550000000  0.4918870000000 1.0
C      1  0.4642270000000  0.4134930000000  0.4707860000000 1.0
C      1  0.4520800000000  0.5277450000000  0.4365560000000 1.0
C      1  0.5493960000000  0.4258680000000  0.4441560000000 1.0
C      1  0.4890030000000  0.4996580000000  0.5377090000000 1.0
C      1  0.4062100000000  0.4830940000000  0.5317650000000 1.0
C      1  0.5024110000000  0.5495720000000  0.5445670000000 1.0
C      1  0.4248770000000  0.4434080000000  0.4752700000000 1.0
C      1  0.5219240000000  0.4031490000000  0.5461710000000 1.0
C      1  0.4630380000000  0.5320180000000  0.4980200000000 1.0
C      1  0.5215710000000  0.4651750000000  0.4642140000000 1.0
C      1  0.5070880000000  0.4680990000000  0.4885600000000 1.0
END
