TITL C-2778426-5645-255 -0.000586562600837899 125000 -681.880394986655 0 0 118 (C1) n - 1
REM
REM in /home/nfs/bkarasulu/CARBON/AIRSS/Generating-Clusters/REBO/Only-C1/SD-CG/HFTN-CG
REM
REM
REM
REM
REM
REM ./C.cell (11c1c37f851c82e70ff6c80c92926a4b)
REM
REM compiler GCC version 9.2.1 20190827 (Red Hat 9.2.1-1)
REM options -cpp -mtune=generic -march=x86-64 -g -O0 -fpre-include=/usr/include/finclude/math-vector-fortran.h
REM seed -594662469 407006737 261982592 -1259416927 -457568762 -1907415065 -1364390852 980527041 1368917038 488485749 -53662048 -1524145427 1542722057 37543813 1940316326 752444525 1502343784 706812169 508910584 -1284429781 -528674841 -1200923827 219901979 960667865 455025452 -645162619 1407148540 -1185865125 -1626695827 1524748065 1342802272 -454807338 -1769349686
REM
CELL 1.54180   50.00000   50.00000   50.00000   90.00000   90.00000   90.00000
LATT -1
SFAC C  
C      1  0.5380980000000  0.5732270000000  0.4847350000000 1.0
C      1  0.6087610000000  0.4843030000000  0.4768550000000 1.0
C      1  0.5166590000000  0.4182560000000  0.5354330000000 1.0
C      1  0.4457490000000  0.4596200000000  0.5418660000000 1.0
C      1  0.4149530000000  0.4984410000000  0.4655070000000 1.0
C      1  0.5437340000000  0.5187660000000  0.4943480000000 1.0
C      1  0.6173130000000  0.4909710000000  0.4994620000000 1.0
C      1  0.4240510000000  0.4656700000000  0.4674760000000 1.0
C      1  0.4160400000000  0.4314290000000  0.5059000000000 1.0
C      1  0.4484050000000  0.5629140000000  0.4666260000000 1.0
C      1  0.4930060000000  0.4402260000000  0.4281690000000 1.0
C      1  0.4837830000000  0.4133630000000  0.5308000000000 1.0
C      1  0.4588890000000  0.5432680000000  0.4413710000000 1.0
C      1  0.4997020000000  0.4363770000000  0.5129860000000 1.0
C      1  0.5266490000000  0.5274790000000  0.5729820000000 1.0
C      1  0.4759270000000  0.5667640000000  0.5665320000000 1.0
C      1  0.5405970000000  0.4542650000000  0.4385210000000 1.0
C      1  0.4768200000000  0.5145690000000  0.4862560000000 1.0
C      1  0.5561560000000  0.5290470000000  0.5178250000000 1.0
C      1  0.5284490000000  0.4568570000000  0.5421180000000 1.0
C      1  0.5313020000000  0.5573470000000  0.4214400000000 1.0
C      1  0.5942330000000  0.5259760000000  0.5048210000000 1.0
C      1  0.5063130000000  0.5420080000000  0.4631700000000 1.0
C      1  0.5236780000000  0.4332060000000  0.5620400000000 1.0
C      1  0.5462030000000  0.5547160000000  0.5670100000000 1.0
C      1  0.5437010000000  0.5112660000000  0.4430750000000 1.0
C      1  0.5138740000000  0.4428100000000  0.4849540000000 1.0
C      1  0.5096290000000  0.5376260000000  0.4331720000000 1.0
C      1  0.4303740000000  0.5085790000000  0.5206160000000 1.0
C      1  0.4576430000000  0.4123610000000  0.5353740000000 1.0
C      1  0.4556820000000  0.5315180000000  0.5216040000000 1.0
C      1  0.4744010000000  0.5824560000000  0.4753090000000 1.0
C      1  0.5145670000000  0.5764440000000  0.4400690000000 1.0
C      1  0.5775910000000  0.4864230000000  0.4664400000000 1.0
C      1  0.4864780000000  0.4234380000000  0.4778550000000 1.0
C      1  0.5379950000000  0.4229930000000  0.5117970000000 1.0
C      1  0.4345930000000  0.5392630000000  0.5458350000000 1.0
C      1  0.5073160000000  0.4213920000000  0.4520780000000 1.0
C      1  0.5245770000000  0.4969540000000  0.5022930000000 1.0
C      1  0.4285720000000  0.4785270000000  0.5644070000000 1.0
C      1  0.4425860000000  0.4587420000000  0.4940740000000 1.0
C      1  0.4678910000000  0.4959250000000  0.4673870000000 1.0
C      1  0.4758360000000  0.4705960000000  0.4753730000000 1.0
C      1  0.4452040000000  0.4052800000000  0.4982120000000 1.0
C      1  0.5365790000000  0.5450110000000  0.5354380000000 1.0
C      1  0.4693840000000  0.5023900000000  0.5236100000000 1.0
C      1  0.4641390000000  0.5197540000000  0.4171700000000 1.0
C      1  0.4994230000000  0.4684050000000  0.5367030000000 1.0
C      1  0.5117620000000  0.4813750000000  0.5752110000000 1.0
C      1  0.4484390000000  0.4795180000000  0.5172550000000 1.0
C      1  0.5395270000000  0.5017220000000  0.5553040000000 1.0
C      1  0.5865470000000  0.5532410000000  0.5102260000000 1.0
C      1  0.4780580000000  0.4474150000000  0.4580720000000 1.0
C      1  0.4936440000000  0.5021310000000  0.5875720000000 1.0
C      1  0.4593110000000  0.4447840000000  0.4311710000000 1.0
C      1  0.5172130000000  0.5497140000000  0.4879490000000 1.0
C      1  0.5425720000000  0.4966650000000  0.4131900000000 1.0
C      1  0.4370980000000  0.4314430000000  0.5307030000000 1.0
C      1  0.5289070000000  0.5892690000000  0.4597850000000 1.0
C      1  0.5578660000000  0.4812670000000  0.4399430000000 1.0
C      1  0.4636810000000  0.5382770000000  0.4830690000000 1.0
C      1  0.6019750000000  0.5021270000000  0.5253700000000 1.0
C      1  0.5626830000000  0.5763350000000  0.5157660000000 1.0
C      1  0.4312460000000  0.5456560000000  0.4904140000000 1.0
C      1  0.5622740000000  0.4666050000000  0.4854410000000 1.0
C      1  0.4943630000000  0.4988460000000  0.5066280000000 1.0
C      1  0.5037460000000  0.5476940000000  0.5129280000000 1.0
C      1  0.4709740000000  0.5060270000000  0.5548720000000 1.0
C      1  0.4928450000000  0.5312390000000  0.5732460000000 1.0
C      1  0.5771490000000  0.4803200000000  0.5326400000000 1.0
C      1  0.4946850000000  0.5258920000000  0.4129880000000 1.0
C      1  0.4568130000000  0.4724580000000  0.5779290000000 1.0
C      1  0.5607930000000  0.5243610000000  0.5662950000000 1.0
C      1  0.4152030000000  0.5133290000000  0.5508560000000 1.0
C      1  0.4964450000000  0.5904450000000  0.5521350000000 1.0
C      1  0.4168450000000  0.4336210000000  0.4769820000000 1.0
C      1  0.5735770000000  0.5138790000000  0.5382390000000 1.0
C      1  0.5329270000000  0.5860420000000  0.5138570000000 1.0
C      1  0.4150040000000  0.5211230000000  0.4794010000000 1.0
C      1  0.5123720000000  0.4734510000000  0.4593800000000 1.0
C      1  0.5863030000000  0.5172230000000  0.4785390000000 1.0
C      1  0.5965360000000  0.4390380000000  0.5118030000000 1.0
C      1  0.5696150000000  0.5655210000000  0.4838870000000 1.0
C      1  0.5176200000000  0.4805360000000  0.4063920000000 1.0
C      1  0.4140190000000  0.4597880000000  0.5172010000000 1.0
C      1  0.5805480000000  0.4599420000000  0.5107980000000 1.0
C      1  0.5486370000000  0.5247240000000  0.4678880000000 1.0
C      1  0.5039540000000  0.4532900000000  0.5733860000000 1.0
C      1  0.5728340000000  0.5413730000000  0.4655800000000 1.0
C      1  0.4555710000000  0.4284350000000  0.4854160000000 1.0
C      1  0.4687320000000  0.4904970000000  0.5946470000000 1.0
C      1  0.4676550000000  0.5799550000000  0.5373720000000 1.0
C      1  0.5445800000000  0.5306100000000  0.4154800000000 1.0
C      1  0.4426270000000  0.5090940000000  0.5705340000000 1.0
C      1  0.4852700000000  0.5813360000000  0.5018480000000 1.0
C      1  0.4593110000000  0.5390840000000  0.5696940000000 1.0
C      1  0.5191910000000  0.4551920000000  0.4190870000000 1.0
C      1  0.4719230000000  0.5555710000000  0.5175060000000 1.0
C      1  0.4217490000000  0.4907720000000  0.4366930000000 1.0
C      1  0.5004350000000  0.4981370000000  0.5484250000000 1.0
C      1  0.5061840000000  0.5910690000000  0.5200680000000 1.0
C      1  0.4978790000000  0.4808780000000  0.4410900000000 1.0
C      1  0.5338610000000  0.4359390000000  0.4588370000000 1.0
C      1  0.5213720000000  0.5148120000000  0.5312800000000 1.0
C      1  0.4755010000000  0.4560740000000  0.5573820000000 1.0
C      1  0.4884620000000  0.4664540000000  0.5047550000000 1.0
C      1  0.5244610000000  0.5729460000000  0.5506580000000 1.0
C      1  0.4556130000000  0.5095890000000  0.4463840000000 1.0
C      1  0.5495830000000  0.4757690000000  0.5464760000000 1.0
C      1  0.4130180000000  0.4831160000000  0.5352310000000 1.0
C      1  0.4846370000000  0.5637520000000  0.4500950000000 1.0
C      1  0.5306670000000  0.4717900000000  0.4862820000000 1.0
C      1  0.4351670000000  0.4647270000000  0.4352790000000 1.0
C      1  0.4237890000000  0.5551340000000  0.5201650000000 1.0
C      1  0.5515520000000  0.4366190000000  0.4966580000000 1.0
C      1  0.4413620000000  0.4317200000000  0.4557300000000 1.0
C      1  0.4989940000000  0.5511760000000  0.5464290000000 1.0
C      1  0.4907390000000  0.4948320000000  0.4131120000000 1.0
END
