TITL C-2778425-5191-822 0.00101413925859403 125000 -339.516726238128 0 0 59 (C1) n - 1
REM
REM in /home/nfs/bkarasulu/CARBON/AIRSS/Generating-Clusters/REBO/Only-C1/SD-CG/HFTN-CG
REM
REM
REM
REM
REM
REM ./C.cell (11c1c37f851c82e70ff6c80c92926a4b)
REM
REM compiler GCC version 9.2.1 20190827 (Red Hat 9.2.1-1)
REM options -cpp -mtune=generic -march=x86-64 -g -O0 -fpre-include=/usr/include/finclude/math-vector-fortran.h
REM seed 1196251191 -504979665 1625749901 908664027 1306013863 -897397027 -669674285 937821582 -735358874 -32243112 1780312081 359769967 -1755417749 -1234161817 -1009872745 123005100 -1968895259 -423486240 1716197703 -1502103830 549653307 -455866565 515233579 -1128594391 -1514636379 397360915 -143945176 285456077 941065082 350175836 1435124209 -1663854702 -1191066796
REM
CELL 1.54180   50.00000   50.00000   50.00000   90.00000   90.00000   90.00000
LATT -1
SFAC C  
C      1  0.4743600000000  0.4581120000000  0.4632170000000 1.0
C      1  0.5386270000000  0.5015110000000  0.5300090000000 1.0
C      1  0.4813680000000  0.5215750000000  0.4622780000000 1.0
C      1  0.4896760000000  0.5388720000000  0.4272030000000 1.0
C      1  0.5774080000000  0.5388700000000  0.5110410000000 1.0
C      1  0.4494150000000  0.5362170000000  0.4956890000000 1.0
C      1  0.4634390000000  0.5608450000000  0.4943210000000 1.0
C      1  0.5065260000000  0.4611170000000  0.5099080000000 1.0
C      1  0.5119880000000  0.4817450000000  0.4524720000000 1.0
C      1  0.4799000000000  0.5665830000000  0.4691910000000 1.0
C      1  0.4923880000000  0.5636730000000  0.5831140000000 1.0
C      1  0.5173210000000  0.5129050000000  0.5130280000000 1.0
C      1  0.4501680000000  0.4957440000000  0.5237360000000 1.0
C      1  0.4930900000000  0.5728400000000  0.5063330000000 1.0
C      1  0.5319240000000  0.4503490000000  0.4941400000000 1.0
C      1  0.4970500000000  0.5852810000000  0.5971920000000 1.0
C      1  0.5275420000000  0.5183700000000  0.4846240000000 1.0
C      1  0.4631740000000  0.4311660000000  0.4694600000000 1.0
C      1  0.5093210000000  0.5675780000000  0.4768800000000 1.0
C      1  0.5006730000000  0.4054810000000  0.4958750000000 1.0
C      1  0.5168890000000  0.5373820000000  0.4344500000000 1.0
C      1  0.4775150000000  0.4947420000000  0.5382050000000 1.0
C      1  0.4745450000000  0.4660700000000  0.5792170000000 1.0
C      1  0.5364820000000  0.4628930000000  0.4637300000000 1.0
C      1  0.5417610000000  0.4940920000000  0.4512310000000 1.0
C      1  0.5689190000000  0.4992300000000  0.5379650000000 1.0
C      1  0.5291880000000  0.4308320000000  0.4672720000000 1.0
C      1  0.4893120000000  0.4235060000000  0.5412320000000 1.0
C      1  0.5258290000000  0.5461300000000  0.4651260000000 1.0
C      1  0.4502680000000  0.4760450000000  0.5003920000000 1.0
C      1  0.4829550000000  0.5199570000000  0.5546320000000 1.0
C      1  0.5081370000000  0.5401950000000  0.5231810000000 1.0
C      1  0.4742590000000  0.4168760000000  0.4964160000000 1.0
C      1  0.4876500000000  0.5417160000000  0.5688090000000 1.0
C      1  0.4805490000000  0.5505370000000  0.5289670000000 1.0
C      1  0.5557210000000  0.5326170000000  0.4876850000000 1.0
C      1  0.4554530000000  0.5189180000000  0.4734700000000 1.0
C      1  0.5860400000000  0.5198270000000  0.5299730000000 1.0
C      1  0.5185000000000  0.4089730000000  0.5182650000000 1.0
C      1  0.5145190000000  0.4084790000000  0.4707590000000 1.0
C      1  0.5415380000000  0.5212900000000  0.4472780000000 1.0
C      1  0.5330860000000  0.4333960000000  0.5208170000000 1.0
C      1  0.5001870000000  0.4493310000000  0.5395010000000 1.0
C      1  0.5251970000000  0.5634340000000  0.5134370000000 1.0
C      1  0.4404020000000  0.5210530000000  0.5182560000000 1.0
C      1  0.4957750000000  0.4923310000000  0.5131250000000 1.0
C      1  0.4572300000000  0.5480260000000  0.5424090000000 1.0
C      1  0.5477460000000  0.4751970000000  0.5456990000000 1.0
C      1  0.4643180000000  0.4924060000000  0.4269850000000 1.0
C      1  0.5059550000000  0.5082950000000  0.4637710000000 1.0
C      1  0.4460790000000  0.4919220000000  0.4724930000000 1.0
C      1  0.4573180000000  0.4774000000000  0.4497960000000 1.0
C      1  0.4542840000000  0.4437210000000  0.4988980000000 1.0
C      1  0.5329840000000  0.4516870000000  0.5443450000000 1.0
C      1  0.4763030000000  0.5153500000000  0.4188980000000 1.0
C      1  0.4821690000000  0.4710580000000  0.4903970000000 1.0
C      1  0.4832560000000  0.4697200000000  0.5546190000000 1.0
C      1  0.4748070000000  0.5580120000000  0.4425180000000 1.0
C      1  0.5515150000000  0.5585210000000  0.5060680000000 1.0
END
