TITL C-2778437-8639-1316 0.164981367870119 125000 -929.853097258313 0 0 158 (C1) n - 1
REM
REM in /home/nfs/bkarasulu/CARBON/AIRSS/Generating-Clusters/REBO/Only-C1/SD-CG/HFTN-CG
REM
REM
REM
REM
REM
REM ./C.cell (11c1c37f851c82e70ff6c80c92926a4b)
REM
REM compiler GCC version 9.2.1 20190827 (Red Hat 9.2.1-1)
REM options -cpp -mtune=generic -march=x86-64 -g -O0 -fpre-include=/usr/include/finclude/math-vector-fortran.h
REM seed 113631441 2034461809 -305265011 -834477738 126628189 1559680043 148750475 271010763 -704628367 -1437451083 1199149965 21846703 -1772714656 -803506006 1514731941 918020416 122395048 -648566709 998899902 -697140197 1962605925 1839929315 642805801 1067837836 -443344926 -898983222 -86986961 -64619300 325731405 -381665661 606765365 1491407678 -441477121
REM
CELL 1.54180   50.00000   50.00000   50.00000   90.00000   90.00000   90.00000
LATT -1
SFAC C  
C      1  0.4889670000000  0.4983840000000  0.5342680000000 1.0
C      1  0.4344440000000  0.5124630000000  0.4080500000000 1.0
C      1  0.6074690000000  0.5011770000000  0.5259930000000 1.0
C      1  0.5222790000000  0.5872750000000  0.5594480000000 1.0
C      1  0.4270140000000  0.5001010000000  0.4447500000000 1.0
C      1  0.4518510000000  0.4779550000000  0.4483650000000 1.0
C      1  0.4121600000000  0.4502970000000  0.4836150000000 1.0
C      1  0.4447180000000  0.4305290000000  0.4376820000000 1.0
C      1  0.4669550000000  0.4623180000000  0.4845280000000 1.0
C      1  0.5261090000000  0.4948190000000  0.3979590000000 1.0
C      1  0.5324450000000  0.4737500000000  0.4418030000000 1.0
C      1  0.5037450000000  0.5739440000000  0.4830590000000 1.0
C      1  0.5023660000000  0.4754670000000  0.3964160000000 1.0
C      1  0.5393550000000  0.4752180000000  0.4918350000000 1.0
C      1  0.4657350000000  0.5484260000000  0.4689570000000 1.0
C      1  0.5381890000000  0.5521700000000  0.5429960000000 1.0
C      1  0.4906260000000  0.5604680000000  0.4574880000000 1.0
C      1  0.5226950000000  0.4009020000000  0.5093320000000 1.0
C      1  0.4404230000000  0.5643650000000  0.4645500000000 1.0
C      1  0.5317040000000  0.5788170000000  0.4367390000000 1.0
C      1  0.5708950000000  0.5494530000000  0.4283360000000 1.0
C      1  0.4338960000000  0.4940890000000  0.5837710000000 1.0
C      1  0.5514730000000  0.4770150000000  0.4629940000000 1.0
C      1  0.4567650000000  0.5164420000000  0.4407150000000 1.0
C      1  0.4432390000000  0.5516440000000  0.5423990000000 1.0
C      1  0.5506720000000  0.4812280000000  0.4070140000000 1.0
C      1  0.4302340000000  0.4291590000000  0.4862750000000 1.0
C      1  0.5428760000000  0.5801360000000  0.4663080000000 1.0
C      1  0.5097140000000  0.4519330000000  0.4183710000000 1.0
C      1  0.4883100000000  0.5288440000000  0.6019050000000 1.0
C      1  0.4052010000000  0.5071810000000  0.5285800000000 1.0
C      1  0.5752960000000  0.5385240000000  0.5157730000000 1.0
C      1  0.5287260000000  0.5260750000000  0.4113850000000 1.0
C      1  0.4576290000000  0.5304840000000  0.5606120000000 1.0
C      1  0.5027610000000  0.4825820000000  0.5074600000000 1.0
C      1  0.4141530000000  0.4712410000000  0.4593480000000 1.0
C      1  0.4131180000000  0.5383360000000  0.5373860000000 1.0
C      1  0.5043140000000  0.5985740000000  0.5402410000000 1.0
C      1  0.5632550000000  0.4514220000000  0.5014390000000 1.0
C      1  0.4489860000000  0.5414600000000  0.4188480000000 1.0
C      1  0.4283800000000  0.5226340000000  0.5864270000000 1.0
C      1  0.5075000000000  0.5200980000000  0.4773160000000 1.0
C      1  0.4841290000000  0.5516150000000  0.5397360000000 1.0
C      1  0.4439420000000  0.4242750000000  0.5114740000000 1.0
C      1  0.4230580000000  0.5493150000000  0.4816440000000 1.0
C      1  0.4277130000000  0.5165670000000  0.4809480000000 1.0
C      1  0.5337460000000  0.4877980000000  0.5395120000000 1.0
C      1  0.4887630000000  0.4991770000000  0.5851480000000 1.0
C      1  0.5733840000000  0.4973400000000  0.4250850000000 1.0
C      1  0.4518660000000  0.4983030000000  0.4758610000000 1.0
C      1  0.5250760000000  0.5945520000000  0.4915810000000 1.0
C      1  0.4020000000000  0.4985280000000  0.4758270000000 1.0
C      1  0.4829760000000  0.5371280000000  0.4190610000000 1.0
C      1  0.4537530000000  0.5444190000000  0.5891950000000 1.0
C      1  0.4759320000000  0.5895760000000  0.4852710000000 1.0
C      1  0.5100710000000  0.5457660000000  0.4975110000000 1.0
C      1  0.4611440000000  0.5872100000000  0.4604730000000 1.0
C      1  0.5668450000000  0.5866950000000  0.5240000000000 1.0
C      1  0.5583130000000  0.4211260000000  0.4759900000000 1.0
C      1  0.4332420000000  0.4669540000000  0.5238690000000 1.0
C      1  0.4976030000000  0.4100550000000  0.5274040000000 1.0
C      1  0.5031810000000  0.4783330000000  0.6058570000000 1.0
C      1  0.4602500000000  0.5697110000000  0.5660580000000 1.0
C      1  0.5157790000000  0.3910190000000  0.4790070000000 1.0
C      1  0.4508720000000  0.5090380000000  0.5187020000000 1.0
C      1  0.5618880000000  0.4408490000000  0.5565780000000 1.0
C      1  0.4676930000000  0.4251350000000  0.4220180000000 1.0
C      1  0.5492150000000  0.4206640000000  0.5082660000000 1.0
C      1  0.5342360000000  0.5244060000000  0.4564130000000 1.0
C      1  0.5044310000000  0.4198520000000  0.5588730000000 1.0
C      1  0.4320290000000  0.4580580000000  0.4333970000000 1.0
C      1  0.4423780000000  0.4793510000000  0.4092870000000 1.0
C      1  0.5716090000000  0.4422740000000  0.4329330000000 1.0
C      1  0.5890310000000  0.5256760000000  0.5397410000000 1.0
C      1  0.5548120000000  0.5213160000000  0.4315230000000 1.0
C      1  0.5797210000000  0.4985950000000  0.5070550000000 1.0
C      1  0.5246810000000  0.5150910000000  0.5402660000000 1.0
C      1  0.4899420000000  0.4378380000000  0.5752650000000 1.0
C      1  0.5611880000000  0.4839930000000  0.5241720000000 1.0
C      1  0.4803940000000  0.5080200000000  0.5040510000000 1.0
C      1  0.4443130000000  0.4198390000000  0.4635490000000 1.0
C      1  0.4558870000000  0.4459560000000  0.5323270000000 1.0
C      1  0.5579240000000  0.5280370000000  0.4806470000000 1.0
C      1  0.4612990000000  0.5555710000000  0.5173860000000 1.0
C      1  0.4842760000000  0.5595710000000  0.5878780000000 1.0
C      1  0.5888610000000  0.4991530000000  0.5613190000000 1.0
C      1  0.4958320000000  0.4033750000000  0.4579040000000 1.0
C      1  0.5465170000000  0.5297810000000  0.5187310000000 1.0
C      1  0.5723450000000  0.4717680000000  0.4426880000000 1.0
C      1  0.4301570000000  0.5318960000000  0.5100690000000 1.0
C      1  0.5310960000000  0.5519930000000  0.5929800000000 1.0
C      1  0.5074470000000  0.4363150000000  0.4990510000000 1.0
C      1  0.5191940000000  0.5351770000000  0.6122010000000 1.0
C      1  0.6136220000000  0.5165720000000  0.4964800000000 1.0
C      1  0.5072580000000  0.5399660000000  0.4427360000000 1.0
C      1  0.4680650000000  0.5092530000000  0.4085700000000 1.0
C      1  0.5130110000000  0.5194170000000  0.5719380000000 1.0
C      1  0.4703990000000  0.4073450000000  0.4742550000000 1.0
C      1  0.5176730000000  0.6058690000000  0.5154510000000 1.0
C      1  0.4770820000000  0.5842780000000  0.5402110000000 1.0
C      1  0.5842720000000  0.5088620000000  0.4554570000000 1.0
C      1  0.4516690000000  0.5031350000000  0.5492870000000 1.0
C      1  0.5758140000000  0.4560350000000  0.5312360000000 1.0
C      1  0.5481110000000  0.5809810000000  0.5445200000000 1.0
C      1  0.4647510000000  0.4856410000000  0.5721250000000 1.0
C      1  0.5842810000000  0.4610640000000  0.4790630000000 1.0
C      1  0.5855170000000  0.4906600000000  0.4787630000000 1.0
C      1  0.4828310000000  0.5850550000000  0.4383080000000 1.0
C      1  0.4897630000000  0.4434310000000  0.5275420000000 1.0
C      1  0.5033070000000  0.4820190000000  0.4355440000000 1.0
C      1  0.5080020000000  0.5057830000000  0.6190820000000 1.0
C      1  0.4701560000000  0.4562960000000  0.5598160000000 1.0
C      1  0.5765000000000  0.4373350000000  0.4624790000000 1.0
C      1  0.5696370000000  0.5246420000000  0.5676980000000 1.0
C      1  0.4087800000000  0.5328920000000  0.5694040000000 1.0
C      1  0.5425950000000  0.5362630000000  0.5689800000000 1.0
C      1  0.4244680000000  0.4890260000000  0.5448270000000 1.0
C      1  0.5006140000000  0.4512750000000  0.5983590000000 1.0
C      1  0.5254810000000  0.4714290000000  0.5652490000000 1.0
C      1  0.5326320000000  0.4247620000000  0.5591150000000 1.0
C      1  0.5033270000000  0.5104300000000  0.4266610000000 1.0
C      1  0.4827910000000  0.4787680000000  0.4596860000000 1.0
C      1  0.5126280000000  0.5714230000000  0.5818930000000 1.0
C      1  0.5902550000000  0.5317570000000  0.4875680000000 1.0
C      1  0.4761240000000  0.4356880000000  0.4908320000000 1.0
C      1  0.4120090000000  0.4766660000000  0.5707570000000 1.0
C      1  0.4747170000000  0.4810360000000  0.3987570000000 1.0
C      1  0.4808950000000  0.5118420000000  0.4644570000000 1.0
C      1  0.5100390000000  0.5429430000000  0.5269620000000 1.0
C      1  0.4634950000000  0.5862210000000  0.5102150000000 1.0
C      1  0.5851440000000  0.5430360000000  0.4560160000000 1.0
C      1  0.5437860000000  0.4523340000000  0.4194150000000 1.0
C      1  0.4509400000000  0.4810180000000  0.5025640000000 1.0
C      1  0.4677400000000  0.5361240000000  0.4946800000000 1.0
C      1  0.5083750000000  0.5933130000000  0.4284880000000 1.0
C      1  0.5733960000000  0.5683430000000  0.4755020000000 1.0
C      1  0.5470650000000  0.4676290000000  0.5820730000000 1.0
C      1  0.4873740000000  0.5219920000000  0.5524850000000 1.0
C      1  0.3974810000000  0.4915170000000  0.5057420000000 1.0
C      1  0.4714670000000  0.4066470000000  0.5083450000000 1.0
C      1  0.4043260000000  0.4616620000000  0.5108670000000 1.0
C      1  0.4952100000000  0.4293510000000  0.4358100000000 1.0
C      1  0.5776150000000  0.4683520000000  0.5690530000000 1.0
C      1  0.5346100000000  0.5087610000000  0.4947760000000 1.0
C      1  0.5377880000000  0.5530620000000  0.4839570000000 1.0
C      1  0.5055130000000  0.4414780000000  0.4644100000000 1.0
C      1  0.6003840000000  0.4737260000000  0.5435200000000 1.0
C      1  0.5396320000000  0.4392060000000  0.5310760000000 1.0
C      1  0.5270160000000  0.4211310000000  0.4754130000000 1.0
C      1  0.4034600000000  0.5199200000000  0.4493230000000 1.0
C      1  0.5083530000000  0.4703100000000  0.4785590000000 1.0
C      1  0.3940300000000  0.4563120000000  0.5626400000000 1.0
C      1  0.4669650000000  0.4192190000000  0.3950180000000 1.0
C      1  0.5762510000000  0.5678510000000  0.5044750000000 1.0
C      1  0.5270260000000  0.4635500000000  0.5208390000000 1.0
C      1  0.4977430000000  0.4701350000000  0.5470940000000 1.0
C      1  0.3892380000000  0.4497940000000  0.5361470000000 1.0
C      1  0.5408320000000  0.5567210000000  0.4209190000000 1.0
END
