TITL C-2778425-5191-863 -0.00259672433582289 125000 -569.546542271957 0 0 99 (C1) n - 1
REM
REM in /home/nfs/bkarasulu/CARBON/AIRSS/Generating-Clusters/REBO/Only-C1/SD-CG/HFTN-CG
REM
REM
REM
REM
REM
REM ./C.cell (11c1c37f851c82e70ff6c80c92926a4b)
REM
REM compiler GCC version 9.2.1 20190827 (Red Hat 9.2.1-1)
REM options -cpp -mtune=generic -march=x86-64 -g -O0 -fpre-include=/usr/include/finclude/math-vector-fortran.h
REM seed -204375554 1485353934 884556165 50867822 78202926 -1643732304 218728566 -2138503309 -1489933366 -2044271879 1227350805 -1134736280 789544419 1316816525 -285183457 -882518764 1329727096 1918131022 -1506924201 -1857182202 -2134609564 -1658571225 2004965529 1707082664 -1296962563 -1350501346 1666397869 623613733 -1629283444 210708298 216432522 -1285217608 205728130
REM
CELL 1.54180   50.00000   50.00000   50.00000   90.00000   90.00000   90.00000
LATT -1
SFAC C  
C      1  0.4864710000000  0.4676490000000  0.5309300000000 1.0
C      1  0.4452610000000  0.4432220000000  0.4999230000000 1.0
C      1  0.5194410000000  0.5289790000000  0.5362780000000 1.0
C      1  0.5644720000000  0.4497210000000  0.5422510000000 1.0
C      1  0.4364540000000  0.4374530000000  0.4505170000000 1.0
C      1  0.5214140000000  0.5757230000000  0.4925810000000 1.0
C      1  0.4696790000000  0.5399910000000  0.5173160000000 1.0
C      1  0.5678210000000  0.5445430000000  0.4808550000000 1.0
C      1  0.5360740000000  0.4435730000000  0.4414500000000 1.0
C      1  0.4457040000000  0.5563960000000  0.4740670000000 1.0
C      1  0.5535080000000  0.4666990000000  0.4422090000000 1.0
C      1  0.4419380000000  0.5365410000000  0.5625900000000 1.0
C      1  0.5108180000000  0.4839430000000  0.4808550000000 1.0
C      1  0.5759980000000  0.4520590000000  0.5165690000000 1.0
C      1  0.5401200000000  0.5668780000000  0.5179880000000 1.0
C      1  0.5293940000000  0.5341030000000  0.4282280000000 1.0
C      1  0.5344240000000  0.4977610000000  0.3973950000000 1.0
C      1  0.5042050000000  0.4992820000000  0.5939310000000 1.0
C      1  0.4511280000000  0.4813600000000  0.5649560000000 1.0
C      1  0.4266070000000  0.5133040000000  0.4632630000000 1.0
C      1  0.5206130000000  0.4249800000000  0.4851840000000 1.0
C      1  0.5400890000000  0.5241410000000  0.5558620000000 1.0
C      1  0.5643770000000  0.5490820000000  0.5137030000000 1.0
C      1  0.4888660000000  0.5398270000000  0.4012190000000 1.0
C      1  0.5465790000000  0.5216770000000  0.4908250000000 1.0
C      1  0.4212900000000  0.4783040000000  0.5047610000000 1.0
C      1  0.4964040000000  0.5691310000000  0.5228010000000 1.0
C      1  0.4794570000000  0.5160370000000  0.4472080000000 1.0
C      1  0.4251080000000  0.4822310000000  0.4708420000000 1.0
C      1  0.4782370000000  0.4920680000000  0.5833780000000 1.0
C      1  0.4571630000000  0.5491540000000  0.4484100000000 1.0
C      1  0.4551040000000  0.4194530000000  0.4412400000000 1.0
C      1  0.5613000000000  0.4952690000000  0.4374870000000 1.0
C      1  0.4433950000000  0.5036350000000  0.4988820000000 1.0
C      1  0.5312310000000  0.4810250000000  0.5258170000000 1.0
C      1  0.5398250000000  0.4923100000000  0.4798100000000 1.0
C      1  0.4643380000000  0.4406460000000  0.5502050000000 1.0
C      1  0.5564140000000  0.4987490000000  0.5136460000000 1.0
C      1  0.5427940000000  0.5100920000000  0.4203950000000 1.0
C      1  0.4565460000000  0.5704490000000  0.5197610000000 1.0
C      1  0.4892330000000  0.4336700000000  0.5325490000000 1.0
C      1  0.5362910000000  0.4839740000000  0.5593660000000 1.0
C      1  0.5061090000000  0.5020940000000  0.5261840000000 1.0
C      1  0.4961410000000  0.4880310000000  0.4533140000000 1.0
C      1  0.4989490000000  0.4131830000000  0.5085220000000 1.0
C      1  0.5543350000000  0.4452830000000  0.4917580000000 1.0
C      1  0.5016450000000  0.5631520000000  0.5527100000000 1.0
C      1  0.4861800000000  0.5552280000000  0.4501500000000 1.0
C      1  0.4702220000000  0.5065460000000  0.4787350000000 1.0
C      1  0.5799650000000  0.5363300000000  0.4580470000000 1.0
C      1  0.5061320000000  0.4554430000000  0.4913410000000 1.0
C      1  0.5302070000000  0.4531300000000  0.5118650000000 1.0
C      1  0.5432150000000  0.4280110000000  0.4651770000000 1.0
C      1  0.5683880000000  0.5268250000000  0.5393090000000 1.0
C      1  0.4752950000000  0.4475350000000  0.4917720000000 1.0
C      1  0.4789610000000  0.4621940000000  0.5695100000000 1.0
C      1  0.4291680000000  0.4778780000000  0.5382990000000 1.0
C      1  0.4708920000000  0.5198370000000  0.5693660000000 1.0
C      1  0.5099740000000  0.4627670000000  0.5553590000000 1.0
C      1  0.5411490000000  0.5561730000000  0.4414340000000 1.0
C      1  0.5091690000000  0.5187570000000  0.4616170000000 1.0
C      1  0.5797370000000  0.5075290000000  0.4569970000000 1.0
C      1  0.5214850000000  0.5372270000000  0.4820810000000 1.0
C      1  0.5387510000000  0.4453170000000  0.5500770000000 1.0
C      1  0.4632430000000  0.4749660000000  0.4794260000000 1.0
C      1  0.5864070000000  0.4986520000000  0.4844410000000 1.0
C      1  0.4253300000000  0.5294860000000  0.5121370000000 1.0
C      1  0.4373460000000  0.5066920000000  0.5498610000000 1.0
C      1  0.4525730000000  0.5672280000000  0.5533890000000 1.0
C      1  0.5328650000000  0.5047280000000  0.5825850000000 1.0
C      1  0.4886460000000  0.4223600000000  0.4773430000000 1.0
C      1  0.4427530000000  0.5236970000000  0.4405400000000 1.0
C      1  0.4599550000000  0.5197790000000  0.5312380000000 1.0
C      1  0.4446880000000  0.4517040000000  0.5300420000000 1.0
C      1  0.5822740000000  0.5201950000000  0.5086270000000 1.0
C      1  0.4964500000000  0.5934580000000  0.5065750000000 1.0
C      1  0.4824450000000  0.4632690000000  0.4436810000000 1.0
C      1  0.4329580000000  0.5491330000000  0.5320050000000 1.0
C      1  0.4602510000000  0.4776140000000  0.5132400000000 1.0
C      1  0.5077550000000  0.4430910000000  0.4350280000000 1.0
C      1  0.5846900000000  0.4706480000000  0.4939380000000 1.0
C      1  0.5633970000000  0.4935630000000  0.5455140000000 1.0
C      1  0.5598960000000  0.4713670000000  0.4721410000000 1.0
C      1  0.4786040000000  0.5518910000000  0.5647200000000 1.0
C      1  0.4494970000000  0.4673970000000  0.4513110000000 1.0
C      1  0.4921340000000  0.5677530000000  0.4763800000000 1.0
C      1  0.4271420000000  0.4489390000000  0.4782670000000 1.0
C      1  0.4271440000000  0.5358950000000  0.4819660000000 1.0
C      1  0.5208220000000  0.4281600000000  0.5298430000000 1.0
C      1  0.4953790000000  0.5060800000000  0.4969560000000 1.0
C      1  0.5524880000000  0.5060690000000  0.6026570000000 1.0
C      1  0.4805190000000  0.4984990000000  0.5440580000000 1.0
C      1  0.4834260000000  0.4265630000000  0.4481220000000 1.0
C      1  0.4075890000000  0.5036300000000  0.5170360000000 1.0
C      1  0.5302660000000  0.5678210000000  0.5437950000000 1.0
C      1  0.5324530000000  0.5623810000000  0.4659760000000 1.0
C      1  0.4660820000000  0.5691720000000  0.4902610000000 1.0
C      1  0.5019210000000  0.5382260000000  0.5085610000000 1.0
C      1  0.4989580000000  0.5363400000000  0.4272090000000 1.0
END
