TITL C-2778434-4341-110 -0.00143923681660909 125000 -906.426608204776 0 0 157 (C1) n - 1
REM
REM in /home/nfs/bkarasulu/CARBON/AIRSS/Generating-Clusters/REBO/Only-C1/SD-CG/HFTN-CG
REM
REM
REM
REM
REM
REM ./C.cell (11c1c37f851c82e70ff6c80c92926a4b)
REM
REM compiler GCC version 9.2.1 20190827 (Red Hat 9.2.1-1)
REM options -cpp -mtune=generic -march=x86-64 -g -O0 -fpre-include=/usr/include/finclude/math-vector-fortran.h
REM seed -859626212 1274868627 1229941232 -1520161751 -1625282348 1072850913 -1445052485 962536599 2119723522 1397747815 -820521809 -2116913388 239231840 1640608981 1704172087 1787247656 -1226565287 1838174827 447098867 282446008 89369255 976265683 632193117 -1479590527 494458734 -792303903 899777526 1770136488 1420469442 -3805399 -1347599155 -227554329 680421684
REM
CELL 1.54180   50.00000   50.00000   50.00000   90.00000   90.00000   90.00000
LATT -1
SFAC C  
C      1  0.4887170000000  0.5712190000000  0.4223510000000 1.0
C      1  0.4683600000000  0.5590670000000  0.5000830000000 1.0
C      1  0.5271430000000  0.5139490000000  0.4532320000000 1.0
C      1  0.5643690000000  0.5249670000000  0.5150620000000 1.0
C      1  0.4871870000000  0.4643890000000  0.4635630000000 1.0
C      1  0.5402340000000  0.5150830000000  0.5607270000000 1.0
C      1  0.4703350000000  0.5960870000000  0.4653990000000 1.0
C      1  0.3481420000000  0.5321720000000  0.5956970000000 1.0
C      1  0.5368320000000  0.4575740000000  0.4925030000000 1.0
C      1  0.5005410000000  0.3797270000000  0.4479350000000 1.0
C      1  0.4922680000000  0.4844900000000  0.5451630000000 1.0
C      1  0.4297550000000  0.5609700000000  0.4851890000000 1.0
C      1  0.5125710000000  0.3993030000000  0.5120930000000 1.0
C      1  0.5414300000000  0.5336650000000  0.5891420000000 1.0
C      1  0.5220300000000  0.5016280000000  0.4908330000000 1.0
C      1  0.5655800000000  0.4523730000000  0.4615750000000 1.0
C      1  0.4634950000000  0.4456690000000  0.4640200000000 1.0
C      1  0.5508870000000  0.5284370000000  0.4198500000000 1.0
C      1  0.4994220000000  0.5708590000000  0.4936450000000 1.0
C      1  0.4734900000000  0.5423570000000  0.4644090000000 1.0
C      1  0.6022030000000  0.5389280000000  0.4618720000000 1.0
C      1  0.5292240000000  0.4353010000000  0.4407730000000 1.0
C      1  0.4651570000000  0.5909290000000  0.4894600000000 1.0
C      1  0.5673400000000  0.5133580000000  0.5897250000000 1.0
C      1  0.4922180000000  0.5251690000000  0.5722460000000 1.0
C      1  0.5224690000000  0.4890960000000  0.4361520000000 1.0
C      1  0.5840380000000  0.4723840000000  0.4571440000000 1.0
C      1  0.4670250000000  0.4594380000000  0.6040920000000 1.0
C      1  0.5365560000000  0.4253070000000  0.5489050000000 1.0
C      1  0.5218990000000  0.5527320000000  0.5962040000000 1.0
C      1  0.4981250000000  0.5591260000000  0.5261940000000 1.0
C      1  0.4824870000000  0.5349620000000  0.5411420000000 1.0
C      1  0.5740510000000  0.5650940000000  0.5491330000000 1.0
C      1  0.4523200000000  0.4817440000000  0.5038630000000 1.0
C      1  0.5358290000000  0.4817700000000  0.5164450000000 1.0
C      1  0.5531270000000  0.4778710000000  0.4130860000000 1.0
C      1  0.5185130000000  0.4870730000000  0.5946130000000 1.0
C      1  0.4967660000000  0.5142600000000  0.5191050000000 1.0
C      1  0.4278060000000  0.5002890000000  0.4903950000000 1.0
C      1  0.4388570000000  0.4321230000000  0.5414650000000 1.0
C      1  0.5398570000000  0.5782990000000  0.4526950000000 1.0
C      1  0.4957180000000  0.5199170000000  0.4781830000000 1.0
C      1  0.4286520000000  0.5373510000000  0.4371630000000 1.0
C      1  0.5658180000000  0.4693140000000  0.5513520000000 1.0
C      1  0.5863400000000  0.5501450000000  0.4968190000000 1.0
C      1  0.6178510000000  0.5300750000000  0.4792110000000 1.0
C      1  0.4475410000000  0.4527300000000  0.5085690000000 1.0
C      1  0.4786890000000  0.4849900000000  0.4855820000000 1.0
C      1  0.5421880000000  0.4969750000000  0.6043960000000 1.0
C      1  0.5102280000000  0.4176680000000  0.5595520000000 1.0
C      1  0.5621910000000  0.5877310000000  0.5264890000000 1.0
C      1  0.5560350000000  0.5921070000000  0.4719050000000 1.0
C      1  0.5920020000000  0.5463190000000  0.5305390000000 1.0
C      1  0.5888030000000  0.4528120000000  0.5323350000000 1.0
C      1  0.5384540000000  0.5419930000000  0.4690930000000 1.0
C      1  0.4688320000000  0.4428230000000  0.5287450000000 1.0
C      1  0.5584990000000  0.5545180000000  0.4370020000000 1.0
C      1  0.4286830000000  0.4863940000000  0.5742240000000 1.0
C      1  0.5058190000000  0.4152680000000  0.4841670000000 1.0
C      1  0.5232110000000  0.5744220000000  0.5727230000000 1.0
C      1  0.4452550000000  0.5324580000000  0.4749180000000 1.0
C      1  0.5127180000000  0.5634000000000  0.4671130000000 1.0
C      1  0.5381370000000  0.4639170000000  0.4530540000000 1.0
C      1  0.4229590000000  0.5310940000000  0.4994530000000 1.0
C      1  0.5694160000000  0.4979370000000  0.5600540000000 1.0
C      1  0.4668490000000  0.4125350000000  0.5390890000000 1.0
C      1  0.4649140000000  0.4131560000000  0.4584350000000 1.0
C      1  0.4650780000000  0.4802250000000  0.5591020000000 1.0
C      1  0.4432980000000  0.3965180000000  0.4703780000000 1.0
C      1  0.5430230000000  0.5344270000000  0.5384350000000 1.0
C      1  0.3913960000000  0.4904180000000  0.4773300000000 1.0
C      1  0.5025730000000  0.4365400000000  0.5790040000000 1.0
C      1  0.4438850000000  0.4239260000000  0.4906510000000 1.0
C      1  0.4553020000000  0.5025380000000  0.4702750000000 1.0
C      1  0.5907920000000  0.4551340000000  0.4924490000000 1.0
C      1  0.5119420000000  0.5012460000000  0.4088580000000 1.0
C      1  0.4872290000000  0.4891580000000  0.3993580000000 1.0
C      1  0.3882080000000  0.5178760000000  0.5647640000000 1.0
C      1  0.5072800000000  0.5381130000000  0.4447060000000 1.0
C      1  0.4772690000000  0.4323380000000  0.4912370000000 1.0
C      1  0.4253530000000  0.4609290000000  0.4210500000000 1.0
C      1  0.5786600000000  0.5360410000000  0.5665950000000 1.0
C      1  0.4439870000000  0.5017320000000  0.5484270000000 1.0
C      1  0.4569940000000  0.4701780000000  0.4187280000000 1.0
C      1  0.5464670000000  0.5496940000000  0.4998510000000 1.0
C      1  0.4582550000000  0.5349390000000  0.4362640000000 1.0
C      1  0.5245790000000  0.5257060000000  0.5135770000000 1.0
C      1  0.4707550000000  0.4827860000000  0.5888610000000 1.0
C      1  0.4744260000000  0.5711430000000  0.5560660000000 1.0
C      1  0.5120770000000  0.5019920000000  0.5581020000000 1.0
C      1  0.5176420000000  0.4311910000000  0.5226440000000 1.0
C      1  0.5417520000000  0.5644060000000  0.5502480000000 1.0
C      1  0.5284950000000  0.5670290000000  0.5207430000000 1.0
C      1  0.4108970000000  0.5097800000000  0.5472480000000 1.0
C      1  0.4943610000000  0.4031890000000  0.5404570000000 1.0
C      1  0.4818340000000  0.4372670000000  0.5977200000000 1.0
C      1  0.4801190000000  0.6072350000000  0.5225910000000 1.0
C      1  0.4034350000000  0.4840270000000  0.5034940000000 1.0
C      1  0.4171010000000  0.4487960000000  0.5206900000000 1.0
C      1  0.4364240000000  0.4628450000000  0.5523950000000 1.0
C      1  0.4529660000000  0.5511450000000  0.5388720000000 1.0
C      1  0.4956080000000  0.4489120000000  0.5147290000000 1.0
C      1  0.3681050000000  0.5250490000000  0.5802840000000 1.0
C      1  0.5429770000000  0.4143960000000  0.5075310000000 1.0
C      1  0.5718690000000  0.4980590000000  0.4533100000000 1.0
C      1  0.4049190000000  0.4968430000000  0.4533840000000 1.0
C      1  0.5034980000000  0.5980400000000  0.5109380000000 1.0
C      1  0.5664990000000  0.5767130000000  0.4970780000000 1.0
C      1  0.4930000000000  0.5476510000000  0.4086060000000 1.0
C      1  0.4879190000000  0.5101620000000  0.4464200000000 1.0
C      1  0.4313650000000  0.4797110000000  0.4478910000000 1.0
C      1  0.5298060000000  0.4306590000000  0.4734880000000 1.0
C      1  0.5718410000000  0.5477160000000  0.4659150000000 1.0
C      1  0.4738310000000  0.5297460000000  0.5024640000000 1.0
C      1  0.5331720000000  0.4698200000000  0.5472160000000 1.0
C      1  0.5152310000000  0.4738160000000  0.4738250000000 1.0
C      1  0.4365770000000  0.5638780000000  0.4525560000000 1.0
C      1  0.5670980000000  0.4951190000000  0.5128630000000 1.0
C      1  0.5629460000000  0.4360240000000  0.5458020000000 1.0
C      1  0.4905090000000  0.4017580000000  0.4610400000000 1.0
C      1  0.5908640000000  0.5146870000000  0.5430620000000 1.0
C      1  0.5204510000000  0.5314440000000  0.4076120000000 1.0
C      1  0.5675960000000  0.4660840000000  0.4989620000000 1.0
C      1  0.5613020000000  0.5024160000000  0.4258940000000 1.0
C      1  0.4639060000000  0.5051710000000  0.4008370000000 1.0
C      1  0.5220510000000  0.4624550000000  0.5764920000000 1.0
C      1  0.4272820000000  0.5323960000000  0.5299250000000 1.0
C      1  0.4616210000000  0.5896900000000  0.5330750000000 1.0
C      1  0.4119430000000  0.4792700000000  0.5349960000000 1.0
C      1  0.5052040000000  0.5840490000000  0.5482290000000 1.0
C      1  0.6077010000000  0.5256070000000  0.5085910000000 1.0
C      1  0.4380210000000  0.4615310000000  0.4706850000000 1.0
C      1  0.6000550000000  0.4963880000000  0.5183680000000 1.0
C      1  0.4136110000000  0.4495880000000  0.4882090000000 1.0
C      1  0.4409390000000  0.5718640000000  0.5145020000000 1.0
C      1  0.5306010000000  0.5988680000000  0.5303960000000 1.0
C      1  0.4836390000000  0.4594100000000  0.4094020000000 1.0
C      1  0.5733810000000  0.4275760000000  0.5153730000000 1.0
C      1  0.4605600000000  0.4952440000000  0.4398320000000 1.0
C      1  0.5624140000000  0.4284980000000  0.4833280000000 1.0
C      1  0.4704100000000  0.5305210000000  0.4114670000000 1.0
C      1  0.4952420000000  0.4807300000000  0.5134810000000 1.0
C      1  0.4333960000000  0.4934370000000  0.4105560000000 1.0
C      1  0.4693270000000  0.5715810000000  0.4470210000000 1.0
C      1  0.5092850000000  0.4399450000000  0.4143440000000 1.0
C      1  0.4530950000000  0.5121920000000  0.5187780000000 1.0
C      1  0.5017710000000  0.4647130000000  0.4368690000000 1.0
C      1  0.6091950000000  0.4703370000000  0.5244170000000 1.0
C      1  0.5406500000000  0.4426480000000  0.5893980000000 1.0
C      1  0.4189960000000  0.4270470000000  0.4665900000000 1.0
C      1  0.4945350000000  0.5569120000000  0.5760380000000 1.0
C      1  0.5514770000000  0.5051730000000  0.4733710000000 1.0
C      1  0.5261310000000  0.5584240000000  0.4283760000000 1.0
C      1  0.5400620000000  0.4545230000000  0.4143650000000 1.0
C      1  0.4167990000000  0.5124390000000  0.4302830000000 1.0
C      1  0.4185360000000  0.4351890000000  0.4401880000000 1.0
C      1  0.4928730000000  0.5000850000000  0.5928340000000 1.0
END
