TITL C-2778426-5645-646 -0.00383024176527361 125000 -663.088061169517 0 0 116 (C1) n - 1
REM
REM in /home/nfs/bkarasulu/CARBON/AIRSS/Generating-Clusters/REBO/Only-C1/SD-CG/HFTN-CG
REM
REM
REM
REM
REM
REM ./C.cell (11c1c37f851c82e70ff6c80c92926a4b)
REM
REM compiler GCC version 9.2.1 20190827 (Red Hat 9.2.1-1)
REM options -cpp -mtune=generic -march=x86-64 -g -O0 -fpre-include=/usr/include/finclude/math-vector-fortran.h
REM seed -1580624691 -1120540386 1863605143 -134931423 -341029067 635211689 661395616 640234434 733316695 -193435875 -1554580867 -1575268339 -524822916 -516562499 1252893266 1229593509 -1322397837 -1547296992 -1908605616 -1121812028 1506907738 -1789900687 -352414321 1958127403 950249418 1960380144 2071845009 396789571 -1948366149 1393863111 -1415519653 -1575397449 -626911438
REM
CELL 1.54180   50.00000   50.00000   50.00000   90.00000   90.00000   90.00000
LATT -1
SFAC C  
C      1  0.5826900000000  0.5097410000000  0.4508360000000 1.0
C      1  0.4541670000000  0.5664800000000  0.4674520000000 1.0
C      1  0.4162040000000  0.4973670000000  0.4432860000000 1.0
C      1  0.4662340000000  0.5319960000000  0.4833490000000 1.0
C      1  0.4663190000000  0.4458020000000  0.4183110000000 1.0
C      1  0.4524740000000  0.5015430000000  0.5150140000000 1.0
C      1  0.4999670000000  0.3966470000000  0.4870390000000 1.0
C      1  0.4374670000000  0.4579270000000  0.5132030000000 1.0
C      1  0.5091500000000  0.5283510000000  0.5898390000000 1.0
C      1  0.5328050000000  0.5792180000000  0.4703070000000 1.0
C      1  0.5527410000000  0.5745290000000  0.4928100000000 1.0
C      1  0.4986010000000  0.5350370000000  0.4507040000000 1.0
C      1  0.4127490000000  0.4769010000000  0.4991960000000 1.0
C      1  0.5605460000000  0.4661090000000  0.4629700000000 1.0
C      1  0.5403060000000  0.4508000000000  0.5349760000000 1.0
C      1  0.5460870000000  0.4725420000000  0.4898470000000 1.0
C      1  0.4979010000000  0.4713760000000  0.5652130000000 1.0
C      1  0.4694990000000  0.4523330000000  0.5015040000000 1.0
C      1  0.5335020000000  0.5338620000000  0.4709120000000 1.0
C      1  0.5350190000000  0.5404170000000  0.5232510000000 1.0
C      1  0.5169930000000  0.5159750000000  0.5136810000000 1.0
C      1  0.4405300000000  0.5423390000000  0.5018610000000 1.0
C      1  0.4550460000000  0.4374040000000  0.5350480000000 1.0
C      1  0.4898570000000  0.4411530000000  0.4318850000000 1.0
C      1  0.4037880000000  0.4969290000000  0.5198900000000 1.0
C      1  0.5072640000000  0.5797960000000  0.5319490000000 1.0
C      1  0.4544220000000  0.5206210000000  0.4229120000000 1.0
C      1  0.5753300000000  0.5027100000000  0.4894960000000 1.0
C      1  0.5110440000000  0.5409890000000  0.4917870000000 1.0
C      1  0.5331320000000  0.5409080000000  0.5782280000000 1.0
C      1  0.4671300000000  0.4583680000000  0.5587640000000 1.0
C      1  0.5719980000000  0.5535390000000  0.4931800000000 1.0
C      1  0.4284810000000  0.5018310000000  0.5392170000000 1.0
C      1  0.5858700000000  0.4738190000000  0.4902860000000 1.0
C      1  0.4080270000000  0.5277700000000  0.4838940000000 1.0
C      1  0.5345950000000  0.5582040000000  0.4485710000000 1.0
C      1  0.4553240000000  0.5210590000000  0.5609580000000 1.0
C      1  0.5373670000000  0.4998730000000  0.5502870000000 1.0
C      1  0.5412520000000  0.4472780000000  0.4436310000000 1.0
C      1  0.5962280000000  0.5300100000000  0.4980940000000 1.0
C      1  0.5385850000000  0.4958840000000  0.5030370000000 1.0
C      1  0.5762080000000  0.5265860000000  0.5485970000000 1.0
C      1  0.4683160000000  0.5285680000000  0.5156120000000 1.0
C      1  0.5406710000000  0.4573110000000  0.5817960000000 1.0
C      1  0.4853040000000  0.5067290000000  0.4190730000000 1.0
C      1  0.4551600000000  0.4163170000000  0.5107980000000 1.0
C      1  0.5063050000000  0.4723590000000  0.5039060000000 1.0
C      1  0.4737070000000  0.4713670000000  0.4667990000000 1.0
C      1  0.5590280000000  0.5273270000000  0.4845980000000 1.0
C      1  0.5098990000000  0.4138670000000  0.5124500000000 1.0
C      1  0.4465240000000  0.4932070000000  0.4859410000000 1.0
C      1  0.4714200000000  0.4761270000000  0.5232060000000 1.0
C      1  0.5158990000000  0.4302110000000  0.5409290000000 1.0
C      1  0.4536870000000  0.4708150000000  0.4208200000000 1.0
C      1  0.5314560000000  0.4096970000000  0.4863570000000 1.0
C      1  0.5059610000000  0.5704960000000  0.4068250000000 1.0
C      1  0.5131870000000  0.5514560000000  0.4251670000000 1.0
C      1  0.4882090000000  0.4436220000000  0.4622870000000 1.0
C      1  0.5124680000000  0.4870490000000  0.4124010000000 1.0
C      1  0.4735190000000  0.4237040000000  0.4828190000000 1.0
C      1  0.5988880000000  0.5230350000000  0.4648020000000 1.0
C      1  0.4744170000000  0.4988740000000  0.5482260000000 1.0
C      1  0.4349150000000  0.5354090000000  0.5404550000000 1.0
C      1  0.5255840000000  0.5664540000000  0.5084400000000 1.0
C      1  0.4752620000000  0.5760930000000  0.5433310000000 1.0
C      1  0.5289450000000  0.5648310000000  0.5541080000000 1.0
C      1  0.5484420000000  0.4501830000000  0.5065640000000 1.0
C      1  0.5239970000000  0.4868540000000  0.4584090000000 1.0
C      1  0.4711780000000  0.4900210000000  0.4417120000000 1.0
C      1  0.4441130000000  0.5437650000000  0.4436010000000 1.0
C      1  0.4151620000000  0.5271670000000  0.4513220000000 1.0
C      1  0.4875200000000  0.4348680000000  0.5245590000000 1.0
C      1  0.5537700000000  0.4978780000000  0.4435580000000 1.0
C      1  0.5121340000000  0.4618900000000  0.4727190000000 1.0
C      1  0.5087400000000  0.4965510000000  0.5861800000000 1.0
C      1  0.5010590000000  0.5495250000000  0.5570470000000 1.0
C      1  0.5869680000000  0.4616480000000  0.5444170000000 1.0
C      1  0.4826960000000  0.5682300000000  0.5757500000000 1.0
C      1  0.4604480000000  0.5272870000000  0.5869890000000 1.0
C      1  0.4498870000000  0.5628910000000  0.5270300000000 1.0
C      1  0.5848350000000  0.4834310000000  0.5228400000000 1.0
C      1  0.5657750000000  0.4501850000000  0.5521040000000 1.0
C      1  0.5535630000000  0.5184900000000  0.5722390000000 1.0
C      1  0.5903330000000  0.5148110000000  0.5266550000000 1.0
C      1  0.5581600000000  0.4254860000000  0.4931030000000 1.0
C      1  0.4901200000000  0.5838920000000  0.5028100000000 1.0
C      1  0.4899920000000  0.4920250000000  0.4854530000000 1.0
C      1  0.4624080000000  0.4852500000000  0.5770400000000 1.0
C      1  0.5049960000000  0.5014870000000  0.5399560000000 1.0
C      1  0.5182420000000  0.4469160000000  0.5679620000000 1.0
C      1  0.4850500000000  0.5446670000000  0.5321710000000 1.0
C      1  0.4428410000000  0.4744770000000  0.5425420000000 1.0
C      1  0.5419770000000  0.4754230000000  0.4248130000000 1.0
C      1  0.4288060000000  0.4418580000000  0.4710330000000 1.0
C      1  0.4128080000000  0.5289170000000  0.5148960000000 1.0
C      1  0.5146110000000  0.4697730000000  0.5353430000000 1.0
C      1  0.4632380000000  0.5749560000000  0.4991460000000 1.0
C      1  0.5145530000000  0.5197790000000  0.4174810000000 1.0
C      1  0.5059160000000  0.5831640000000  0.4778820000000 1.0
C      1  0.5552160000000  0.5466940000000  0.5440890000000 1.0
C      1  0.5780690000000  0.4449460000000  0.4803490000000 1.0
C      1  0.4364890000000  0.4959200000000  0.4231290000000 1.0
C      1  0.4599530000000  0.5088800000000  0.4655590000000 1.0
C      1  0.5375420000000  0.4222840000000  0.4572090000000 1.0
C      1  0.4804690000000  0.4880240000000  0.5978830000000 1.0
C      1  0.5402540000000  0.4884820000000  0.5814380000000 1.0
C      1  0.4863950000000  0.5554790000000  0.4730660000000 1.0
C      1  0.5150370000000  0.4548630000000  0.4232040000000 1.0
C      1  0.5350620000000  0.5222160000000  0.4411190000000 1.0
C      1  0.5551770000000  0.4960010000000  0.5268990000000 1.0
C      1  0.4839620000000  0.5424620000000  0.5923320000000 1.0
C      1  0.4421110000000  0.4660500000000  0.4744840000000 1.0
C      1  0.4086900000000  0.4950210000000  0.4740350000000 1.0
C      1  0.4430990000000  0.4184030000000  0.4728810000000 1.0
C      1  0.5034600000000  0.5091860000000  0.4618560000000 1.0
C      1  0.4230510000000  0.5543970000000  0.4687250000000 1.0
END
