TITL C-2778428-5639-1389 0.000864064661460068 125000 -1150.33687390575 0 0 198 (C1) n - 1
REM
REM in /home/nfs/bkarasulu/CARBON/AIRSS/Generating-Clusters/REBO/Only-C1/SD-CG/HFTN-CG
REM
REM
REM
REM
REM
REM ./C.cell (11c1c37f851c82e70ff6c80c92926a4b)
REM
REM compiler GCC version 9.2.1 20190827 (Red Hat 9.2.1-1)
REM options -cpp -mtune=generic -march=x86-64 -g -O0 -fpre-include=/usr/include/finclude/math-vector-fortran.h
REM seed 1143108968 837830330 1979752059 815403857 868986287 -1676896883 -273442579 1207379987 1282634663 -2052425083 -1636850550 1232074492 1609904445 2016961415 1797668737 313926834 -1191881306 -450094900 2061302371 2102797081 1602155007 1324215098 -1758042236 -1196162618 -1397956170 -735371141 1192234740 305730702 1110872135 1776686585 -168840852 269719499 -585295846
REM
CELL 1.54180   50.00000   50.00000   50.00000   90.00000   90.00000   90.00000
LATT -1
SFAC C  
C      1  0.4967760000000  0.4511560000000  0.5372920000000 1.0
C      1  0.4640880000000  0.5335570000000  0.5172880000000 1.0
C      1  0.4890360000000  0.4179380000000  0.4319950000000 1.0
C      1  0.4845660000000  0.5457990000000  0.4311260000000 1.0
C      1  0.4626560000000  0.3880890000000  0.4672600000000 1.0
C      1  0.5559730000000  0.5717660000000  0.5748020000000 1.0
C      1  0.4680410000000  0.6179750000000  0.4888950000000 1.0
C      1  0.4565010000000  0.4704250000000  0.5617550000000 1.0
C      1  0.5086510000000  0.4228370000000  0.4111430000000 1.0
C      1  0.3989270000000  0.5136400000000  0.5400580000000 1.0
C      1  0.5667860000000  0.5176360000000  0.5445370000000 1.0
C      1  0.5073960000000  0.5730880000000  0.4752780000000 1.0
C      1  0.4504800000000  0.4518920000000  0.4281770000000 1.0
C      1  0.4199120000000  0.5660830000000  0.5355610000000 1.0
C      1  0.4303720000000  0.4897830000000  0.5193940000000 1.0
C      1  0.5371360000000  0.4563420000000  0.4123730000000 1.0
C      1  0.5791530000000  0.5791920000000  0.5435140000000 1.0
C      1  0.4901910000000  0.4277140000000  0.4863330000000 1.0
C      1  0.4940560000000  0.3754540000000  0.4711510000000 1.0
C      1  0.4659290000000  0.5635930000000  0.4007730000000 1.0
C      1  0.5518730000000  0.4185200000000  0.5168800000000 1.0
C      1  0.5147480000000  0.5718970000000  0.5074770000000 1.0
C      1  0.5195810000000  0.5373980000000  0.5648660000000 1.0
C      1  0.5669050000000  0.5006050000000  0.4852790000000 1.0
C      1  0.4539080000000  0.6008620000000  0.5137660000000 1.0
C      1  0.4392040000000  0.4758390000000  0.6053040000000 1.0
C      1  0.5982720000000  0.4797290000000  0.5274360000000 1.0
C      1  0.5584570000000  0.4927360000000  0.4294890000000 1.0
C      1  0.5898470000000  0.5610470000000  0.5679690000000 1.0
C      1  0.4355920000000  0.5300780000000  0.5827870000000 1.0
C      1  0.5138710000000  0.4076280000000  0.5720550000000 1.0
C      1  0.4887830000000  0.5965390000000  0.4488530000000 1.0
C      1  0.4349010000000  0.4617320000000  0.5806810000000 1.0
C      1  0.4220650000000  0.5204940000000  0.5554050000000 1.0
C      1  0.4632000000000  0.5778640000000  0.5566770000000 1.0
C      1  0.5258560000000  0.5403340000000  0.3939160000000 1.0
C      1  0.4973910000000  0.4401610000000  0.3904500000000 1.0
C      1  0.5383930000000  0.5139200000000  0.5099120000000 1.0
C      1  0.5891300000000  0.4986480000000  0.4161260000000 1.0
C      1  0.5304000000000  0.4589580000000  0.4931460000000 1.0
C      1  0.5262250000000  0.4789360000000  0.6055020000000 1.0
C      1  0.4708540000000  0.4439920000000  0.5531750000000 1.0
C      1  0.5354470000000  0.4169670000000  0.4190760000000 1.0
C      1  0.5636040000000  0.4703640000000  0.5112000000000 1.0
C      1  0.4640130000000  0.4295410000000  0.4263530000000 1.0
C      1  0.4464940000000  0.5403080000000  0.4565980000000 1.0
C      1  0.3909330000000  0.5202130000000  0.5112030000000 1.0
C      1  0.4879510000000  0.5778690000000  0.4203300000000 1.0
C      1  0.4725320000000  0.5257980000000  0.5591540000000 1.0
C      1  0.4110770000000  0.5402170000000  0.4969380000000 1.0
C      1  0.4482600000000  0.5077670000000  0.5431970000000 1.0
C      1  0.4890390000000  0.5508250000000  0.5430550000000 1.0
C      1  0.5307360000000  0.5877150000000  0.5333210000000 1.0
C      1  0.5439270000000  0.5468070000000  0.4091040000000 1.0
C      1  0.5706370000000  0.5521290000000  0.5934050000000 1.0
C      1  0.3857890000000  0.4831250000000  0.4982700000000 1.0
C      1  0.5034170000000  0.5174860000000  0.3861720000000 1.0
C      1  0.4791520000000  0.4324930000000  0.5160030000000 1.0
C      1  0.4958100000000  0.3832360000000  0.5113670000000 1.0
C      1  0.4892610000000  0.4604670000000  0.4288550000000 1.0
C      1  0.4857890000000  0.4545170000000  0.6027630000000 1.0
C      1  0.5283260000000  0.4352880000000  0.5753540000000 1.0
C      1  0.5414310000000  0.5529220000000  0.5173980000000 1.0
C      1  0.5618860000000  0.4368740000000  0.4192680000000 1.0
C      1  0.5654320000000  0.5496390000000  0.5384830000000 1.0
C      1  0.3932510000000  0.4596910000000  0.5431870000000 1.0
C      1  0.5625220000000  0.4326800000000  0.4530330000000 1.0
C      1  0.4531910000000  0.5925780000000  0.4728090000000 1.0
C      1  0.5037550000000  0.4922550000000  0.5641240000000 1.0
C      1  0.4506330000000  0.5585220000000  0.5357470000000 1.0
C      1  0.5343010000000  0.4253600000000  0.4678100000000 1.0
C      1  0.4442470000000  0.4899230000000  0.4684510000000 1.0
C      1  0.5551160000000  0.5322600000000  0.4584020000000 1.0
C      1  0.4736860000000  0.4938940000000  0.5712530000000 1.0
C      1  0.4356080000000  0.5214600000000  0.5079090000000 1.0
C      1  0.4720220000000  0.5149520000000  0.3917660000000 1.0
C      1  0.6054700000000  0.5384720000000  0.5268470000000 1.0
C      1  0.5064910000000  0.6077250000000  0.5213880000000 1.0
C      1  0.5095110000000  0.5333680000000  0.4489200000000 1.0
C      1  0.5580810000000  0.4706630000000  0.4775300000000 1.0
C      1  0.4655290000000  0.4626770000000  0.5129280000000 1.0
C      1  0.4379140000000  0.4031890000000  0.4600580000000 1.0
C      1  0.4487890000000  0.4164290000000  0.5719720000000 1.0
C      1  0.4821530000000  0.5867000000000  0.4901190000000 1.0
C      1  0.5361800000000  0.4844430000000  0.5559410000000 1.0
C      1  0.4700380000000  0.3692380000000  0.4946100000000 1.0
C      1  0.5108250000000  0.4487810000000  0.4598590000000 1.0
C      1  0.4768040000000  0.5033660000000  0.6229170000000 1.0
C      1  0.4195780000000  0.4686990000000  0.4452700000000 1.0
C      1  0.5278950000000  0.3852610000000  0.5704820000000 1.0
C      1  0.5183140000000  0.5637260000000  0.4475610000000 1.0
C      1  0.3996020000000  0.4962840000000  0.4482560000000 1.0
C      1  0.5742020000000  0.5824900000000  0.4971570000000 1.0
C      1  0.4572300000000  0.5024400000000  0.4928660000000 1.0
C      1  0.5926920000000  0.5702240000000  0.4713260000000 1.0
C      1  0.5219080000000  0.5353020000000  0.4940210000000 1.0
C      1  0.5606730000000  0.4649630000000  0.4476590000000 1.0
C      1  0.4762010000000  0.4498490000000  0.4585570000000 1.0
C      1  0.5328710000000  0.5681670000000  0.5591420000000 1.0
C      1  0.5875280000000  0.4486820000000  0.5222640000000 1.0
C      1  0.4317160000000  0.4743910000000  0.4139060000000 1.0
C      1  0.4794600000000  0.5648560000000  0.4569120000000 1.0
C      1  0.5618150000000  0.5749650000000  0.4600810000000 1.0
C      1  0.5810100000000  0.5538720000000  0.5086490000000 1.0
C      1  0.4115430000000  0.4397720000000  0.5458560000000 1.0
C      1  0.5494320000000  0.5120150000000  0.5732450000000 1.0
C      1  0.5417520000000  0.5036500000000  0.4619610000000 1.0
C      1  0.4832610000000  0.5082190000000  0.5233910000000 1.0
C      1  0.4640710000000  0.5521340000000  0.4820590000000 1.0
C      1  0.5717190000000  0.4278260000000  0.5401000000000 1.0
C      1  0.5199210000000  0.4797770000000  0.4705120000000 1.0
C      1  0.5199600000000  0.5804000000000  0.4176650000000 1.0
C      1  0.4872130000000  0.5636950000000  0.5740720000000 1.0
C      1  0.4869330000000  0.5299280000000  0.6138100000000 1.0
C      1  0.4888140000000  0.5342650000000  0.4936460000000 1.0
C      1  0.5417150000000  0.4476120000000  0.5230310000000 1.0
C      1  0.5930810000000  0.4991680000000  0.4484410000000 1.0
C      1  0.4275490000000  0.5050060000000  0.6045590000000 1.0
C      1  0.4068150000000  0.5258790000000  0.4375770000000 1.0
C      1  0.5214070000000  0.4979280000000  0.4353030000000 1.0
C      1  0.4289310000000  0.4354510000000  0.5214850000000 1.0
C      1  0.4730660000000  0.4349500000000  0.5853510000000 1.0
C      1  0.5025160000000  0.5196970000000  0.4187270000000 1.0
C      1  0.5959200000000  0.4763590000000  0.4626640000000 1.0
C      1  0.4593400000000  0.5086080000000  0.5945740000000 1.0
C      1  0.4852780000000  0.5735700000000  0.5214180000000 1.0
C      1  0.4693580000000  0.3759320000000  0.5279420000000 1.0
C      1  0.4470050000000  0.5029130000000  0.4201100000000 1.0
C      1  0.4372960000000  0.5301520000000  0.4269730000000 1.0
C      1  0.3882640000000  0.4650960000000  0.4558890000000 1.0
C      1  0.5602890000000  0.5953060000000  0.5252260000000 1.0
C      1  0.5984460000000  0.4624110000000  0.4933980000000 1.0
C      1  0.4514360000000  0.5573460000000  0.5816550000000 1.0
C      1  0.5025650000000  0.6118530000000  0.4668110000000 1.0
C      1  0.4670050000000  0.4825320000000  0.5335100000000 1.0
C      1  0.4809280000000  0.4611580000000  0.3999050000000 1.0
C      1  0.5974710000000  0.4962600000000  0.4990570000000 1.0
C      1  0.5935260000000  0.5117380000000  0.5946150000000 1.0
C      1  0.5936030000000  0.5300520000000  0.4204550000000 1.0
C      1  0.5853810000000  0.4909730000000  0.5513580000000 1.0
C      1  0.4873360000000  0.4944500000000  0.4938710000000 1.0
C      1  0.5083000000000  0.4051090000000  0.5009510000000 1.0
C      1  0.4679700000000  0.4748610000000  0.6141700000000 1.0
C      1  0.6043750000000  0.5372780000000  0.5547270000000 1.0
C      1  0.4611370000000  0.3959120000000  0.5477950000000 1.0
C      1  0.5000610000000  0.5123520000000  0.4698410000000 1.0
C      1  0.5692320000000  0.5220080000000  0.5105190000000 1.0
C      1  0.4495800000000  0.5684500000000  0.5042190000000 1.0
C      1  0.4587990000000  0.4823570000000  0.4420180000000 1.0
C      1  0.4906750000000  0.4618110000000  0.4916830000000 1.0
C      1  0.5223290000000  0.5042140000000  0.5876870000000 1.0
C      1  0.5678880000000  0.5242500000000  0.5954890000000 1.0
C      1  0.4541620000000  0.4235720000000  0.5330940000000 1.0
C      1  0.4600550000000  0.4833550000000  0.3959810000000 1.0
C      1  0.4433750000000  0.4556130000000  0.4673450000000 1.0
C      1  0.5889100000000  0.4445660000000  0.4668470000000 1.0
C      1  0.5431250000000  0.5881010000000  0.4851790000000 1.0
C      1  0.5102960000000  0.4713650000000  0.5168020000000 1.0
C      1  0.5651270000000  0.5439530000000  0.4306320000000 1.0
C      1  0.4100300000000  0.5672990000000  0.5098300000000 1.0
C      1  0.3787470000000  0.4625400000000  0.4814310000000 1.0
C      1  0.4274790000000  0.5152690000000  0.4694430000000 1.0
C      1  0.4257450000000  0.4364010000000  0.5703220000000 1.0
C      1  0.5653310000000  0.4696390000000  0.5635050000000 1.0
C      1  0.4081180000000  0.5441000000000  0.4651980000000 1.0
C      1  0.5459250000000  0.5788490000000  0.4340970000000 1.0
C      1  0.4243970000000  0.5870680000000  0.4902000000000 1.0
C      1  0.4157700000000  0.4245550000000  0.4948900000000 1.0
C      1  0.5063220000000  0.5139040000000  0.5417270000000 1.0
C      1  0.3965220000000  0.5070680000000  0.4803590000000 1.0
C      1  0.6009190000000  0.5398390000000  0.4770060000000 1.0
C      1  0.4309470000000  0.5692290000000  0.4624630000000 1.0
C      1  0.4289390000000  0.4262620000000  0.4709240000000 1.0
C      1  0.4371520000000  0.4617040000000  0.5010370000000 1.0
C      1  0.5942980000000  0.5580090000000  0.4398720000000 1.0
C      1  0.4767330000000  0.6018390000000  0.5369500000000 1.0
C      1  0.5352210000000  0.4108580000000  0.4951850000000 1.0
C      1  0.5120650000000  0.5006380000000  0.3657850000000 1.0
C      1  0.4897780000000  0.4073830000000  0.4605050000000 1.0
C      1  0.5182020000000  0.5416920000000  0.5331380000000 1.0
C      1  0.4838180000000  0.4078880000000  0.5702490000000 1.0
C      1  0.5423960000000  0.5542700000000  0.4778770000000 1.0
C      1  0.5186260000000  0.6079090000000  0.4909150000000 1.0
C      1  0.3988700000000  0.4839610000000  0.5256570000000 1.0
C      1  0.6077130000000  0.5253260000000  0.5001910000000 1.0
C      1  0.4767290000000  0.5551920000000  0.6027750000000 1.0
C      1  0.6024600000000  0.5116640000000  0.5675340000000 1.0
C      1  0.4902520000000  0.4880080000000  0.4481720000000 1.0
C      1  0.5141010000000  0.4551140000000  0.5989500000000 1.0
C      1  0.5200120000000  0.4666590000000  0.4321320000000 1.0
C      1  0.5360250000000  0.4042330000000  0.4437650000000 1.0
C      1  0.4964210000000  0.5260590000000  0.5837920000000 1.0
C      1  0.5860040000000  0.5240930000000  0.4592430000000 1.0
C      1  0.5253990000000  0.4527560000000  0.5487220000000 1.0
C      1  0.4574770000000  0.5374350000000  0.4029160000000 1.0
C      1  0.5763450000000  0.4669820000000  0.4169330000000 1.0
C      1  0.5371950000000  0.4872890000000  0.5228340000000 1.0
C      1  0.5601360000000  0.4405660000000  0.5638710000000 1.0
END
