TITL C-2778430-5657-90 -0.00133042233753817 125000 -426.135532123358 0 0 74 (C1) n - 1
REM
REM in /home/nfs/bkarasulu/CARBON/AIRSS/Generating-Clusters/REBO/Only-C1/SD-CG/HFTN-CG
REM
REM
REM
REM
REM
REM ./C.cell (11c1c37f851c82e70ff6c80c92926a4b)
REM
REM compiler GCC version 9.2.1 20190827 (Red Hat 9.2.1-1)
REM options -cpp -mtune=generic -march=x86-64 -g -O0 -fpre-include=/usr/include/finclude/math-vector-fortran.h
REM seed -1178851201 1309011995 -450483062 1081188908 2064857490 -677975450 1086980893 -751585949 1098115932 250646039 -1022168094 -1793949877 1297937191 -2065834269 1698327508 7120143 -324711875 -1072804305 -913398626 -1237758649 -1680868261 -1101492364 1636726357 1777797828 307854503 1718213383 -161006141 -96959356 854114186 1559160988 827819641 -1336612375 507424748
REM
CELL 1.54180   50.00000   50.00000   50.00000   90.00000   90.00000   90.00000
LATT -1
SFAC C  
C      1  0.4960780000000  0.4724470000000  0.5586600000000 1.0
C      1  0.5403280000000  0.5063420000000  0.5556800000000 1.0
C      1  0.4493100000000  0.5356660000000  0.5143180000000 1.0
C      1  0.5520860000000  0.5454910000000  0.5218920000000 1.0
C      1  0.5037780000000  0.4348740000000  0.5053590000000 1.0
C      1  0.4572910000000  0.4552750000000  0.5902760000000 1.0
C      1  0.4617050000000  0.5019570000000  0.5318870000000 1.0
C      1  0.5002530000000  0.4956480000000  0.4938040000000 1.0
C      1  0.4435690000000  0.5458720000000  0.5404490000000 1.0
C      1  0.4848530000000  0.4527530000000  0.5840580000000 1.0
C      1  0.4872160000000  0.5235330000000  0.4410570000000 1.0
C      1  0.5401710000000  0.4497380000000  0.4459810000000 1.0
C      1  0.4418440000000  0.4641920000000  0.5678820000000 1.0
C      1  0.5501530000000  0.4405690000000  0.4730560000000 1.0
C      1  0.5100240000000  0.4847590000000  0.4669170000000 1.0
C      1  0.4343820000000  0.5164440000000  0.4948440000000 1.0
C      1  0.5627740000000  0.5637720000000  0.5040450000000 1.0
C      1  0.5476170000000  0.5168880000000  0.4758300000000 1.0
C      1  0.5515930000000  0.4896260000000  0.4169340000000 1.0
C      1  0.5410570000000  0.4876100000000  0.4695560000000 1.0
C      1  0.4833910000000  0.4415030000000  0.4594550000000 1.0
C      1  0.5034850000000  0.5430830000000  0.5086250000000 1.0
C      1  0.4393580000000  0.5598530000000  0.3875020000000 1.0
C      1  0.4932060000000  0.5018350000000  0.5431380000000 1.0
C      1  0.4817240000000  0.4360150000000  0.4869650000000 1.0
C      1  0.5143050000000  0.5992490000000  0.4219800000000 1.0
C      1  0.4581920000000  0.4448780000000  0.4996920000000 1.0
C      1  0.5362890000000  0.5596160000000  0.4396530000000 1.0
C      1  0.4879420000000  0.4933120000000  0.4429960000000 1.0
C      1  0.5497780000000  0.4671220000000  0.4941220000000 1.0
C      1  0.4630630000000  0.5402290000000  0.5594430000000 1.0
C      1  0.4707770000000  0.5360090000000  0.4226610000000 1.0
C      1  0.5299000000000  0.4331410000000  0.5680180000000 1.0
C      1  0.5225090000000  0.4593320000000  0.5474400000000 1.0
C      1  0.4604260000000  0.4535940000000  0.4476840000000 1.0
C      1  0.4199870000000  0.5580700000000  0.5462270000000 1.0
C      1  0.5597540000000  0.4801380000000  0.5191640000000 1.0
C      1  0.4627710000000  0.4447160000000  0.5300570000000 1.0
C      1  0.4479460000000  0.4903380000000  0.4774050000000 1.0
C      1  0.4951530000000  0.4402980000000  0.5349750000000 1.0
C      1  0.5123810000000  0.5038390000000  0.5179660000000 1.0
C      1  0.4718180000000  0.5027840000000  0.4932640000000 1.0
C      1  0.5293950000000  0.4400550000000  0.4973790000000 1.0
C      1  0.4973890000000  0.5665410000000  0.4875150000000 1.0
C      1  0.5299060000000  0.5247480000000  0.6012030000000 1.0
C      1  0.4549420000000  0.5480270000000  0.4049400000000 1.0
C      1  0.4329360000000  0.4999740000000  0.5210610000000 1.0
C      1  0.5078720000000  0.4559280000000  0.4516670000000 1.0
C      1  0.5282720000000  0.4801330000000  0.4033930000000 1.0
C      1  0.4927070000000  0.5237750000000  0.5646400000000 1.0
C      1  0.4600040000000  0.4811840000000  0.4506720000000 1.0
C      1  0.5462250000000  0.5381330000000  0.4519340000000 1.0
C      1  0.4729720000000  0.5372940000000  0.5889330000000 1.0
C      1  0.4657940000000  0.4734830000000  0.5466020000000 1.0
C      1  0.5755530000000  0.5138520000000  0.4889710000000 1.0
C      1  0.5017380000000  0.5796350000000  0.4646870000000 1.0
C      1  0.4794800000000  0.5262600000000  0.5147100000000 1.0
C      1  0.5041510000000  0.5363240000000  0.4590340000000 1.0
C      1  0.4384190000000  0.4643410000000  0.4931880000000 1.0
C      1  0.5224180000000  0.5520890000000  0.5306790000000 1.0
C      1  0.5745460000000  0.5248400000000  0.5344360000000 1.0
C      1  0.5173100000000  0.5803460000000  0.4412430000000 1.0
C      1  0.4991060000000  0.4806480000000  0.4176010000000 1.0
C      1  0.5764440000000  0.5031120000000  0.5154700000000 1.0
C      1  0.4246430000000  0.4723710000000  0.5178450000000 1.0
C      1  0.5440300000000  0.4792700000000  0.5425000000000 1.0
C      1  0.5191200000000  0.5527770000000  0.5581110000000 1.0
C      1  0.4316840000000  0.4542350000000  0.5401910000000 1.0
C      1  0.5368040000000  0.5151980000000  0.5266190000000 1.0
C      1  0.5546930000000  0.4787050000000  0.4419300000000 1.0
C      1  0.5236850000000  0.5247330000000  0.5741600000000 1.0
C      1  0.5183690000000  0.4526620000000  0.4199520000000 1.0
C      1  0.4995960000000  0.4330800000000  0.5663990000000 1.0
C      1  0.5195610000000  0.5338360000000  0.4814150000000 1.0
END
