TITL C-2778426-5645-1163 -5.50520435974385e-05 125000 -281.972356610374 0 0 50 (C1) n - 1
REM
REM in /home/nfs/bkarasulu/CARBON/AIRSS/Generating-Clusters/REBO/Only-C1/SD-CG/HFTN-CG
REM
REM
REM
REM
REM
REM ./C.cell (11c1c37f851c82e70ff6c80c92926a4b)
REM
REM compiler GCC version 9.2.1 20190827 (Red Hat 9.2.1-1)
REM options -cpp -mtune=generic -march=x86-64 -g -O0 -fpre-include=/usr/include/finclude/math-vector-fortran.h
REM seed 1007535198 657412754 -1919719861 375960318 1887776500 346861981 -1504013252 1371743091 -2078569764 -736768038 272491618 -663746091 -1037419857 1762998588 -741130931 -943367169 -858377551 183552867 -528818150 589001813 -1435156174 1620887964 -1116725598 -1319541231 -122390282 -688753117 988684893 397317686 -297237920 -950537350 1729545980 1644425539 1786272046
REM
CELL 1.54180   50.00000   50.00000   50.00000   90.00000   90.00000   90.00000
LATT -1
SFAC C  
C      1  0.4622820000000  0.5171850000000  0.5729990000000 1.0
C      1  0.4942110000000  0.4411690000000  0.4799220000000 1.0
C      1  0.4349120000000  0.5327750000000  0.5162860000000 1.0
C      1  0.5125240000000  0.4674420000000  0.4905760000000 1.0
C      1  0.4630580000000  0.4695470000000  0.4776370000000 1.0
C      1  0.4683450000000  0.5658540000000  0.5038860000000 1.0
C      1  0.4768620000000  0.5499800000000  0.4816920000000 1.0
C      1  0.5521560000000  0.4683410000000  0.4715740000000 1.0
C      1  0.4713600000000  0.5095480000000  0.5495250000000 1.0
C      1  0.4735610000000  0.4706360000000  0.5585230000000 1.0
C      1  0.5687270000000  0.5157150000000  0.4826960000000 1.0
C      1  0.4453050000000  0.5152180000000  0.4921470000000 1.0
C      1  0.5221720000000  0.5231780000000  0.5498560000000 1.0
C      1  0.5030980000000  0.4422560000000  0.5114100000000 1.0
C      1  0.5501600000000  0.4478480000000  0.5686080000000 1.0
C      1  0.4871670000000  0.5197220000000  0.4329610000000 1.0
C      1  0.5362080000000  0.4600670000000  0.5481120000000 1.0
C      1  0.4731680000000  0.4882790000000  0.5039720000000 1.0
C      1  0.5148420000000  0.5035020000000  0.4425560000000 1.0
C      1  0.5125070000000  0.5485770000000  0.5572230000000 1.0
C      1  0.5075590000000  0.4508720000000  0.4506890000000 1.0
C      1  0.4399050000000  0.5094310000000  0.4317870000000 1.0
C      1  0.5341810000000  0.4465800000000  0.5169340000000 1.0
C      1  0.4547820000000  0.5071010000000  0.5241380000000 1.0
C      1  0.5128260000000  0.4959720000000  0.4742980000000 1.0
C      1  0.5159460000000  0.5208280000000  0.4928910000000 1.0
C      1  0.4869470000000  0.5765110000000  0.5222460000000 1.0
C      1  0.5493860000000  0.4816210000000  0.5284450000000 1.0
C      1  0.5129930000000  0.5369980000000  0.4445860000000 1.0
C      1  0.4738480000000  0.4508210000000  0.4549180000000 1.0
C      1  0.5267410000000  0.4736580000000  0.4537380000000 1.0
C      1  0.5491850000000  0.4521160000000  0.4948350000000 1.0
C      1  0.5348550000000  0.5545970000000  0.4627250000000 1.0
C      1  0.5445880000000  0.5227770000000  0.5338750000000 1.0
C      1  0.4423160000000  0.5598720000000  0.5143730000000 1.0
C      1  0.4595950000000  0.5288810000000  0.4719180000000 1.0
C      1  0.4571370000000  0.4426560000000  0.4348860000000 1.0
C      1  0.5055380000000  0.5450200000000  0.4761690000000 1.0
C      1  0.5010980000000  0.5016470000000  0.5438870000000 1.0
C      1  0.5326330000000  0.4877020000000  0.5076360000000 1.0
C      1  0.5074070000000  0.4708000000000  0.5540020000000 1.0
C      1  0.4594120000000  0.4675950000000  0.5280260000000 1.0
C      1  0.4877630000000  0.4508580000000  0.5346450000000 1.0
C      1  0.5564370000000  0.5448940000000  0.4783940000000 1.0
C      1  0.5010960000000  0.5694630000000  0.5442150000000 1.0
C      1  0.5703790000000  0.4898800000000  0.4730730000000 1.0
C      1  0.5446880000000  0.5258110000000  0.5035510000000 1.0
C      1  0.4457110000000  0.4597400000000  0.5000810000000 1.0
C      1  0.5007790000000  0.4988100000000  0.5122700000000 1.0
C      1  0.4616460000000  0.5196500000000  0.4446060000000 1.0
END
