TITL C-2778430-5657-599 0.00195011617990808 125000 -1095.10681991969 0 0 187 (C1) n - 1
REM
REM in /home/nfs/bkarasulu/CARBON/AIRSS/Generating-Clusters/REBO/Only-C1/SD-CG/HFTN-CG
REM
REM
REM
REM
REM
REM ./C.cell (11c1c37f851c82e70ff6c80c92926a4b)
REM
REM compiler GCC version 9.2.1 20190827 (Red Hat 9.2.1-1)
REM options -cpp -mtune=generic -march=x86-64 -g -O0 -fpre-include=/usr/include/finclude/math-vector-fortran.h
REM seed -1017618045 -1640270078 -1242048774 73611593 -1171492969 -321452824 -1664442993 -144919239 2143579635 -665728744 -1940077622 -1856746608 -930117194 768071705 -157397793 -41808339 387452613 301746352 237843789 1921089222 -1592582428 1099813134 930248644 26016340 1747357212 63329912 804238166 781133389 -1747414887 1652057299 1945863055 903599163 -926244224
REM
CELL 1.54180   50.00000   50.00000   50.00000   90.00000   90.00000   90.00000
LATT -1
SFAC C  
C      1  0.5673180000000  0.5950320000000  0.4856740000000 1.0
C      1  0.4119180000000  0.5125290000000  0.5180310000000 1.0
C      1  0.4552460000000  0.5290500000000  0.4216320000000 1.0
C      1  0.5816990000000  0.5191370000000  0.5468140000000 1.0
C      1  0.5618460000000  0.4973990000000  0.4130120000000 1.0
C      1  0.5208920000000  0.5712320000000  0.5893740000000 1.0
C      1  0.4662920000000  0.5753030000000  0.4244460000000 1.0
C      1  0.4755430000000  0.4215610000000  0.4258050000000 1.0
C      1  0.4377650000000  0.5573200000000  0.4290660000000 1.0
C      1  0.4751380000000  0.5284320000000  0.4669560000000 1.0
C      1  0.5700650000000  0.4376470000000  0.4227600000000 1.0
C      1  0.5547380000000  0.4898710000000  0.4398150000000 1.0
C      1  0.5169190000000  0.3899350000000  0.5125660000000 1.0
C      1  0.5045730000000  0.4303570000000  0.4726370000000 1.0
C      1  0.4382930000000  0.4104220000000  0.5250510000000 1.0
C      1  0.5965100000000  0.4751550000000  0.5271530000000 1.0
C      1  0.4228960000000  0.4701440000000  0.5679390000000 1.0
C      1  0.4817690000000  0.5292430000000  0.4367110000000 1.0
C      1  0.5417440000000  0.4599590000000  0.5530710000000 1.0
C      1  0.5797360000000  0.4269030000000  0.4972860000000 1.0
C      1  0.4650230000000  0.4169100000000  0.5741210000000 1.0
C      1  0.5158440000000  0.5056010000000  0.5262930000000 1.0
C      1  0.4604710000000  0.5679890000000  0.5639500000000 1.0
C      1  0.4863550000000  0.5035620000000  0.5130310000000 1.0
C      1  0.4867820000000  0.4334000000000  0.5453140000000 1.0
C      1  0.5282650000000  0.4710940000000  0.5106050000000 1.0
C      1  0.5904620000000  0.4621950000000  0.4823810000000 1.0
C      1  0.4786330000000  0.4602980000000  0.3936790000000 1.0
C      1  0.4592830000000  0.5264690000000  0.6071620000000 1.0
C      1  0.4905930000000  0.4363620000000  0.4043740000000 1.0
C      1  0.5337630000000  0.3915170000000  0.4828090000000 1.0
C      1  0.5547290000000  0.5794850000000  0.4586060000000 1.0
C      1  0.4898060000000  0.5298300000000  0.5935250000000 1.0
C      1  0.5164530000000  0.4776940000000  0.5829200000000 1.0
C      1  0.4457140000000  0.5231800000000  0.5364390000000 1.0
C      1  0.5210600000000  0.4865420000000  0.4410000000000 1.0
C      1  0.4171950000000  0.4413280000000  0.4726060000000 1.0
C      1  0.5008880000000  0.5054250000000  0.6229260000000 1.0
C      1  0.6075270000000  0.4201060000000  0.5132770000000 1.0
C      1  0.4937510000000  0.6114500000000  0.4897370000000 1.0
C      1  0.4783390000000  0.5368290000000  0.3899480000000 1.0
C      1  0.5506880000000  0.5203670000000  0.5610260000000 1.0
C      1  0.5369740000000  0.5293890000000  0.4487720000000 1.0
C      1  0.4831990000000  0.4068130000000  0.4722330000000 1.0
C      1  0.4418280000000  0.4785460000000  0.4975630000000 1.0
C      1  0.5938650000000  0.4754210000000  0.4480820000000 1.0
C      1  0.4446410000000  0.5998470000000  0.4684390000000 1.0
C      1  0.5692750000000  0.5284090000000  0.4367870000000 1.0
C      1  0.5910080000000  0.5790010000000  0.4933260000000 1.0
C      1  0.4928620000000  0.5584010000000  0.4485020000000 1.0
C      1  0.5601410000000  0.4606770000000  0.4889190000000 1.0
C      1  0.4903490000000  0.5563950000000  0.4088360000000 1.0
C      1  0.5609930000000  0.4996690000000  0.5863130000000 1.0
C      1  0.5941150000000  0.4944230000000  0.5650290000000 1.0
C      1  0.5118000000000  0.4478340000000  0.5990410000000 1.0
C      1  0.5318550000000  0.5988680000000  0.5455260000000 1.0
C      1  0.4941240000000  0.5706350000000  0.5598300000000 1.0
C      1  0.4853380000000  0.5662560000000  0.5213570000000 1.0
C      1  0.4673240000000  0.4056150000000  0.5420840000000 1.0
C      1  0.3816280000000  0.4874170000000  0.4902470000000 1.0
C      1  0.5742960000000  0.4263900000000  0.4673080000000 1.0
C      1  0.4724640000000  0.4553210000000  0.5671650000000 1.0
C      1  0.5579880000000  0.5657510000000  0.5111760000000 1.0
C      1  0.5828860000000  0.5502840000000  0.5473440000000 1.0
C      1  0.5943770000000  0.5043600000000  0.5208130000000 1.0
C      1  0.3964780000000  0.5280000000000  0.5429150000000 1.0
C      1  0.5300310000000  0.5014790000000  0.4681260000000 1.0
C      1  0.5421420000000  0.5256300000000  0.5936620000000 1.0
C      1  0.5182540000000  0.5420500000000  0.4228190000000 1.0
C      1  0.5077480000000  0.4481450000000  0.5156390000000 1.0
C      1  0.5642650000000  0.5055460000000  0.4685040000000 1.0
C      1  0.4825130000000  0.4826070000000  0.4313120000000 1.0
C      1  0.5485550000000  0.4100050000000  0.4580880000000 1.0
C      1  0.4727820000000  0.3933970000000  0.4949430000000 1.0
C      1  0.5487360000000  0.4742790000000  0.6054420000000 1.0
C      1  0.4670240000000  0.4548480000000  0.5278090000000 1.0
C      1  0.5011520000000  0.5082460000000  0.4268400000000 1.0
C      1  0.4341230000000  0.5739030000000  0.5516720000000 1.0
C      1  0.5420280000000  0.5710330000000  0.5365320000000 1.0
C      1  0.5905950000000  0.5072380000000  0.4387380000000 1.0
C      1  0.5588400000000  0.5601490000000  0.5603090000000 1.0
C      1  0.4621780000000  0.6119390000000  0.5311260000000 1.0
C      1  0.4591990000000  0.4144170000000  0.4542900000000 1.0
C      1  0.4028980000000  0.4410790000000  0.5002740000000 1.0
C      1  0.4686330000000  0.5595170000000  0.4702710000000 1.0
C      1  0.5227410000000  0.4418820000000  0.4118970000000 1.0
C      1  0.4715370000000  0.4870240000000  0.4610910000000 1.0
C      1  0.4606720000000  0.4513250000000  0.4944130000000 1.0
C      1  0.5584310000000  0.4913290000000  0.4943190000000 1.0
C      1  0.6226360000000  0.4017690000000  0.5231030000000 1.0
C      1  0.5783130000000  0.5326980000000  0.4769070000000 1.0
C      1  0.5398210000000  0.4927480000000  0.3946500000000 1.0
C      1  0.4341940000000  0.4926800000000  0.5249480000000 1.0
C      1  0.5223490000000  0.5267720000000  0.5474920000000 1.0
C      1  0.4419460000000  0.4201110000000  0.4264400000000 1.0
C      1  0.4921390000000  0.4608090000000  0.4953910000000 1.0
C      1  0.5355420000000  0.5952840000000  0.4922370000000 1.0
C      1  0.4220180000000  0.4888640000000  0.4470150000000 1.0
C      1  0.4409680000000  0.5685130000000  0.4580970000000 1.0
C      1  0.4412200000000  0.4557130000000  0.5425290000000 1.0
C      1  0.4680300000000  0.4890690000000  0.5652630000000 1.0
C      1  0.4230750000000  0.4733750000000  0.4732960000000 1.0
C      1  0.4099420000000  0.4994860000000  0.5558600000000 1.0
C      1  0.4053690000000  0.4760080000000  0.5328220000000 1.0
C      1  0.4858620000000  0.4815970000000  0.5372930000000 1.0
C      1  0.5439790000000  0.4252920000000  0.4280280000000 1.0
C      1  0.4914610000000  0.4244250000000  0.5840030000000 1.0
C      1  0.5215510000000  0.5197820000000  0.3967920000000 1.0
C      1  0.4334520000000  0.4704190000000  0.4252040000000 1.0
C      1  0.4213760000000  0.5310740000000  0.4933420000000 1.0
C      1  0.4439070000000  0.4253100000000  0.4792600000000 1.0
C      1  0.4880950000000  0.4414260000000  0.4492390000000 1.0
C      1  0.4388530000000  0.5753840000000  0.4915830000000 1.0
C      1  0.5154840000000  0.5933910000000  0.5687950000000 1.0
C      1  0.5435370000000  0.5549410000000  0.5836400000000 1.0
C      1  0.4089890000000  0.4460810000000  0.5480660000000 1.0
C      1  0.5245230000000  0.4693550000000  0.3917990000000 1.0
C      1  0.4956580000000  0.5367770000000  0.5642490000000 1.0
C      1  0.5146500000000  0.5569930000000  0.5360170000000 1.0
C      1  0.5264900000000  0.5789660000000  0.4423320000000 1.0
C      1  0.4625780000000  0.4999910000000  0.4913140000000 1.0
C      1  0.5871130000000  0.5641290000000  0.5216370000000 1.0
C      1  0.6029550000000  0.4520400000000  0.5088140000000 1.0
C      1  0.4977500000000  0.4846360000000  0.4800090000000 1.0
C      1  0.4459310000000  0.4025060000000  0.4989670000000 1.0
C      1  0.5333710000000  0.4386910000000  0.5333950000000 1.0
C      1  0.4107300000000  0.5452320000000  0.4464260000000 1.0
C      1  0.5216400000000  0.6265140000000  0.4921330000000 1.0
C      1  0.4152110000000  0.4274420000000  0.5236210000000 1.0
C      1  0.4705250000000  0.5946130000000  0.4514910000000 1.0
C      1  0.4652080000000  0.5564610000000  0.5015040000000 1.0
C      1  0.5328760000000  0.5128220000000  0.5003490000000 1.0
C      1  0.4933300000000  0.5929420000000  0.4681490000000 1.0
C      1  0.6017560000000  0.4906190000000  0.4760970000000 1.0
C      1  0.5192440000000  0.5719640000000  0.4748220000000 1.0
C      1  0.3920830000000  0.4671060000000  0.5067560000000 1.0
C      1  0.5574220000000  0.5565210000000  0.4835390000000 1.0
C      1  0.4773640000000  0.5200650000000  0.6302330000000 1.0
C      1  0.5288130000000  0.4525190000000  0.4820070000000 1.0
C      1  0.4310090000000  0.5192570000000  0.4381840000000 1.0
C      1  0.5190920000000  0.6069750000000  0.5198600000000 1.0
C      1  0.4867320000000  0.4659270000000  0.5916200000000 1.0
C      1  0.4870270000000  0.5979630000000  0.5188440000000 1.0
C      1  0.5760790000000  0.5588960000000  0.4444760000000 1.0
C      1  0.4394670000000  0.5206820000000  0.5901920000000 1.0
C      1  0.4493040000000  0.5296300000000  0.4883570000000 1.0
C      1  0.4935510000000  0.5072700000000  0.3854560000000 1.0
C      1  0.5289370000000  0.4211470000000  0.4909130000000 1.0
C      1  0.3821130000000  0.5093260000000  0.4748310000000 1.0
C      1  0.5485340000000  0.4493950000000  0.5836230000000 1.0
C      1  0.5172570000000  0.4815610000000  0.5505710000000 1.0
C      1  0.5526380000000  0.5300710000000  0.4071940000000 1.0
C      1  0.4838710000000  0.4977720000000  0.5941640000000 1.0
C      1  0.4999400000000  0.5828300000000  0.4272640000000 1.0
C      1  0.5317290000000  0.3988050000000  0.5352240000000 1.0
C      1  0.3926690000000  0.5391550000000  0.5104820000000 1.0
C      1  0.3993320000000  0.5129190000000  0.4484920000000 1.0
C      1  0.4253680000000  0.5760090000000  0.5182460000000 1.0
C      1  0.4973080000000  0.5180540000000  0.4838290000000 1.0
C      1  0.5707560000000  0.4713810000000  0.5423580000000 1.0
C      1  0.5953170000000  0.5601760000000  0.4714750000000 1.0
C      1  0.4621280000000  0.5081780000000  0.3987540000000 1.0
C      1  0.4366070000000  0.6023790000000  0.5355930000000 1.0
C      1  0.5579910000000  0.3930300000000  0.5412700000000 1.0
C      1  0.4707340000000  0.5435490000000  0.5425100000000 1.0
C      1  0.4368850000000  0.4463570000000  0.4453130000000 1.0
C      1  0.4418990000000  0.5049200000000  0.5629960000000 1.0
C      1  0.4985890000000  0.4769060000000  0.3827670000000 1.0
C      1  0.4584770000000  0.4785530000000  0.4100310000000 1.0
C      1  0.5061870000000  0.4599190000000  0.4326000000000 1.0
C      1  0.5949310000000  0.5112600000000  0.4934580000000 1.0
C      1  0.5238480000000  0.5387590000000  0.4792550000000 1.0
C      1  0.4427830000000  0.4427320000000  0.5742550000000 1.0
C      1  0.5500320000000  0.4859230000000  0.5242950000000 1.0
C      1  0.4634620000000  0.4559380000000  0.4600850000000 1.0
C      1  0.5259270000000  0.4996470000000  0.6050000000000 1.0
C      1  0.4228970000000  0.5467580000000  0.5355300000000 1.0
C      1  0.5479290000000  0.5593460000000  0.4247880000000 1.0
C      1  0.5155910000000  0.4205440000000  0.5520730000000 1.0
C      1  0.4882340000000  0.3923310000000  0.5185040000000 1.0
C      1  0.5732110000000  0.4713750000000  0.5746530000000 1.0
C      1  0.4728820000000  0.5744230000000  0.5933740000000 1.0
C      1  0.5517030000000  0.4343010000000  0.5091050000000 1.0
C      1  0.5833970000000  0.4455000000000  0.4468610000000 1.0
C      1  0.5258500000000  0.4241320000000  0.5817710000000 1.0
C      1  0.4961820000000  0.5601030000000  0.5990250000000 1.0
C      1  0.3948780000000  0.5409620000000  0.4762750000000 1.0
END
