TITL C-2778428-5639-1151 0.000628236036179963 125000 -489.538799545751 0 0 86 (C1) n - 1
REM
REM in /home/nfs/bkarasulu/CARBON/AIRSS/Generating-Clusters/REBO/Only-C1/SD-CG/HFTN-CG
REM
REM
REM
REM
REM
REM ./C.cell (11c1c37f851c82e70ff6c80c92926a4b)
REM
REM compiler GCC version 9.2.1 20190827 (Red Hat 9.2.1-1)
REM options -cpp -mtune=generic -march=x86-64 -g -O0 -fpre-include=/usr/include/finclude/math-vector-fortran.h
REM seed -1410637866 34547799 1633879295 -1240332133 498920953 -1916913761 1270693663 1284394095 435834701 -1892346697 -12287408 -247809840 -1815984027 -1439857311 305358897 -96314181 1939697369 -364620679 -418910210 -925185516 -1516956259 -695381353 -112847225 -446951368 -38324880 -313943153 -1679237353 1404019790 -1403339282 -1598670687 202386003 -1985702776 102037044
REM
CELL 1.54180   50.00000   50.00000   50.00000   90.00000   90.00000   90.00000
LATT -1
SFAC C  
C      1  0.5145060000000  0.5228350000000  0.4437080000000 1.0
C      1  0.5519840000000  0.4555650000000  0.5470600000000 1.0
C      1  0.4561240000000  0.4588770000000  0.4645070000000 1.0
C      1  0.5739990000000  0.4457820000000  0.4700340000000 1.0
C      1  0.4186960000000  0.5142590000000  0.4855760000000 1.0
C      1  0.4102930000000  0.4751440000000  0.5806060000000 1.0
C      1  0.5441180000000  0.5283260000000  0.4560340000000 1.0
C      1  0.4691130000000  0.4578760000000  0.4389440000000 1.0
C      1  0.4871580000000  0.4836520000000  0.5847930000000 1.0
C      1  0.5332030000000  0.4905210000000  0.5472290000000 1.0
C      1  0.4980320000000  0.5235100000000  0.4159520000000 1.0
C      1  0.4397900000000  0.5350790000000  0.5258660000000 1.0
C      1  0.5388940000000  0.4374580000000  0.5285690000000 1.0
C      1  0.5540490000000  0.5642270000000  0.5038150000000 1.0
C      1  0.4094250000000  0.4880880000000  0.4765100000000 1.0
C      1  0.5253110000000  0.5575700000000  0.4881750000000 1.0
C      1  0.5328850000000  0.5346560000000  0.5198980000000 1.0
C      1  0.4883770000000  0.4366240000000  0.4419310000000 1.0
C      1  0.4820630000000  0.4201450000000  0.4940170000000 1.0
C      1  0.4718540000000  0.5149710000000  0.4227460000000 1.0
C      1  0.5217520000000  0.5139600000000  0.5629990000000 1.0
C      1  0.5155260000000  0.4457800000000  0.4416490000000 1.0
C      1  0.5706650000000  0.5369730000000  0.5015750000000 1.0
C      1  0.4526540000000  0.5526380000000  0.4964520000000 1.0
C      1  0.5281010000000  0.4909520000000  0.4935840000000 1.0
C      1  0.4814050000000  0.5469750000000  0.5132470000000 1.0
C      1  0.4918340000000  0.4305340000000  0.5514070000000 1.0
C      1  0.5323520000000  0.5670910000000  0.5299480000000 1.0
C      1  0.4374050000000  0.5115300000000  0.5080070000000 1.0
C      1  0.5827340000000  0.4914950000000  0.4532490000000 1.0
C      1  0.5730910000000  0.5316120000000  0.4742100000000 1.0
C      1  0.5416960000000  0.5710070000000  0.4255340000000 1.0
C      1  0.5766030000000  0.4750360000000  0.4786590000000 1.0
C      1  0.4083380000000  0.4326540000000  0.5592680000000 1.0
C      1  0.5022960000000  0.4070230000000  0.5093210000000 1.0
C      1  0.4914930000000  0.5397900000000  0.4604510000000 1.0
C      1  0.4577050000000  0.5595820000000  0.4682600000000 1.0
C      1  0.4580780000000  0.4986350000000  0.4637560000000 1.0
C      1  0.5619910000000  0.4842490000000  0.5330010000000 1.0
C      1  0.4220490000000  0.4551770000000  0.5662250000000 1.0
C      1  0.4672110000000  0.4431410000000  0.5104610000000 1.0
C      1  0.4465140000000  0.5375400000000  0.5560280000000 1.0
C      1  0.4717750000000  0.4728930000000  0.5269270000000 1.0
C      1  0.4909000000000  0.5006980000000  0.4547070000000 1.0
C      1  0.5036620000000  0.5716330000000  0.5477820000000 1.0
C      1  0.4354320000000  0.5235680000000  0.4627180000000 1.0
C      1  0.5099720000000  0.4668620000000  0.5861540000000 1.0
C      1  0.4491760000000  0.4579010000000  0.5583170000000 1.0
C      1  0.4905760000000  0.5114930000000  0.5677640000000 1.0
C      1  0.5196000000000  0.5056460000000  0.5209380000000 1.0
C      1  0.5139520000000  0.4181530000000  0.5332530000000 1.0
C      1  0.4320940000000  0.4756940000000  0.4646890000000 1.0
C      1  0.5015700000000  0.5675860000000  0.5044870000000 1.0
C      1  0.5169150000000  0.4540130000000  0.5159180000000 1.0
C      1  0.4624190000000  0.4374770000000  0.5427680000000 1.0
C      1  0.4564560000000  0.5646700000000  0.5284040000000 1.0
C      1  0.4777160000000  0.5786070000000  0.4644850000000 1.0
C      1  0.5799130000000  0.4598000000000  0.4420680000000 1.0
C      1  0.5490340000000  0.4337880000000  0.4751910000000 1.0
C      1  0.4866230000000  0.5166840000000  0.4847560000000 1.0
C      1  0.5103080000000  0.4652330000000  0.4879180000000 1.0
C      1  0.5587800000000  0.5050600000000  0.4390420000000 1.0
C      1  0.4901470000000  0.5172420000000  0.5180710000000 1.0
C      1  0.5572860000000  0.5752770000000  0.4723690000000 1.0
C      1  0.5045710000000  0.5682330000000  0.4651010000000 1.0
C      1  0.4811550000000  0.5839630000000  0.5345250000000 1.0
C      1  0.5591480000000  0.4858720000000  0.5000510000000 1.0
C      1  0.4762570000000  0.4657940000000  0.4883230000000 1.0
C      1  0.4644230000000  0.4815760000000  0.5649210000000 1.0
C      1  0.5317420000000  0.4609050000000  0.4240500000000 1.0
C      1  0.4610930000000  0.5343650000000  0.4460940000000 1.0
C      1  0.4823990000000  0.4204380000000  0.4654560000000 1.0
C      1  0.4739000000000  0.5022910000000  0.5395850000000 1.0
C      1  0.4976320000000  0.5450710000000  0.5659170000000 1.0
C      1  0.5246440000000  0.4462110000000  0.4686890000000 1.0
C      1  0.5291900000000  0.5421760000000  0.5527210000000 1.0
C      1  0.5314620000000  0.4654270000000  0.5681870000000 1.0
C      1  0.4922950000000  0.5954660000000  0.5086390000000 1.0
C      1  0.4659880000000  0.5427780000000  0.5703290000000 1.0
C      1  0.5479410000000  0.5610840000000  0.4505290000000 1.0
C      1  0.5705370000000  0.5128230000000  0.5166050000000 1.0
C      1  0.4962480000000  0.4566520000000  0.5343750000000 1.0
C      1  0.5310330000000  0.5241580000000  0.4874810000000 1.0
C      1  0.4632960000000  0.4958260000000  0.4976980000000 1.0
C      1  0.5555130000000  0.4757260000000  0.4288090000000 1.0
C      1  0.4738610000000  0.4846480000000  0.4299350000000 1.0
END
