TITL C-2778423-5760-368 -0.00656162742790196 125000 -236.795071640373 0 0 43 (C1) n - 1
REM
REM in /home/nfs/bkarasulu/CARBON/AIRSS/Generating-Clusters/REBO/Only-C1/SD-CG/HFTN-CG
REM
REM
REM
REM
REM
REM ./C.cell (11c1c37f851c82e70ff6c80c92926a4b)
REM
REM compiler GCC version 9.2.1 20190827 (Red Hat 9.2.1-1)
REM options -cpp -mtune=generic -march=x86-64 -g -O0 -fpre-include=/usr/include/finclude/math-vector-fortran.h
REM seed 1631747736 -234716211 155718358 2043720679 -1809995540 1943038302 916992392 -1635357788 1903920848 -1226320310 -2012365383 -660191614 2122729494 1708510868 -1212834434 -135685177 -2041228443 1575386821 114752807 733470911 1721075345 -1415481446 -1063960887 459065316 1147893699 957006132 487827216 -1009888551 1250566256 -1553501681 829879119 -2127652639 -1232243579
REM
CELL 1.54180   50.00000   50.00000   50.00000   90.00000   90.00000   90.00000
LATT -1
SFAC C  
C      1  0.5168570000000  0.4594860000000  0.4615570000000 1.0
C      1  0.5774940000000  0.4953630000000  0.5042990000000 1.0
C      1  0.5229570000000  0.4989310000000  0.4616240000000 1.0
C      1  0.5300950000000  0.5273780000000  0.4978650000000 1.0
C      1  0.5011430000000  0.5016730000000  0.5622010000000 1.0
C      1  0.5016880000000  0.4922030000000  0.4444010000000 1.0
C      1  0.4904380000000  0.4694040000000  0.4805680000000 1.0
C      1  0.4996460000000  0.4791580000000  0.5384420000000 1.0
C      1  0.5459130000000  0.4697270000000  0.4762300000000 1.0
C      1  0.4856440000000  0.5072820000000  0.5262850000000 1.0
C      1  0.4735090000000  0.4929250000000  0.4626550000000 1.0
C      1  0.5501160000000  0.5014220000000  0.4886270000000 1.0
C      1  0.4802950000000  0.4568630000000  0.5311600000000 1.0
C      1  0.4758230000000  0.5193150000000  0.4792000000000 1.0
C      1  0.4647260000000  0.5548750000000  0.5091770000000 1.0
C      1  0.4539290000000  0.4712270000000  0.5198880000000 1.0
C      1  0.4151150000000  0.5249740000000  0.5412340000000 1.0
C      1  0.4628120000000  0.5421690000000  0.5347060000000 1.0
C      1  0.5461430000000  0.5371440000000  0.4711730000000 1.0
C      1  0.5724200000000  0.4691760000000  0.4947500000000 1.0
C      1  0.5147190000000  0.4883830000000  0.4926030000000 1.0
C      1  0.4604170000000  0.4646470000000  0.4488350000000 1.0
C      1  0.4984510000000  0.5154070000000  0.4995120000000 1.0
C      1  0.5519010000000  0.5074740000000  0.5499040000000 1.0
C      1  0.3897790000000  0.5281270000000  0.5471460000000 1.0
C      1  0.5628950000000  0.5299450000000  0.5341880000000 1.0
C      1  0.5196460000000  0.5444830000000  0.5441850000000 1.0
C      1  0.4418420000000  0.5216470000000  0.5349970000000 1.0
C      1  0.5391790000000  0.5428540000000  0.5226790000000 1.0
C      1  0.5482140000000  0.4833210000000  0.5346680000000 1.0
C      1  0.4895680000000  0.4632780000000  0.4413140000000 1.0
C      1  0.5261020000000  0.5188360000000  0.5609610000000 1.0
C      1  0.4618620000000  0.5433930000000  0.4829590000000 1.0
C      1  0.4643060000000  0.4285070000000  0.4890400000000 1.0
C      1  0.5502180000000  0.4942870000000  0.4327400000000 1.0
C      1  0.4554710000000  0.4985290000000  0.5254680000000 1.0
C      1  0.5443120000000  0.5177720000000  0.4505540000000 1.0
C      1  0.5438230000000  0.4699710000000  0.4436160000000 1.0
C      1  0.4366470000000  0.4520270000000  0.4464880000000 1.0
C      1  0.4451360000000  0.5540670000000  0.4643880000000 1.0
C      1  0.5251370000000  0.4782900000000  0.5208650000000 1.0
C      1  0.4903180000000  0.5311530000000  0.5481250000000 1.0
C      1  0.4732930000000  0.4529060000000  0.4987240000000 1.0
END
