TITL C-2778434-4341-379 0.00293649785409339 125000 -677.783521552735 0 0 116 (C1) n - 1
REM
REM in /home/nfs/bkarasulu/CARBON/AIRSS/Generating-Clusters/REBO/Only-C1/SD-CG/HFTN-CG
REM
REM
REM
REM
REM
REM ./C.cell (11c1c37f851c82e70ff6c80c92926a4b)
REM
REM compiler GCC version 9.2.1 20190827 (Red Hat 9.2.1-1)
REM options -cpp -mtune=generic -march=x86-64 -g -O0 -fpre-include=/usr/include/finclude/math-vector-fortran.h
REM seed -336890997 1227422425 -2018920560 -1141391440 1314887317 -372031670 148119200 -1422495774 56175451 -1670160552 586172727 59619031 65041833 -1785441462 -1492947609 2030423000 -1116017567 -1501984482 -743701271 -737064935 -1738166680 -787565253 1896891674 -1219541682 -355539848 1165380383 1507807169 1600418853 -1015570679 -1289670984 -1574305040 1150145364 -1069722510
REM
CELL 1.54180   50.00000   50.00000   50.00000   90.00000   90.00000   90.00000
LATT -1
SFAC C  
C      1  0.4568720000000  0.5756810000000  0.5021640000000 1.0
C      1  0.5231850000000  0.4540130000000  0.5109970000000 1.0
C      1  0.5564130000000  0.4540680000000  0.5415400000000 1.0
C      1  0.5230630000000  0.4513310000000  0.5910090000000 1.0
C      1  0.4454090000000  0.4690240000000  0.5671690000000 1.0
C      1  0.4301070000000  0.4955730000000  0.4819290000000 1.0
C      1  0.5583430000000  0.5108000000000  0.4275360000000 1.0
C      1  0.4795000000000  0.4230140000000  0.5692400000000 1.0
C      1  0.5760630000000  0.4798870000000  0.5523050000000 1.0
C      1  0.5737180000000  0.4649590000000  0.4860220000000 1.0
C      1  0.5330070000000  0.4189190000000  0.4130310000000 1.0
C      1  0.4403960000000  0.4885410000000  0.4178230000000 1.0
C      1  0.4765710000000  0.4308990000000  0.4573240000000 1.0
C      1  0.4582650000000  0.4680480000000  0.4886450000000 1.0
C      1  0.5546240000000  0.4771090000000  0.5189860000000 1.0
C      1  0.5150160000000  0.5064150000000  0.5024680000000 1.0
C      1  0.4844060000000  0.5345420000000  0.5206370000000 1.0
C      1  0.4637240000000  0.5667020000000  0.5316930000000 1.0
C      1  0.4829170000000  0.5021690000000  0.3938620000000 1.0
C      1  0.5741930000000  0.4869360000000  0.5799250000000 1.0
C      1  0.4262050000000  0.5189820000000  0.5486250000000 1.0
C      1  0.5494820000000  0.4455020000000  0.4912980000000 1.0
C      1  0.4580830000000  0.5677400000000  0.4522120000000 1.0
C      1  0.5386950000000  0.5176650000000  0.4800580000000 1.0
C      1  0.5166970000000  0.5873890000000  0.4957440000000 1.0
C      1  0.4081060000000  0.5098600000000  0.4620480000000 1.0
C      1  0.4481780000000  0.5030160000000  0.5665580000000 1.0
C      1  0.4938360000000  0.5603830000000  0.5360010000000 1.0
C      1  0.5651960000000  0.5392970000000  0.4786080000000 1.0
C      1  0.4561560000000  0.5073500000000  0.4827710000000 1.0
C      1  0.5325320000000  0.4753270000000  0.6022460000000 1.0
C      1  0.5138080000000  0.5763560000000  0.4487320000000 1.0
C      1  0.4630040000000  0.5098940000000  0.5301010000000 1.0
C      1  0.4899560000000  0.5349670000000  0.5726700000000 1.0
C      1  0.4154200000000  0.4785300000000  0.4584960000000 1.0
C      1  0.5100040000000  0.4484340000000  0.4815020000000 1.0
C      1  0.5404840000000  0.4106160000000  0.5083090000000 1.0
C      1  0.4608180000000  0.4861320000000  0.3977630000000 1.0
C      1  0.4666830000000  0.5261830000000  0.4286280000000 1.0
C      1  0.4439780000000  0.4407280000000  0.4944280000000 1.0
C      1  0.4734570000000  0.4681800000000  0.5851690000000 1.0
C      1  0.5323990000000  0.4811350000000  0.4950800000000 1.0
C      1  0.5586050000000  0.5473810000000  0.5164900000000 1.0
C      1  0.4465090000000  0.4350660000000  0.5239480000000 1.0
C      1  0.5190280000000  0.5705740000000  0.5318670000000 1.0
C      1  0.5177160000000  0.5384710000000  0.4141160000000 1.0
C      1  0.4752280000000  0.5108800000000  0.5728080000000 1.0
C      1  0.5658450000000  0.4966330000000  0.4795680000000 1.0
C      1  0.4389320000000  0.4622380000000  0.5380040000000 1.0
C      1  0.4600740000000  0.4612150000000  0.4551710000000 1.0
C      1  0.5594810000000  0.5593490000000  0.4300930000000 1.0
C      1  0.5422620000000  0.5788700000000  0.4487140000000 1.0
C      1  0.4714740000000  0.5849660000000  0.5758880000000 1.0
C      1  0.4596430000000  0.4810250000000  0.5199150000000 1.0
C      1  0.5870220000000  0.4811890000000  0.5093280000000 1.0
C      1  0.4210680000000  0.5292500000000  0.4446610000000 1.0
C      1  0.4056780000000  0.4979970000000  0.5404000000000 1.0
C      1  0.4393830000000  0.5165770000000  0.4260730000000 1.0
C      1  0.5663910000000  0.5606590000000  0.4616910000000 1.0
C      1  0.5699060000000  0.5184050000000  0.5055250000000 1.0
C      1  0.4996350000000  0.5830120000000  0.4731140000000 1.0
C      1  0.5062320000000  0.5125620000000  0.4061090000000 1.0
C      1  0.4907490000000  0.4875220000000  0.5763510000000 1.0
C      1  0.4253300000000  0.5431470000000  0.5269330000000 1.0
C      1  0.5348000000000  0.5758740000000  0.5546080000000 1.0
C      1  0.5324090000000  0.5085180000000  0.5637880000000 1.0
C      1  0.5298180000000  0.4496220000000  0.5601710000000 1.0
C      1  0.5136870000000  0.4217610000000  0.5489110000000 1.0
C      1  0.4942640000000  0.4191990000000  0.4841540000000 1.0
C      1  0.4744140000000  0.5537180000000  0.4325820000000 1.0
C      1  0.4727180000000  0.5590500000000  0.5698840000000 1.0
C      1  0.4103310000000  0.4740470000000  0.5339060000000 1.0
C      1  0.4339810000000  0.5506220000000  0.4586820000000 1.0
C      1  0.4573690000000  0.5381030000000  0.5497180000000 1.0
C      1  0.5184090000000  0.5340060000000  0.5727360000000 1.0
C      1  0.5023170000000  0.5585950000000  0.4291450000000 1.0
C      1  0.5360610000000  0.4370090000000  0.4623650000000 1.0
C      1  0.4538390000000  0.5392670000000  0.4797630000000 1.0
C      1  0.4605420000000  0.4409020000000  0.5796630000000 1.0
C      1  0.4515680000000  0.5350880000000  0.5106400000000 1.0
C      1  0.4863140000000  0.5003730000000  0.4852440000000 1.0
C      1  0.5197260000000  0.4937200000000  0.4218550000000 1.0
C      1  0.5644290000000  0.4920950000000  0.4458590000000 1.0
C      1  0.5309120000000  0.4430000000000  0.4231580000000 1.0
C      1  0.5022570000000  0.5196870000000  0.4639810000000 1.0
C      1  0.4831350000000  0.4259280000000  0.5369360000000 1.0
C      1  0.4711640000000  0.5783850000000  0.4764490000000 1.0
C      1  0.5338610000000  0.5575400000000  0.5751070000000 1.0
C      1  0.5466100000000  0.5358890000000  0.4197240000000 1.0
C      1  0.5331960000000  0.5608050000000  0.5051980000000 1.0
C      1  0.4849790000000  0.5417850000000  0.4898920000000 1.0
C      1  0.5311360000000  0.4985760000000  0.5309940000000 1.0
C      1  0.5719510000000  0.5593630000000  0.5361150000000 1.0
C      1  0.4289390000000  0.5679930000000  0.5120700000000 1.0
C      1  0.5825930000000  0.5018790000000  0.5324800000000 1.0
C      1  0.5168760000000  0.5444790000000  0.4822410000000 1.0
C      1  0.4933430000000  0.4501340000000  0.4367280000000 1.0
C      1  0.5339280000000  0.4766810000000  0.4663230000000 1.0
C      1  0.4849970000000  0.5070280000000  0.4397280000000 1.0
C      1  0.5476130000000  0.4942130000000  0.5867720000000 1.0
C      1  0.4555310000000  0.4180540000000  0.4785830000000 1.0
C      1  0.5948070000000  0.4854320000000  0.5974600000000 1.0
C      1  0.5180230000000  0.6103480000000  0.5110080000000 1.0
C      1  0.5607820000000  0.4595910000000  0.4557480000000 1.0
C      1  0.5073990000000  0.4255410000000  0.5823030000000 1.0
C      1  0.5287180000000  0.4682350000000  0.4337690000000 1.0
C      1  0.4713840000000  0.4159590000000  0.5091450000000 1.0
C      1  0.5266120000000  0.5041130000000  0.4508630000000 1.0
C      1  0.5093800000000  0.4594090000000  0.5361800000000 1.0
C      1  0.5414110000000  0.4249970000000  0.5315640000000 1.0
C      1  0.4349990000000  0.4698350000000  0.4394610000000 1.0
C      1  0.4898110000000  0.4698860000000  0.4773030000000 1.0
C      1  0.4782610000000  0.4577260000000  0.5324830000000 1.0
C      1  0.5120410000000  0.4850520000000  0.5555890000000 1.0
C      1  0.5270110000000  0.4127720000000  0.4845460000000 1.0
C      1  0.4841840000000  0.4788370000000  0.4383020000000 1.0
END
