TITL C-2778423-5760-401 1.60807043411763 125000 -302.37940846678 0 0 53 (C1) n - 1
REM
REM in /home/nfs/bkarasulu/CARBON/AIRSS/Generating-Clusters/REBO/Only-C1/SD-CG/HFTN-CG
REM
REM
REM
REM
REM
REM ./C.cell (11c1c37f851c82e70ff6c80c92926a4b)
REM
REM compiler GCC version 9.2.1 20190827 (Red Hat 9.2.1-1)
REM options -cpp -mtune=generic -march=x86-64 -g -O0 -fpre-include=/usr/include/finclude/math-vector-fortran.h
REM seed -1959856832 -507011357 1932501518 -1981007541 771279718 -1140806258 -1646039708 1380135281 1624756535 1904780444 1528065562 -1820654346 1370725245 135790956 2046567450 51858929 1326795159 713994216 -139529691 2056401661 -1666546350 1182274966 1838119013 40436579 56107118 -2011790701 436470711 2008649980 -290255306 410777706 1585316252 535010942 -1645249890
REM
CELL 1.54180   50.00000   50.00000   50.00000   90.00000   90.00000   90.00000
LATT -1
SFAC C  
C      1  0.4885400000000  0.5768690000000  0.4645270000000 1.0
C      1  0.5479450000000  0.5043580000000  0.4739170000000 1.0
C      1  0.5144080000000  0.4656780000000  0.4495470000000 1.0
C      1  0.5014160000000  0.5126270000000  0.4523790000000 1.0
C      1  0.5569520000000  0.4520800000000  0.5306370000000 1.0
C      1  0.4739750000000  0.5359650000000  0.5130530000000 1.0
C      1  0.4464530000000  0.5655410000000  0.5227390000000 1.0
C      1  0.5380850000000  0.5673550000000  0.4843800000000 1.0
C      1  0.4934090000000  0.4801270000000  0.5202280000000 1.0
C      1  0.4459710000000  0.5372310000000  0.5361350000000 1.0
C      1  0.4506050000000  0.5654840000000  0.4953390000000 1.0
C      1  0.4733300000000  0.5135350000000  0.4641950000000 1.0
C      1  0.4308870000000  0.5528140000000  0.4307510000000 1.0
C      1  0.5357930000000  0.4555290000000  0.4685900000000 1.0
C      1  0.5289880000000  0.5569190000000  0.5120770000000 1.0
C      1  0.4632880000000  0.5288530000000  0.4858770000000 1.0
C      1  0.4702380000000  0.5403610000000  0.4000740000000 1.0
C      1  0.5495620000000  0.4735820000000  0.4858550000000 1.0
C      1  0.5189850000000  0.3743050000000  0.5687160000000 1.0
C      1  0.4780370000000  0.3413740000000  0.5742520000000 1.0
C      1  0.4966850000000  0.4849900000000  0.5731260000000 1.0
C      1  0.5610260000000  0.5192210000000  0.4970760000000 1.0
C      1  0.5612910000000  0.4083280000000  0.5629960000000 1.0
C      1  0.4888950000000  0.5211600000000  0.4038970000000 1.0
C      1  0.5300320000000  0.5260050000000  0.4578760000000 1.0
C      1  0.5129170000000  0.5922570000000  0.5536220000000 1.0
C      1  0.4723640000000  0.5191700000000  0.5411840000000 1.0
C      1  0.4666160000000  0.4727650000000  0.4383270000000 1.0
C      1  0.4486660000000  0.5531830000000  0.4101850000000 1.0
C      1  0.4290560000000  0.5074390000000  0.4465870000000 1.0
C      1  0.5396230000000  0.3909030000000  0.5659260000000 1.0
C      1  0.4944420000000  0.4747710000000  0.4306290000000 1.0
C      1  0.4844010000000  0.5022540000000  0.5569930000000 1.0
C      1  0.4259350000000  0.5353390000000  0.4521860000000 1.0
C      1  0.5590690000000  0.4307370000000  0.5464230000000 1.0
C      1  0.4993990000000  0.5031860000000  0.4222790000000 1.0
C      1  0.5851820000000  0.4033460000000  0.5766410000000 1.0
C      1  0.4205200000000  0.5243020000000  0.5255740000000 1.0
C      1  0.5041740000000  0.4849660000000  0.4976020000000 1.0
C      1  0.5449680000000  0.5332870000000  0.5204090000000 1.0
C      1  0.4547130000000  0.4958230000000  0.4506440000000 1.0
C      1  0.5566130000000  0.5019080000000  0.5234810000000 1.0
C      1  0.5087740000000  0.4680010000000  0.5890030000000 1.0
C      1  0.6075750000000  0.3986760000000  0.5894300000000 1.0
C      1  0.5126880000000  0.5758280000000  0.5340120000000 1.0
C      1  0.4338440000000  0.5415490000000  0.4805780000000 1.0
C      1  0.4959530000000  0.5577800000000  0.5118370000000 1.0
C      1  0.5170480000000  0.4907540000000  0.4705390000000 1.0
C      1  0.4778140000000  0.5686540000000  0.4885040000000 1.0
C      1  0.4983470000000  0.3577080000000  0.5715060000000 1.0
C      1  0.5547440000000  0.4743400000000  0.5141720000000 1.0
C      1  0.5356180000000  0.5520770000000  0.4620250000000 1.0
C      1  0.4141440000000  0.5287050000000  0.5014650000000 1.0
END
