TITL C-2778432-5617-682 -0.0051092589767627 125000 -438.186717742664 0 0 77 (C1) n - 1
REM
REM in /home/nfs/bkarasulu/CARBON/AIRSS/Generating-Clusters/REBO/Only-C1/SD-CG/HFTN-CG
REM
REM
REM
REM
REM
REM ./C.cell (11c1c37f851c82e70ff6c80c92926a4b)
REM
REM compiler GCC version 9.2.1 20190827 (Red Hat 9.2.1-1)
REM options -cpp -mtune=generic -march=x86-64 -g -O0 -fpre-include=/usr/include/finclude/math-vector-fortran.h
REM seed 1420291416 2118182614 -1019895386 -447695885 -868837913 -812142989 -1299220456 -100278530 -1211099769 -474341901 158444495 -125445505 -1926627275 327404527 743357369 1253337988 39868679 1153168785 425694925 1507314639 -864573707 -1509436202 -368264189 -1970268702 273980074 -750715981 1318320386 1036651281 -335672851 -1196823707 413869568 -701253017 -1187296150
REM
CELL 1.54180   50.00000   50.00000   50.00000   90.00000   90.00000   90.00000
LATT -1
SFAC C  
C      1  0.4931960000000  0.4362150000000  0.5901230000000 1.0
C      1  0.5663120000000  0.4960620000000  0.5072870000000 1.0
C      1  0.5387700000000  0.4383400000000  0.4762000000000 1.0
C      1  0.4421680000000  0.5405990000000  0.5031230000000 1.0
C      1  0.4911550000000  0.5655710000000  0.4801380000000 1.0
C      1  0.5100430000000  0.4932960000000  0.4298230000000 1.0
C      1  0.4444470000000  0.4736940000000  0.4485730000000 1.0
C      1  0.4928480000000  0.5358340000000  0.4162730000000 1.0
C      1  0.4797850000000  0.4995180000000  0.5580260000000 1.0
C      1  0.5536090000000  0.4650810000000  0.5018860000000 1.0
C      1  0.4560290000000  0.4617180000000  0.5444640000000 1.0
C      1  0.4718000000000  0.4741690000000  0.4586090000000 1.0
C      1  0.4820930000000  0.4742240000000  0.5423300000000 1.0
C      1  0.4897880000000  0.5330580000000  0.4692830000000 1.0
C      1  0.5070250000000  0.5745320000000  0.5394060000000 1.0
C      1  0.4883080000000  0.5724850000000  0.5115810000000 1.0
C      1  0.5045650000000  0.5151330000000  0.5712160000000 1.0
C      1  0.5498400000000  0.5715700000000  0.4892120000000 1.0
C      1  0.5710030000000  0.4449940000000  0.4831670000000 1.0
C      1  0.4990620000000  0.4565980000000  0.4939000000000 1.0
C      1  0.5176570000000  0.5459380000000  0.4579640000000 1.0
C      1  0.5397850000000  0.5276360000000  0.4722920000000 1.0
C      1  0.4249860000000  0.5064280000000  0.5202400000000 1.0
C      1  0.4766830000000  0.5397770000000  0.5859590000000 1.0
C      1  0.4802580000000  0.5063790000000  0.4213640000000 1.0
C      1  0.4238180000000  0.5202410000000  0.4903210000000 1.0
C      1  0.5691440000000  0.5283030000000  0.5115340000000 1.0
C      1  0.5218830000000  0.5753890000000  0.4700380000000 1.0
C      1  0.4598720000000  0.5077180000000  0.4765580000000 1.0
C      1  0.5175220000000  0.5401340000000  0.4278270000000 1.0
C      1  0.4418810000000  0.5405780000000  0.5321250000000 1.0
C      1  0.4312770000000  0.5148350000000  0.4608840000000 1.0
C      1  0.5515180000000  0.5125410000000  0.4486400000000 1.0
C      1  0.5475930000000  0.5290660000000  0.5588820000000 1.0
C      1  0.5333950000000  0.5160070000000  0.4263760000000 1.0
C      1  0.4870670000000  0.5468750000000  0.5327360000000 1.0
C      1  0.4488810000000  0.4470840000000  0.4892750000000 1.0
C      1  0.4351190000000  0.4770970000000  0.5325320000000 1.0
C      1  0.4354840000000  0.4834620000000  0.4242500000000 1.0
C      1  0.5274900000000  0.5489080000000  0.5174140000000 1.0
C      1  0.5207110000000  0.4584920000000  0.4756760000000 1.0
C      1  0.4645290000000  0.5466430000000  0.4877120000000 1.0
C      1  0.4282290000000  0.4627600000000  0.4699900000000 1.0
C      1  0.5315430000000  0.5107600000000  0.5741170000000 1.0
C      1  0.5206020000000  0.5781410000000  0.5038600000000 1.0
C      1  0.4556500000000  0.5014900000000  0.5056360000000 1.0
C      1  0.5396310000000  0.4524200000000  0.4133530000000 1.0
C      1  0.5170420000000  0.4479520000000  0.5864390000000 1.0
C      1  0.5478110000000  0.4691750000000  0.5491340000000 1.0
C      1  0.5052720000000  0.4723740000000  0.5199190000000 1.0
C      1  0.5660430000000  0.5184310000000  0.5403300000000 1.0
C      1  0.4700340000000  0.4939800000000  0.3980410000000 1.0
C      1  0.5264720000000  0.5237080000000  0.5026130000000 1.0
C      1  0.5370010000000  0.4603270000000  0.5733130000000 1.0
C      1  0.5464610000000  0.4890740000000  0.4805100000000 1.0
C      1  0.5373560000000  0.4730880000000  0.4295200000000 1.0
C      1  0.4581990000000  0.5219950000000  0.5442370000000 1.0
C      1  0.4353570000000  0.4740290000000  0.5006900000000 1.0
C      1  0.5078590000000  0.5036200000000  0.5130280000000 1.0
C      1  0.5585120000000  0.4136590000000  0.4784450000000 1.0
C      1  0.5340820000000  0.4612410000000  0.5252240000000 1.0
C      1  0.5193250000000  0.4872940000000  0.4620940000000 1.0
C      1  0.5674040000000  0.4881970000000  0.5405830000000 1.0
C      1  0.4749840000000  0.4544770000000  0.4800420000000 1.0
C      1  0.4540600000000  0.4407390000000  0.5630130000000 1.0
C      1  0.5591960000000  0.4821610000000  0.4507060000000 1.0
C      1  0.5588240000000  0.5443310000000  0.4914300000000 1.0
C      1  0.4664150000000  0.5166870000000  0.5829890000000 1.0
C      1  0.4668310000000  0.4279620000000  0.5847050000000 1.0
C      1  0.5813460000000  0.4615000000000  0.4585990000000 1.0
C      1  0.4584680000000  0.5105910000000  0.4425730000000 1.0
C      1  0.4988750000000  0.5468020000000  0.5643540000000 1.0
C      1  0.4905540000000  0.5008720000000  0.4639050000000 1.0
C      1  0.5291470000000  0.5505300000000  0.5490680000000 1.0
C      1  0.4543670000000  0.4088170000000  0.5994730000000 1.0
C      1  0.4816430000000  0.5158940000000  0.5216060000000 1.0
C      1  0.4270050000000  0.4927040000000  0.4012390000000 1.0
END
