TITL C-2778425-5191-1201 -2.58027158672561e-07 125000 -31.2525858947264 0 0 6 (D(inf)h) n - 1
REM
REM in /home/nfs/bkarasulu/CARBON/AIRSS/Generating-Clusters/REBO/Only-C1/SD-CG/HFTN-CG
REM
REM
REM
REM
REM
REM ./C.cell (11c1c37f851c82e70ff6c80c92926a4b)
REM
REM compiler GCC version 9.2.1 20190827 (Red Hat 9.2.1-1)
REM options -cpp -mtune=generic -march=x86-64 -g -O0 -fpre-include=/usr/include/finclude/math-vector-fortran.h
REM seed -2089149187 217636872 738262860 -2040093238 441159198 2055083515 -574744062 -2101796892 -1353088629 129037515 58196093 -1002577888 -598921623 849510543 332208272 43429465 252990020 -894969823 -597610 -1508561907 -561854356 2062440516 -1836327353 1287513778 1826804123 494378414 -1790269086 -1424012697 -37054060 -1915556529 -1619489055 308930675 -162430868
REM
CELL 1.54180   50.00000   50.00000   50.00000   90.00000   90.00000   90.00000
LATT -1
SFAC C  
C      1  0.4640150000000  0.5077310000000  0.4844750000000 1.0
C      1  0.4404070000000  0.5128040000000  0.4742890000000 1.0
C      1  0.5119950000000  0.4974230000000  0.5051750000000 1.0
C      1  0.5359850000000  0.4922690000000  0.5155250000000 1.0
C      1  0.5595930000000  0.4871960000000  0.5257110000000 1.0
C      1  0.4880050000000  0.5025770000000  0.4948250000000 1.0
END
