TITL C-2778427-5640-92 -0.000616186769798692 125000 -558.754552248755 0 0 97 (C1) n - 1
REM
REM in /home/nfs/bkarasulu/CARBON/AIRSS/Generating-Clusters/REBO/Only-C1/SD-CG/HFTN-CG
REM
REM
REM
REM
REM
REM ./C.cell (11c1c37f851c82e70ff6c80c92926a4b)
REM
REM compiler GCC version 9.2.1 20190827 (Red Hat 9.2.1-1)
REM options -cpp -mtune=generic -march=x86-64 -g -O0 -fpre-include=/usr/include/finclude/math-vector-fortran.h
REM seed 1074009836 860500210 1071783490 -249238446 -1972038911 -983551326 704410568 373114358 1304972230 1315780861 -451177816 -1888684801 -1138993484 -1796338205 910103530 1749227578 529985659 2084206608 -711922200 -1554543170 -2075206107 -255141839 913959367 -725244522 -1631490960 -1183590126 986636718 -551059034 -33587750 -1285207428 1020075965 -1362877400 1545559991
REM
CELL 1.54180   50.00000   50.00000   50.00000   90.00000   90.00000   90.00000
LATT -1
SFAC C  
C      1  0.4357490000000  0.5463870000000  0.4504390000000 1.0
C      1  0.4393450000000  0.4730480000000  0.4863100000000 1.0
C      1  0.5315640000000  0.5493510000000  0.5789430000000 1.0
C      1  0.5203280000000  0.5747920000000  0.4802930000000 1.0
C      1  0.4236120000000  0.5149230000000  0.4830100000000 1.0
C      1  0.4937950000000  0.4413580000000  0.4587030000000 1.0
C      1  0.4420950000000  0.4768490000000  0.5258490000000 1.0
C      1  0.4634850000000  0.5749060000000  0.4803110000000 1.0
C      1  0.4741320000000  0.5280820000000  0.4300820000000 1.0
C      1  0.4447450000000  0.5576910000000  0.4982190000000 1.0
C      1  0.4272850000000  0.5420260000000  0.4774770000000 1.0
C      1  0.5249640000000  0.4751670000000  0.5734210000000 1.0
C      1  0.5314950000000  0.5262340000000  0.4934300000000 1.0
C      1  0.5454550000000  0.4422050000000  0.5372380000000 1.0
C      1  0.5853760000000  0.5342260000000  0.4936970000000 1.0
C      1  0.5528510000000  0.5392630000000  0.5628590000000 1.0
C      1  0.5686860000000  0.4892200000000  0.5517810000000 1.0
C      1  0.5512360000000  0.5119050000000  0.5559100000000 1.0
C      1  0.4562570000000  0.5674740000000  0.4504890000000 1.0
C      1  0.4339060000000  0.4459910000000  0.5018300000000 1.0
C      1  0.5103920000000  0.5310320000000  0.5837770000000 1.0
C      1  0.4620220000000  0.5360070000000  0.5162260000000 1.0
C      1  0.5260180000000  0.5099460000000  0.4432850000000 1.0
C      1  0.4731850000000  0.4372540000000  0.5060170000000 1.0
C      1  0.4662800000000  0.4350120000000  0.5543930000000 1.0
C      1  0.4057130000000  0.5029750000000  0.5015910000000 1.0
C      1  0.4348720000000  0.4952080000000  0.4353260000000 1.0
C      1  0.4376050000000  0.4445770000000  0.4680340000000 1.0
C      1  0.4407300000000  0.5199840000000  0.5509850000000 1.0
C      1  0.5051010000000  0.4140400000000  0.4727130000000 1.0
C      1  0.4520740000000  0.4459000000000  0.5285760000000 1.0
C      1  0.5578250000000  0.5624680000000  0.5199760000000 1.0
C      1  0.4958280000000  0.4793750000000  0.4179590000000 1.0
C      1  0.4941510000000  0.4174940000000  0.5198310000000 1.0
C      1  0.4638110000000  0.4849420000000  0.5768470000000 1.0
C      1  0.5598990000000  0.4661160000000  0.5204400000000 1.0
C      1  0.5127020000000  0.4861950000000  0.5213760000000 1.0
C      1  0.5660400000000  0.5573400000000  0.5455170000000 1.0
C      1  0.5815160000000  0.4878370000000  0.5238910000000 1.0
C      1  0.4454500000000  0.5221520000000  0.4355230000000 1.0
C      1  0.5534730000000  0.4740440000000  0.3986100000000 1.0
C      1  0.5387370000000  0.5534820000000  0.4363130000000 1.0
C      1  0.5035620000000  0.4530760000000  0.5046180000000 1.0
C      1  0.5191540000000  0.4457570000000  0.5567340000000 1.0
C      1  0.4686190000000  0.4554370000000  0.5771810000000 1.0
C      1  0.5775040000000  0.5086020000000  0.5035440000000 1.0
C      1  0.5438720000000  0.5621270000000  0.4651640000000 1.0
C      1  0.5044240000000  0.5220490000000  0.5362490000000 1.0
C      1  0.5403230000000  0.5025310000000  0.4067250000000 1.0
C      1  0.4120960000000  0.4824100000000  0.5186530000000 1.0
C      1  0.4543610000000  0.4936750000000  0.5495680000000 1.0
C      1  0.4386810000000  0.4700190000000  0.4453960000000 1.0
C      1  0.4797630000000  0.5345040000000  0.5752200000000 1.0
C      1  0.5499710000000  0.4469360000000  0.4817470000000 1.0
C      1  0.4567730000000  0.5041290000000  0.5112690000000 1.0
C      1  0.4899560000000  0.5446820000000  0.5222970000000 1.0
C      1  0.5022080000000  0.4695490000000  0.4755920000000 1.0
C      1  0.4983030000000  0.5000200000000  0.4379420000000 1.0
C      1  0.4875250000000  0.4547940000000  0.4282270000000 1.0
C      1  0.4761790000000  0.4069750000000  0.4686760000000 1.0
C      1  0.5296860000000  0.6291950000000  0.4904470000000 1.0
C      1  0.5500480000000  0.5027420000000  0.4903720000000 1.0
C      1  0.5924120000000  0.4731150000000  0.4854420000000 1.0
C      1  0.4439330000000  0.4971570000000  0.4741720000000 1.0
C      1  0.5515270000000  0.4944690000000  0.4599140000000 1.0
C      1  0.5352420000000  0.5297000000000  0.4175620000000 1.0
C      1  0.5223050000000  0.4668180000000  0.4479710000000 1.0
C      1  0.4597820000000  0.5421690000000  0.5571420000000 1.0
C      1  0.5387910000000  0.4793540000000  0.5059180000000 1.0
C      1  0.4831560000000  0.5543870000000  0.4399620000000 1.0
C      1  0.5223250000000  0.5004380000000  0.5509830000000 1.0
C      1  0.5343810000000  0.4387690000000  0.5067480000000 1.0
C      1  0.5060090000000  0.5137450000000  0.5031450000000 1.0
C      1  0.5337660000000  0.4420040000000  0.4589370000000 1.0
C      1  0.5414390000000  0.5493220000000  0.5029560000000 1.0
C      1  0.5534680000000  0.4657430000000  0.5598080000000 1.0
C      1  0.5348690000000  0.4755300000000  0.4252120000000 1.0
C      1  0.4933720000000  0.4258690000000  0.5472610000000 1.0
C      1  0.4812500000000  0.4809830000000  0.5324090000000 1.0
C      1  0.5298620000000  0.5756490000000  0.5856680000000 1.0
C      1  0.4920910000000  0.4648610000000  0.5569720000000 1.0
C      1  0.4787090000000  0.5141010000000  0.4872330000000 1.0
C      1  0.5146810000000  0.4150480000000  0.4999180000000 1.0
C      1  0.5688630000000  0.5462600000000  0.4741200000000 1.0
C      1  0.5118050000000  0.4995770000000  0.5894880000000 1.0
C      1  0.5666260000000  0.4693360000000  0.4762840000000 1.0
C      1  0.5033190000000  0.5609160000000  0.5051520000000 1.0
C      1  0.4919200000000  0.5683350000000  0.4676190000000 1.0
C      1  0.5551590000000  0.5264620000000  0.4518010000000 1.0
C      1  0.4804890000000  0.4828130000000  0.4982420000000 1.0
C      1  0.4396580000000  0.5547190000000  0.5318140000000 1.0
C      1  0.4811850000000  0.5044970000000  0.5873980000000 1.0
C      1  0.4156970000000  0.5318750000000  0.5402540000000 1.0
C      1  0.5254310000000  0.6044600000000  0.4858300000000 1.0
C      1  0.4690910000000  0.4644660000000  0.4539470000000 1.0
C      1  0.4744790000000  0.4976840000000  0.4591840000000 1.0
C      1  0.4601110000000  0.4256840000000  0.4804160000000 1.0
END
