TITL C-2778436-5916-481 0.0669621814367631 125000 -306.250630165208 0 0 54 (C1) n - 1
REM
REM in /home/nfs/bkarasulu/CARBON/AIRSS/Generating-Clusters/REBO/Only-C1/SD-CG/HFTN-CG
REM
REM
REM
REM
REM
REM ./C.cell (11c1c37f851c82e70ff6c80c92926a4b)
REM
REM compiler GCC version 9.2.1 20190827 (Red Hat 9.2.1-1)
REM options -cpp -mtune=generic -march=x86-64 -g -O0 -fpre-include=/usr/include/finclude/math-vector-fortran.h
REM seed 764818635 -1441596439 314601892 1312705892 -480375864 -24098962 -430991340 1770817500 -255642399 1906815854 238581130 -1171073581 -1200980256 1894049575 -1337330240 -323391164 105723312 1834554548 -2004756492 -35869155 -1918231634 841113856 -92672945 -972512739 1903098517 1349962288 -1306978365 -2017013915 -718492434 -1064945846 1376408529 9977273 1864405080
REM
CELL 1.54180   50.00000   50.00000   50.00000   90.00000   90.00000   90.00000
LATT -1
SFAC C  
C      1  0.4758720000000  0.5226970000000  0.5053640000000 1.0
C      1  0.5335160000000  0.4681600000000  0.5185640000000 1.0
C      1  0.4625450000000  0.4525320000000  0.5366840000000 1.0
C      1  0.4982550000000  0.5257200000000  0.4797870000000 1.0
C      1  0.4240070000000  0.4633580000000  0.4499140000000 1.0
C      1  0.4218910000000  0.5127480000000  0.4995300000000 1.0
C      1  0.5165210000000  0.5204380000000  0.4351690000000 1.0
C      1  0.5475190000000  0.4773350000000  0.4439450000000 1.0
C      1  0.5201420000000  0.4860290000000  0.5610440000000 1.0
C      1  0.4357730000000  0.5368520000000  0.5061400000000 1.0
C      1  0.4733720000000  0.4288670000000  0.4917320000000 1.0
C      1  0.4985300000000  0.5596600000000  0.5364280000000 1.0
C      1  0.5432800000000  0.5566590000000  0.4717670000000 1.0
C      1  0.4708690000000  0.4750620000000  0.4570590000000 1.0
C      1  0.4734260000000  0.5411390000000  0.6091870000000 1.0
C      1  0.4623690000000  0.5285440000000  0.5587800000000 1.0
C      1  0.4690310000000  0.5036070000000  0.4551940000000 1.0
C      1  0.5269940000000  0.4944840000000  0.5053980000000 1.0
C      1  0.4675410000000  0.5080200000000  0.5327040000000 1.0
C      1  0.4492950000000  0.4437060000000  0.4867580000000 1.0
C      1  0.5404220000000  0.5296040000000  0.5357680000000 1.0
C      1  0.5182710000000  0.4641810000000  0.5429330000000 1.0
C      1  0.6128160000000  0.5081600000000  0.5185950000000 1.0
C      1  0.4482430000000  0.5354140000000  0.5312840000000 1.0
C      1  0.5503820000000  0.4520980000000  0.5023960000000 1.0
C      1  0.4761480000000  0.5555820000000  0.5110990000000 1.0
C      1  0.5240260000000  0.4744590000000  0.4802300000000 1.0
C      1  0.5218680000000  0.5435000000000  0.4901540000000 1.0
C      1  0.5668680000000  0.5186590000000  0.4885660000000 1.0
C      1  0.4572710000000  0.5164100000000  0.4778400000000 1.0
C      1  0.5158180000000  0.4798150000000  0.4417090000000 1.0
C      1  0.4560750000000  0.5500420000000  0.4842050000000 1.0
C      1  0.5664900000000  0.5465290000000  0.4738540000000 1.0
C      1  0.4679710000000  0.5349250000000  0.5843180000000 1.0
C      1  0.4397600000000  0.4570550000000  0.5117650000000 1.0
C      1  0.5608740000000  0.4989200000000  0.4667000000000 1.0
C      1  0.5252860000000  0.5132750000000  0.5592910000000 1.0
C      1  0.4933770000000  0.4322260000000  0.4717910000000 1.0
C      1  0.4787040000000  0.5451060000000  0.4605610000000 1.0
C      1  0.5543090000000  0.4638220000000  0.4737890000000 1.0
C      1  0.5156270000000  0.5435440000000  0.5512890000000 1.0
C      1  0.4956600000000  0.4480670000000  0.5406840000000 1.0
C      1  0.4983200000000  0.4610880000000  0.4624190000000 1.0
C      1  0.5616770000000  0.4282900000000  0.5094850000000 1.0
C      1  0.5066400000000  0.4996980000000  0.4678580000000 1.0
C      1  0.5918350000000  0.5129540000000  0.5048830000000 1.0
C      1  0.5397100000000  0.5220350000000  0.5063980000000 1.0
C      1  0.4886110000000  0.5227470000000  0.4407650000000 1.0
C      1  0.4475790000000  0.4595340000000  0.4629440000000 1.0
C      1  0.4804770000000  0.4299350000000  0.5192280000000 1.0
C      1  0.5407420000000  0.5107880000000  0.4419520000000 1.0
C      1  0.4269840000000  0.4878650000000  0.5085870000000 1.0
C      1  0.5072990000000  0.5648510000000  0.5061560000000 1.0
C      1  0.4531110000000  0.4832020000000  0.5293590000000 1.0
END
