TITL C-2778424-3986-769 -0.00205241710358581 125000 -481.159317905098 0 0 82 (C1) n - 1
REM
REM in /home/nfs/bkarasulu/CARBON/AIRSS/Generating-Clusters/REBO/Only-C1/SD-CG/HFTN-CG
REM
REM
REM
REM
REM
REM ./C.cell (11c1c37f851c82e70ff6c80c92926a4b)
REM
REM compiler GCC version 9.2.1 20190827 (Red Hat 9.2.1-1)
REM options -cpp -mtune=generic -march=x86-64 -g -O0 -fpre-include=/usr/include/finclude/math-vector-fortran.h
REM seed -409505456 -832421399 -929874934 -223687453 688312136 1244901078 -3316513 -753122077 -2074656096 -1778524032 433226343 -1173361086 1050189492 675491222 1454348537 -2012441522 -1809929133 1746047346 1239864564 961406832 -888060987 -1252952231 1720306345 1348892992 -1594843674 305048269 -1822687918 1474310884 710854067 -1447061480 -817193388 -1521476677 677988603
REM
CELL 1.54180   50.00000   50.00000   50.00000   90.00000   90.00000   90.00000
LATT -1
SFAC C  
C      1  0.5630500000000  0.4852920000000  0.5314710000000 1.0
C      1  0.5413900000000  0.5150010000000  0.5671440000000 1.0
C      1  0.5343370000000  0.5030430000000  0.5297700000000 1.0
C      1  0.4972950000000  0.5353480000000  0.5622570000000 1.0
C      1  0.4529730000000  0.4172670000000  0.5007200000000 1.0
C      1  0.5524220000000  0.4884480000000  0.5622470000000 1.0
C      1  0.4375890000000  0.5325810000000  0.5445220000000 1.0
C      1  0.5757770000000  0.5474820000000  0.4763680000000 1.0
C      1  0.4629470000000  0.4775860000000  0.4333030000000 1.0
C      1  0.4431940000000  0.5166180000000  0.5663860000000 1.0
C      1  0.4723330000000  0.5800320000000  0.4752050000000 1.0
C      1  0.5276210000000  0.4828570000000  0.4415640000000 1.0
C      1  0.5228990000000  0.4169220000000  0.4699660000000 1.0
C      1  0.4037730000000  0.4722910000000  0.5164690000000 1.0
C      1  0.5193850000000  0.4266200000000  0.5206200000000 1.0
C      1  0.5321070000000  0.4242990000000  0.4960260000000 1.0
C      1  0.4256820000000  0.5173430000000  0.5215870000000 1.0
C      1  0.5117980000000  0.5088580000000  0.4445340000000 1.0
C      1  0.5407140000000  0.4783420000000  0.4991240000000 1.0
C      1  0.5679980000000  0.4637430000000  0.4740100000000 1.0
C      1  0.4870420000000  0.4712980000000  0.4184190000000 1.0
C      1  0.4545700000000  0.4563350000000  0.4505600000000 1.0
C      1  0.5438410000000  0.6071020000000  0.5344730000000 1.0
C      1  0.4323850000000  0.4612220000000  0.4668640000000 1.0
C      1  0.5041610000000  0.4301070000000  0.5482290000000 1.0
C      1  0.4565350000000  0.5532910000000  0.5425850000000 1.0
C      1  0.4550950000000  0.6015400000000  0.4785120000000 1.0
C      1  0.5127550000000  0.5392750000000  0.4292530000000 1.0
C      1  0.5848720000000  0.4939170000000  0.5123430000000 1.0
C      1  0.4519430000000  0.5032740000000  0.4391400000000 1.0
C      1  0.5133620000000  0.4376440000000  0.4528590000000 1.0
C      1  0.5015600000000  0.4617490000000  0.4729890000000 1.0
C      1  0.4369930000000  0.4849180000000  0.4862770000000 1.0
C      1  0.5064170000000  0.4952310000000  0.5304710000000 1.0
C      1  0.4899500000000  0.4786100000000  0.3923420000000 1.0
C      1  0.4462420000000  0.5070100000000  0.4985620000000 1.0
C      1  0.4426400000000  0.5240130000000  0.4541740000000 1.0
C      1  0.4245110000000  0.4568140000000  0.4990910000000 1.0
C      1  0.5073970000000  0.4825590000000  0.5753630000000 1.0
C      1  0.4699300000000  0.4562670000000  0.5240370000000 1.0
C      1  0.5005830000000  0.5471200000000  0.5329610000000 1.0
C      1  0.5255760000000  0.5541220000000  0.4871890000000 1.0
C      1  0.4377970000000  0.5409640000000  0.4766210000000 1.0
C      1  0.5435020000000  0.5304930000000  0.5415330000000 1.0
C      1  0.5526070000000  0.4463140000000  0.4944460000000 1.0
C      1  0.5123180000000  0.5126450000000  0.5736380000000 1.0
C      1  0.4597270000000  0.4894650000000  0.5613460000000 1.0
C      1  0.4690190000000  0.4189780000000  0.4783520000000 1.0
C      1  0.5787690000000  0.5439090000000  0.5063270000000 1.0
C      1  0.4454240000000  0.4404530000000  0.5136400000000 1.0
C      1  0.5373090000000  0.5826780000000  0.5309980000000 1.0
C      1  0.5473180000000  0.5380680000000  0.5026440000000 1.0
C      1  0.5323410000000  0.4461860000000  0.5464730000000 1.0
C      1  0.5506420000000  0.4575250000000  0.5243810000000 1.0
C      1  0.4964370000000  0.5117960000000  0.4726930000000 1.0
C      1  0.5667600000000  0.5220090000000  0.4664880000000 1.0
C      1  0.5320780000000  0.4687300000000  0.5674540000000 1.0
C      1  0.4754680000000  0.4421400000000  0.4634460000000 1.0
C      1  0.4732060000000  0.5524490000000  0.5666670000000 1.0
C      1  0.4804540000000  0.4864220000000  0.5344430000000 1.0
C      1  0.4822500000000  0.4473490000000  0.5519800000000 1.0
C      1  0.4694420000000  0.5203800000000  0.4892030000000 1.0
C      1  0.5861260000000  0.4830650000000  0.4851010000000 1.0
C      1  0.5099800000000  0.4616040000000  0.4339300000000 1.0
C      1  0.4950650000000  0.5825590000000  0.4589920000000 1.0
C      1  0.5137980000000  0.5648580000000  0.4388870000000 1.0
C      1  0.4654500000000  0.5541830000000  0.4895580000000 1.0
C      1  0.5424720000000  0.5090050000000  0.4856040000000 1.0
C      1  0.4141570000000  0.4910580000000  0.5334460000000 1.0
C      1  0.5518490000000  0.4742120000000  0.4529690000000 1.0
C      1  0.5025650000000  0.5397770000000  0.4875500000000 1.0
C      1  0.5295670000000  0.5537310000000  0.5268800000000 1.0
C      1  0.5161090000000  0.4877140000000  0.4794930000000 1.0
C      1  0.4953260000000  0.5170290000000  0.4157690000000 1.0
C      1  0.5933020000000  0.5211910000000  0.5157360000000 1.0
C      1  0.4183280000000  0.5353400000000  0.4953400000000 1.0
C      1  0.5252650000000  0.5741100000000  0.4676130000000 1.0
C      1  0.4824040000000  0.4694940000000  0.5703670000000 1.0
C      1  0.4891200000000  0.4505100000000  0.5000370000000 1.0
C      1  0.4287400000000  0.4814090000000  0.5547220000000 1.0
C      1  0.4753170000000  0.5532740000000  0.5202240000000 1.0
C      1  0.5885490000000  0.5035310000000  0.4650240000000 1.0
END
