TITL C-2778437-8639-1190 -0.00345000111787605 125000 -860.55633991822 0 0 148 (C1) n - 1
REM
REM in /home/nfs/bkarasulu/CARBON/AIRSS/Generating-Clusters/REBO/Only-C1/SD-CG/HFTN-CG
REM
REM
REM
REM
REM
REM ./C.cell (11c1c37f851c82e70ff6c80c92926a4b)
REM
REM compiler GCC version 9.2.1 20190827 (Red Hat 9.2.1-1)
REM options -cpp -mtune=generic -march=x86-64 -g -O0 -fpre-include=/usr/include/finclude/math-vector-fortran.h
REM seed 788523141 -248625564 1194663335 651090076 -1623135185 6308651 -675684592 1291546661 -1184314465 406519258 172321599 468169059 76996488 615786313 687809459 -1003556283 1030055120 -1149979154 -1828337022 567527697 1215693496 856947754 2064567594 160347937 -1241317416 1006593695 -1155490355 1491413895 -226923577 1116419356 216696165 -1619293008 -328945760
REM
CELL 1.54180   50.00000   50.00000   50.00000   90.00000   90.00000   90.00000
LATT -1
SFAC C  
C      1  0.5131990000000  0.5354920000000  0.5034260000000 1.0
C      1  0.5526870000000  0.4113280000000  0.4996980000000 1.0
C      1  0.5165550000000  0.4749120000000  0.5625520000000 1.0
C      1  0.5495030000000  0.5113740000000  0.4154560000000 1.0
C      1  0.4229890000000  0.4811920000000  0.5680460000000 1.0
C      1  0.5514240000000  0.4789260000000  0.4880450000000 1.0
C      1  0.5452220000000  0.4855430000000  0.4086720000000 1.0
C      1  0.5166200000000  0.4748790000000  0.5246950000000 1.0
C      1  0.5149590000000  0.5095830000000  0.5256390000000 1.0
C      1  0.5754590000000  0.5416060000000  0.5178670000000 1.0
C      1  0.5969010000000  0.4788530000000  0.4628080000000 1.0
C      1  0.4893200000000  0.3972270000000  0.4817730000000 1.0
C      1  0.5537590000000  0.4317280000000  0.5261370000000 1.0
C      1  0.5226350000000  0.5326890000000  0.4120010000000 1.0
C      1  0.5992160000000  0.5676590000000  0.4655190000000 1.0
C      1  0.4271180000000  0.5697340000000  0.5549230000000 1.0
C      1  0.5292370000000  0.5922180000000  0.5357000000000 1.0
C      1  0.4656710000000  0.5344380000000  0.4742780000000 1.0
C      1  0.4463710000000  0.4484040000000  0.4679890000000 1.0
C      1  0.4846830000000  0.4876120000000  0.4587660000000 1.0
C      1  0.5900570000000  0.5374800000000  0.4551210000000 1.0
C      1  0.4217830000000  0.5404580000000  0.5578150000000 1.0
C      1  0.5453520000000  0.5526140000000  0.4280830000000 1.0
C      1  0.5940150000000  0.4637350000000  0.4911340000000 1.0
C      1  0.6068450000000  0.5914260000000  0.4597870000000 1.0
C      1  0.4789970000000  0.5033990000000  0.5444180000000 1.0
C      1  0.4638040000000  0.5230540000000  0.5871000000000 1.0
C      1  0.4749310000000  0.5185790000000  0.4484240000000 1.0
C      1  0.5422540000000  0.5523810000000  0.4955450000000 1.0
C      1  0.4065230000000  0.5251570000000  0.4549750000000 1.0
C      1  0.5218150000000  0.5504270000000  0.5779630000000 1.0
C      1  0.5135110000000  0.5585320000000  0.4685650000000 1.0
C      1  0.5469740000000  0.5312600000000  0.5722060000000 1.0
C      1  0.4972500000000  0.4028340000000  0.4340370000000 1.0
C      1  0.4972800000000  0.4993080000000  0.5687070000000 1.0
C      1  0.4475550000000  0.5033100000000  0.5430220000000 1.0
C      1  0.5029710000000  0.5793660000000  0.4353500000000 1.0
C      1  0.5300460000000  0.4465540000000  0.4394630000000 1.0
C      1  0.4838260000000  0.4171700000000  0.5430470000000 1.0
C      1  0.5697100000000  0.4469350000000  0.4433840000000 1.0
C      1  0.4860710000000  0.4821070000000  0.5243140000000 1.0
C      1  0.4008020000000  0.4781860000000  0.4636650000000 1.0
C      1  0.5020000000000  0.4745070000000  0.5995870000000 1.0
C      1  0.5914480000000  0.5451120000000  0.4886400000000 1.0
C      1  0.4998920000000  0.4577910000000  0.4158760000000 1.0
C      1  0.4450410000000  0.4365140000000  0.4417790000000 1.0
C      1  0.4116320000000  0.4982020000000  0.4460190000000 1.0
C      1  0.4661630000000  0.4139830000000  0.4426490000000 1.0
C      1  0.5085600000000  0.4694950000000  0.4531250000000 1.0
C      1  0.5308990000000  0.5033040000000  0.4861310000000 1.0
C      1  0.5229730000000  0.4090230000000  0.5162950000000 1.0
C      1  0.4842890000000  0.5425140000000  0.4963680000000 1.0
C      1  0.4447990000000  0.4840860000000  0.5827770000000 1.0
C      1  0.4682080000000  0.5756950000000  0.5576260000000 1.0
C      1  0.5199970000000  0.5544020000000  0.5283910000000 1.0
C      1  0.4170710000000  0.4698980000000  0.4838410000000 1.0
C      1  0.4767940000000  0.5843200000000  0.5360230000000 1.0
C      1  0.3569540000000  0.5753680000000  0.4547380000000 1.0
C      1  0.4543530000000  0.4779360000000  0.4644500000000 1.0
C      1  0.4768490000000  0.5529800000000  0.5786160000000 1.0
C      1  0.4635310000000  0.5495300000000  0.5214310000000 1.0
C      1  0.3740000000000  0.5757410000000  0.4751950000000 1.0
C      1  0.4987870000000  0.5829100000000  0.4873330000000 1.0
C      1  0.5502980000000  0.4421560000000  0.5644810000000 1.0
C      1  0.5270510000000  0.4852830000000  0.6061600000000 1.0
C      1  0.5422570000000  0.5308870000000  0.4691890000000 1.0
C      1  0.5327510000000  0.5741140000000  0.4455750000000 1.0
C      1  0.4632030000000  0.4045750000000  0.4734050000000 1.0
C      1  0.4487130000000  0.4355110000000  0.5431470000000 1.0
C      1  0.5631240000000  0.4688500000000  0.5158980000000 1.0
C      1  0.4373330000000  0.4561580000000  0.4238850000000 1.0
C      1  0.5098100000000  0.3898910000000  0.4619810000000 1.0
C      1  0.5762630000000  0.4995480000000  0.4897520000000 1.0
C      1  0.6019590000000  0.4777420000000  0.5134940000000 1.0
C      1  0.4887260000000  0.5304420000000  0.5341850000000 1.0
C      1  0.5127210000000  0.4140150000000  0.5428130000000 1.0
C      1  0.4328630000000  0.5574750000000  0.5235530000000 1.0
C      1  0.4951010000000  0.5121590000000  0.4145890000000 1.0
C      1  0.5020300000000  0.5816350000000  0.5181460000000 1.0
C      1  0.5302520000000  0.4474630000000  0.5091630000000 1.0
C      1  0.5724730000000  0.4513510000000  0.5438040000000 1.0
C      1  0.5026980000000  0.4401160000000  0.4678510000000 1.0
C      1  0.3401780000000  0.5750010000000  0.4346070000000 1.0
C      1  0.4289400000000  0.4409000000000  0.4950970000000 1.0
C      1  0.5593530000000  0.4889830000000  0.5418220000000 1.0
C      1  0.4655300000000  0.5571470000000  0.4526120000000 1.0
C      1  0.5323150000000  0.4385810000000  0.4791890000000 1.0
C      1  0.4826000000000  0.5806330000000  0.4573980000000 1.0
C      1  0.4738650000000  0.4741690000000  0.5711630000000 1.0
C      1  0.5098800000000  0.5291330000000  0.4642300000000 1.0
C      1  0.4164020000000  0.5361670000000  0.4795580000000 1.0
C      1  0.4749750000000  0.4432510000000  0.5629970000000 1.0
C      1  0.5499360000000  0.5479380000000  0.5362390000000 1.0
C      1  0.6025450000000  0.5165020000000  0.5035140000000 1.0
C      1  0.4915490000000  0.4362420000000  0.4366010000000 1.0
C      1  0.4732250000000  0.4928020000000  0.5996850000000 1.0
C      1  0.5574070000000  0.5619960000000  0.5648590000000 1.0
C      1  0.5357320000000  0.4891600000000  0.4473530000000 1.0
C      1  0.4684800000000  0.4555110000000  0.5251400000000 1.0
C      1  0.5474520000000  0.4739090000000  0.5651650000000 1.0
C      1  0.5416470000000  0.5153730000000  0.5430350000000 1.0
C      1  0.5711270000000  0.4402800000000  0.4976940000000 1.0
C      1  0.4464970000000  0.4807790000000  0.5191000000000 1.0
C      1  0.4608870000000  0.4131970000000  0.5217310000000 1.0
C      1  0.5380620000000  0.4058640000000  0.4712070000000 1.0
C      1  0.5903410000000  0.5142050000000  0.5679690000000 1.0
C      1  0.5679140000000  0.4958800000000  0.4560380000000 1.0
C      1  0.4406350000000  0.5214990000000  0.4868390000000 1.0
C      1  0.4798270000000  0.5036990000000  0.5044960000000 1.0
C      1  0.5313680000000  0.5861690000000  0.4773970000000 1.0
C      1  0.5972450000000  0.5235060000000  0.5362390000000 1.0
C      1  0.3897620000000  0.5951450000000  0.5161060000000 1.0
C      1  0.4137680000000  0.4772910000000  0.5416580000000 1.0
C      1  0.4489830000000  0.4155070000000  0.4954830000000 1.0
C      1  0.5008650000000  0.4213980000000  0.4964160000000 1.0
C      1  0.4980910000000  0.5268200000000  0.5847120000000 1.0
C      1  0.4987700000000  0.4451490000000  0.5188560000000 1.0
C      1  0.4558430000000  0.5192660000000  0.5144750000000 1.0
C      1  0.5315010000000  0.5793990000000  0.5615310000000 1.0
C      1  0.5516800000000  0.4580070000000  0.4664360000000 1.0
C      1  0.4849940000000  0.4806430000000  0.4099620000000 1.0
C      1  0.4634010000000  0.5014590000000  0.4231450000000 1.0
C      1  0.4410200000000  0.4907840000000  0.4905350000000 1.0
C      1  0.4734150000000  0.5438720000000  0.4260730000000 1.0
C      1  0.5251340000000  0.4294690000000  0.5640890000000 1.0
C      1  0.3919040000000  0.5761330000000  0.4966800000000 1.0
C      1  0.5503640000000  0.5216490000000  0.5064200000000 1.0
C      1  0.4106230000000  0.5319740000000  0.5293130000000 1.0
C      1  0.5036570000000  0.4487250000000  0.5773320000000 1.0
C      1  0.5001980000000  0.5520590000000  0.5539480000000 1.0
C      1  0.5926580000000  0.4575370000000  0.4410870000000 1.0
C      1  0.4120280000000  0.5567590000000  0.4979620000000 1.0
C      1  0.5672250000000  0.5122290000000  0.5834980000000 1.0
C      1  0.4400280000000  0.5204900000000  0.5669160000000 1.0
C      1  0.6020440000000  0.5115840000000  0.4697380000000 1.0
C      1  0.5297750000000  0.4625910000000  0.4125570000000 1.0
C      1  0.4286270000000  0.4534820000000  0.5255250000000 1.0
C      1  0.4390810000000  0.4868410000000  0.4353500000000 1.0
C      1  0.5174420000000  0.5134910000000  0.4390780000000 1.0
C      1  0.4954550000000  0.5590600000000  0.4156130000000 1.0
C      1  0.4040070000000  0.4986370000000  0.5276540000000 1.0
C      1  0.5416910000000  0.5824620000000  0.5084170000000 1.0
C      1  0.5520020000000  0.4887250000000  0.5913340000000 1.0
C      1  0.4973180000000  0.5058130000000  0.4814240000000 1.0
C      1  0.5621340000000  0.5270310000000  0.4432050000000 1.0
C      1  0.5265590000000  0.4178850000000  0.4422820000000 1.0
C      1  0.3921180000000  0.5172240000000  0.5050700000000 1.0
C      1  0.5901510000000  0.4925820000000  0.5330680000000 1.0
END
