TITL C-2778433-5640-431 0.00258019684797519 125000 -509.492129852376 0 0 87 (C1) n - 1
REM
REM in /home/nfs/bkarasulu/CARBON/AIRSS/Generating-Clusters/REBO/Only-C1/SD-CG/HFTN-CG
REM
REM
REM
REM
REM
REM ./C.cell (11c1c37f851c82e70ff6c80c92926a4b)
REM
REM compiler GCC version 9.2.1 20190827 (Red Hat 9.2.1-1)
REM options -cpp -mtune=generic -march=x86-64 -g -O0 -fpre-include=/usr/include/finclude/math-vector-fortran.h
REM seed -1241728374 -552426583 1033151491 1248253378 1634334548 1358271543 1149528377 -194326592 2022647827 -950413918 -1260688905 200515926 1834534590 -755971037 1126744281 -1103078945 1834883582 -1188917877 1083404007 -1280156872 -285606773 1049300183 -1086078166 -1828909426 -663631304 1600792385 157736271 883611324 641144706 -684082355 1043159987 -1234820009 -1619345374
REM
CELL 1.54180   50.00000   50.00000   50.00000   90.00000   90.00000   90.00000
LATT -1
SFAC C  
C      1  0.4873270000000  0.5857220000000  0.4903370000000 1.0
C      1  0.5474060000000  0.4836690000000  0.4976590000000 1.0
C      1  0.4265560000000  0.5340660000000  0.4865840000000 1.0
C      1  0.4263240000000  0.5066350000000  0.4938630000000 1.0
C      1  0.4814960000000  0.4440880000000  0.5521100000000 1.0
C      1  0.4338410000000  0.4795240000000  0.4578500000000 1.0
C      1  0.5678450000000  0.4513870000000  0.4639000000000 1.0
C      1  0.4944110000000  0.4753470000000  0.5313720000000 1.0
C      1  0.4748320000000  0.4519340000000  0.4936630000000 1.0
C      1  0.5860690000000  0.5155930000000  0.4940760000000 1.0
C      1  0.5137390000000  0.5526040000000  0.5492420000000 1.0
C      1  0.4428440000000  0.5090870000000  0.5430210000000 1.0
C      1  0.4721050000000  0.5285810000000  0.5050450000000 1.0
C      1  0.5150150000000  0.5105910000000  0.5721900000000 1.0
C      1  0.5209850000000  0.5456310000000  0.4382470000000 1.0
C      1  0.4399960000000  0.4642110000000  0.5325400000000 1.0
C      1  0.5231870000000  0.4941320000000  0.4368600000000 1.0
C      1  0.5450100000000  0.5562240000000  0.4899230000000 1.0
C      1  0.5165440000000  0.4437840000000  0.4525350000000 1.0
C      1  0.5279550000000  0.5090740000000  0.5091880000000 1.0
C      1  0.5650090000000  0.4818710000000  0.4685330000000 1.0
C      1  0.4660150000000  0.4736490000000  0.5148890000000 1.0
C      1  0.4826520000000  0.4267240000000  0.5232400000000 1.0
C      1  0.4276750000000  0.4650700000000  0.4821260000000 1.0
C      1  0.4935850000000  0.5328110000000  0.4350160000000 1.0
C      1  0.4571320000000  0.4252000000000  0.5008070000000 1.0
C      1  0.4988770000000  0.4990470000000  0.5524550000000 1.0
C      1  0.5262270000000  0.4611800000000  0.4871530000000 1.0
C      1  0.5522610000000  0.5579960000000  0.5205450000000 1.0
C      1  0.4317160000000  0.5351830000000  0.4586540000000 1.0
C      1  0.4215550000000  0.4886120000000  0.5353820000000 1.0
C      1  0.5325720000000  0.4241800000000  0.5002270000000 1.0
C      1  0.5292590000000  0.5768820000000  0.5336850000000 1.0
C      1  0.5482910000000  0.4624690000000  0.5702060000000 1.0
C      1  0.5232040000000  0.4959710000000  0.5948080000000 1.0
C      1  0.5096760000000  0.5897620000000  0.5151620000000 1.0
C      1  0.4539870000000  0.5100480000000  0.4250780000000 1.0
C      1  0.5170910000000  0.5595610000000  0.4851010000000 1.0
C      1  0.4747460000000  0.5091710000000  0.5306850000000 1.0
C      1  0.5039380000000  0.4427420000000  0.5011350000000 1.0
C      1  0.5777810000000  0.5104530000000  0.4638960000000 1.0
C      1  0.5436750000000  0.4368270000000  0.4716300000000 1.0
C      1  0.4726340000000  0.5696390000000  0.4638370000000 1.0
C      1  0.5569120000000  0.4828100000000  0.5520310000000 1.0
C      1  0.5384160000000  0.4388310000000  0.5584230000000 1.0
C      1  0.5762870000000  0.4934000000000  0.5089850000000 1.0
C      1  0.4623500000000  0.4667990000000  0.4459470000000 1.0
C      1  0.4717680000000  0.4179600000000  0.4728300000000 1.0
C      1  0.4328200000000  0.5071450000000  0.4459910000000 1.0
C      1  0.4563410000000  0.4994730000000  0.4966830000000 1.0
C      1  0.5366660000000  0.5026720000000  0.5399350000000 1.0
C      1  0.4985420000000  0.4988290000000  0.5077990000000 1.0
C      1  0.4800900000000  0.5752040000000  0.5226440000000 1.0
C      1  0.4914240000000  0.4975860000000  0.4783340000000 1.0
C      1  0.5120640000000  0.4114340000000  0.5243570000000 1.0
C      1  0.4559470000000  0.5746450000000  0.4930580000000 1.0
C      1  0.4621900000000  0.4942530000000  0.5655940000000 1.0
C      1  0.4525150000000  0.5413200000000  0.5375010000000 1.0
C      1  0.5375650000000  0.4724950000000  0.5946010000000 1.0
C      1  0.5234190000000  0.5400550000000  0.5193990000000 1.0
C      1  0.5359300000000  0.5308000000000  0.5574620000000 1.0
C      1  0.4670760000000  0.5353220000000  0.4289440000000 1.0
C      1  0.5648550000000  0.5326000000000  0.5393790000000 1.0
C      1  0.5084630000000  0.5131730000000  0.4579050000000 1.0
C      1  0.4694480000000  0.4762060000000  0.4752360000000 1.0
C      1  0.4712060000000  0.4874260000000  0.4229930000000 1.0
C      1  0.5348520000000  0.4724020000000  0.4557290000000 1.0
C      1  0.5847080000000  0.5370380000000  0.5118630000000 1.0
C      1  0.5053790000000  0.5619590000000  0.4596720000000 1.0
C      1  0.5661430000000  0.5226470000000  0.4368000000000 1.0
C      1  0.5390240000000  0.5232070000000  0.4340550000000 1.0
C      1  0.4825730000000  0.5536000000000  0.5482790000000 1.0
C      1  0.4919790000000  0.4556230000000  0.4343550000000 1.0
C      1  0.4953170000000  0.5498750000000  0.5064970000000 1.0
C      1  0.4361440000000  0.4497380000000  0.5035610000000 1.0
C      1  0.5571100000000  0.5342920000000  0.4738910000000 1.0
C      1  0.5301270000000  0.5212500000000  0.4779780000000 1.0
C      1  0.4532360000000  0.5517370000000  0.4477350000000 1.0
C      1  0.5093370000000  0.4309890000000  0.5522930000000 1.0
C      1  0.4685730000000  0.5276930000000  0.5651890000000 1.0
C      1  0.4635860000000  0.4655570000000  0.5550980000000 1.0
C      1  0.4087290000000  0.4953410000000  0.5123750000000 1.0
C      1  0.5012290000000  0.4817560000000  0.4194610000000 1.0
C      1  0.4914020000000  0.4251240000000  0.4599290000000 1.0
C      1  0.4461310000000  0.5490310000000  0.5055110000000 1.0
C      1  0.5760820000000  0.5006100000000  0.5366340000000 1.0
C      1  0.5429970000000  0.4231640000000  0.5326040000000 1.0
END
