TITL C-2778431-5191-670 0.00418720802218789 125000 -1072.6936609437 0 0 185 (C1) n - 1
REM
REM in /home/nfs/bkarasulu/CARBON/AIRSS/Generating-Clusters/REBO/Only-C1/SD-CG/HFTN-CG
REM
REM
REM
REM
REM
REM ./C.cell (11c1c37f851c82e70ff6c80c92926a4b)
REM
REM compiler GCC version 9.2.1 20190827 (Red Hat 9.2.1-1)
REM options -cpp -mtune=generic -march=x86-64 -g -O0 -fpre-include=/usr/include/finclude/math-vector-fortran.h
REM seed 2131798018 1785890161 -938602364 -2090615625 -1995770749 936514797 -1323155776 -1450659590 161802964 -1293993676 -560235306 1185130271 -1239811444 1620171204 1566054977 -210004632 -1807681522 1588368072 2062598988 755569135 -906599639 -450476056 1588564049 146234455 -1264099723 -296331131 -492175715 -3231100 2134064613 -225957621 -643297811 1164206621 1725069508
REM
CELL 1.54180   50.00000   50.00000   50.00000   90.00000   90.00000   90.00000
LATT -1
SFAC C  
C      1  0.5858140000000  0.4631030000000  0.4566680000000 1.0
C      1  0.4558410000000  0.5792980000000  0.4840560000000 1.0
C      1  0.4717310000000  0.5698950000000  0.5922300000000 1.0
C      1  0.4787540000000  0.4120570000000  0.5536190000000 1.0
C      1  0.4660880000000  0.4264720000000  0.5777040000000 1.0
C      1  0.4979120000000  0.5513020000000  0.4290930000000 1.0
C      1  0.5277110000000  0.4748970000000  0.4717400000000 1.0
C      1  0.5965070000000  0.5081630000000  0.5316930000000 1.0
C      1  0.5276530000000  0.5090890000000  0.4510280000000 1.0
C      1  0.5630150000000  0.4377480000000  0.4559210000000 1.0
C      1  0.5128020000000  0.4458070000000  0.4623330000000 1.0
C      1  0.4635010000000  0.4606160000000  0.5263440000000 1.0
C      1  0.5171530000000  0.5830330000000  0.4783370000000 1.0
C      1  0.5369750000000  0.5616240000000  0.4174990000000 1.0
C      1  0.4894060000000  0.4674420000000  0.4638270000000 1.0
C      1  0.4482300000000  0.4339750000000  0.5117190000000 1.0
C      1  0.5623620000000  0.4137270000000  0.4799790000000 1.0
C      1  0.5534140000000  0.4592660000000  0.4808290000000 1.0
C      1  0.5303300000000  0.5757500000000  0.4399030000000 1.0
C      1  0.3978450000000  0.4617910000000  0.4604980000000 1.0
C      1  0.5467920000000  0.4815490000000  0.4452450000000 1.0
C      1  0.4445320000000  0.4146460000000  0.4837190000000 1.0
C      1  0.5726490000000  0.5903820000000  0.5220570000000 1.0
C      1  0.4112880000000  0.5013290000000  0.4787510000000 1.0
C      1  0.5258150000000  0.5819840000000  0.5887520000000 1.0
C      1  0.4453100000000  0.4938800000000  0.4998960000000 1.0
C      1  0.4839320000000  0.4380600000000  0.5345970000000 1.0
C      1  0.4931090000000  0.5818460000000  0.5783600000000 1.0
C      1  0.5300680000000  0.4185950000000  0.4572010000000 1.0
C      1  0.5951540000000  0.4688410000000  0.5246730000000 1.0
C      1  0.4993340000000  0.5670860000000  0.4052490000000 1.0
C      1  0.4270330000000  0.5773370000000  0.5217160000000 1.0
C      1  0.5752100000000  0.4649580000000  0.4033740000000 1.0
C      1  0.5347860000000  0.5497740000000  0.5949840000000 1.0
C      1  0.4616860000000  0.5321210000000  0.4709170000000 1.0
C      1  0.5128900000000  0.6180300000000  0.5084930000000 1.0
C      1  0.4809430000000  0.4837010000000  0.5145120000000 1.0
C      1  0.5206590000000  0.5256250000000  0.5808940000000 1.0
C      1  0.5276140000000  0.4804300000000  0.5370300000000 1.0
C      1  0.5083070000000  0.6124640000000  0.5373860000000 1.0
C      1  0.4508500000000  0.5118020000000  0.5228590000000 1.0
C      1  0.4611840000000  0.5997560000000  0.4600450000000 1.0
C      1  0.4093860000000  0.5151080000000  0.5494190000000 1.0
C      1  0.4307170000000  0.4855450000000  0.4168910000000 1.0
C      1  0.5751520000000  0.5143160000000  0.4851280000000 1.0
C      1  0.5194520000000  0.5374130000000  0.4886660000000 1.0
C      1  0.5333370000000  0.4063270000000  0.6140650000000 1.0
C      1  0.4394540000000  0.5173450000000  0.4180300000000 1.0
C      1  0.5742530000000  0.5352310000000  0.5535650000000 1.0
C      1  0.5274650000000  0.4837390000000  0.4103170000000 1.0
C      1  0.4245820000000  0.5310940000000  0.5696600000000 1.0
C      1  0.4431580000000  0.4459650000000  0.5849640000000 1.0
C      1  0.5482980000000  0.5628140000000  0.5013670000000 1.0
C      1  0.5311550000000  0.5577240000000  0.4658910000000 1.0
C      1  0.4423030000000  0.4611790000000  0.4926300000000 1.0
C      1  0.5512960000000  0.5531470000000  0.5421610000000 1.0
C      1  0.4710890000000  0.4471010000000  0.4818070000000 1.0
C      1  0.5374250000000  0.5349960000000  0.4123250000000 1.0
C      1  0.4604550000000  0.5213360000000  0.6009790000000 1.0
C      1  0.4176720000000  0.4614340000000  0.5736140000000 1.0
C      1  0.4580290000000  0.4071740000000  0.4360920000000 1.0
C      1  0.4749330000000  0.4271220000000  0.4578700000000 1.0
C      1  0.5059110000000  0.3898690000000  0.4710200000000 1.0
C      1  0.5066970000000  0.6000700000000  0.4438150000000 1.0
C      1  0.5111290000000  0.3905330000000  0.5178700000000 1.0
C      1  0.4024580000000  0.5255710000000  0.5011140000000 1.0
C      1  0.4452660000000  0.5963630000000  0.5058500000000 1.0
C      1  0.5553880000000  0.5175520000000  0.4316950000000 1.0
C      1  0.4941600000000  0.4030960000000  0.4502440000000 1.0
C      1  0.5187790000000  0.5174100000000  0.5269020000000 1.0
C      1  0.4519030000000  0.5853040000000  0.5436490000000 1.0
C      1  0.4346040000000  0.5121550000000  0.5891700000000 1.0
C      1  0.3967890000000  0.5071220000000  0.5252280000000 1.0
C      1  0.5321850000000  0.4550070000000  0.4377220000000 1.0
C      1  0.5274100000000  0.4757580000000  0.5895460000000 1.0
C      1  0.4025980000000  0.4795400000000  0.5219280000000 1.0
C      1  0.4601910000000  0.4916340000000  0.4520780000000 1.0
C      1  0.4817750000000  0.4576700000000  0.4259810000000 1.0
C      1  0.4874460000000  0.5766640000000  0.4792060000000 1.0
C      1  0.5474670000000  0.4647060000000  0.5141800000000 1.0
C      1  0.4460490000000  0.5516270000000  0.4898890000000 1.0
C      1  0.5274570000000  0.5956160000000  0.5567790000000 1.0
C      1  0.4485200000000  0.4719730000000  0.5507770000000 1.0
C      1  0.5159600000000  0.5119580000000  0.4015860000000 1.0
C      1  0.4873770000000  0.6212670000000  0.4936300000000 1.0
C      1  0.5991310000000  0.5397800000000  0.5373270000000 1.0
C      1  0.5110120000000  0.4999580000000  0.4794190000000 1.0
C      1  0.4151290000000  0.4667140000000  0.5439640000000 1.0
C      1  0.5417110000000  0.5189900000000  0.5059690000000 1.0
C      1  0.4643890000000  0.6163010000000  0.5117150000000 1.0
C      1  0.4115150000000  0.5564140000000  0.5127380000000 1.0
C      1  0.5747270000000  0.4816300000000  0.4898800000000 1.0
C      1  0.4365530000000  0.4167480000000  0.4574240000000 1.0
C      1  0.5956730000000  0.5664320000000  0.5164750000000 1.0
C      1  0.4911360000000  0.4414620000000  0.5050090000000 1.0
C      1  0.4547380000000  0.5366740000000  0.4387630000000 1.0
C      1  0.4864890000000  0.4711380000000  0.3879730000000 1.0
C      1  0.4853900000000  0.5029100000000  0.6147820000000 1.0
C      1  0.4568130000000  0.4651690000000  0.4392770000000 1.0
C      1  0.4160400000000  0.4646260000000  0.4373650000000 1.0
C      1  0.5059110000000  0.4735980000000  0.4346120000000 1.0
C      1  0.5615070000000  0.4614990000000  0.5448580000000 1.0
C      1  0.5039270000000  0.5940330000000  0.4110210000000 1.0
C      1  0.5536800000000  0.5833740000000  0.5425300000000 1.0
C      1  0.5165010000000  0.5639470000000  0.5629890000000 1.0
C      1  0.4546530000000  0.4682350000000  0.6049800000000 1.0
C      1  0.6097340000000  0.4897070000000  0.5073310000000 1.0
C      1  0.5264020000000  0.5722130000000  0.5155560000000 1.0
C      1  0.4870930000000  0.4186510000000  0.4207880000000 1.0
C      1  0.4735330000000  0.4869400000000  0.4831210000000 1.0
C      1  0.4924720000000  0.5304270000000  0.5971610000000 1.0
C      1  0.5259490000000  0.4328730000000  0.5652080000000 1.0
C      1  0.5921670000000  0.4539240000000  0.4877350000000 1.0
C      1  0.5406740000000  0.4155120000000  0.5403040000000 1.0
C      1  0.5935810000000  0.4931270000000  0.4565850000000 1.0
C      1  0.5088660000000  0.4037380000000  0.5440730000000 1.0
C      1  0.4646370000000  0.5008430000000  0.4026850000000 1.0
C      1  0.5824100000000  0.5192020000000  0.4468260000000 1.0
C      1  0.5784120000000  0.5722760000000  0.4871420000000 1.0
C      1  0.4654040000000  0.3996010000000  0.5010680000000 1.0
C      1  0.5662740000000  0.5395540000000  0.5148090000000 1.0
C      1  0.4363400000000  0.5003060000000  0.5475790000000 1.0
C      1  0.4928800000000  0.5682410000000  0.4504010000000 1.0
C      1  0.5568650000000  0.5408330000000  0.4760830000000 1.0
C      1  0.4921960000000  0.3897990000000  0.4963940000000 1.0
C      1  0.4817290000000  0.4530520000000  0.5922340000000 1.0
C      1  0.4154340000000  0.5300670000000  0.4513940000000 1.0
C      1  0.5854880000000  0.4408810000000  0.5145300000000 1.0
C      1  0.4858480000000  0.6139110000000  0.4650580000000 1.0
C      1  0.4544100000000  0.4686340000000  0.3992570000000 1.0
C      1  0.5320240000000  0.4246950000000  0.4901780000000 1.0
C      1  0.5389590000000  0.3896390000000  0.4726720000000 1.0
C      1  0.5046600000000  0.5213090000000  0.4306790000000 1.0
C      1  0.4988310000000  0.5654150000000  0.5274460000000 1.0
C      1  0.4986720000000  0.4786590000000  0.5990840000000 1.0
C      1  0.5104610000000  0.4579780000000  0.3981690000000 1.0
C      1  0.4192340000000  0.5404640000000  0.4770620000000 1.0
C      1  0.4605690000000  0.5467140000000  0.5794190000000 1.0
C      1  0.4587770000000  0.4075400000000  0.5295790000000 1.0
C      1  0.5155470000000  0.4315230000000  0.4107280000000 1.0
C      1  0.5645480000000  0.5084230000000  0.5642380000000 1.0
C      1  0.5340350000000  0.5079840000000  0.5559000000000 1.0
C      1  0.4762580000000  0.5038820000000  0.5414880000000 1.0
C      1  0.5693740000000  0.4404810000000  0.4056570000000 1.0
C      1  0.5299760000000  0.4184040000000  0.5918370000000 1.0
C      1  0.4858480000000  0.5009930000000  0.6448360000000 1.0
C      1  0.5664270000000  0.4332520000000  0.5506750000000 1.0
C      1  0.5321030000000  0.6037440000000  0.4917820000000 1.0
C      1  0.5346240000000  0.4634100000000  0.5648810000000 1.0
C      1  0.5802250000000  0.4853740000000  0.5501890000000 1.0
C      1  0.5877550000000  0.5469500000000  0.4657820000000 1.0
C      1  0.4144720000000  0.4979110000000  0.4446610000000 1.0
C      1  0.5387880000000  0.3952070000000  0.5060520000000 1.0
C      1  0.4526740000000  0.5909700000000  0.4350380000000 1.0
C      1  0.3963250000000  0.4393450000000  0.4994740000000 1.0
C      1  0.4916550000000  0.5022200000000  0.3851040000000 1.0
C      1  0.5216150000000  0.5435510000000  0.5426800000000 1.0
C      1  0.5951550000000  0.5379550000000  0.4977890000000 1.0
C      1  0.5685150000000  0.5000150000000  0.5149230000000 1.0
C      1  0.3865370000000  0.4165480000000  0.5054520000000 1.0
C      1  0.4598970000000  0.4372610000000  0.4112390000000 1.0
C      1  0.4743750000000  0.6116420000000  0.5404520000000 1.0
C      1  0.5675190000000  0.5064670000000  0.5947390000000 1.0
C      1  0.4973720000000  0.4462090000000  0.5626610000000 1.0
C      1  0.5630320000000  0.4178880000000  0.5141780000000 1.0
C      1  0.4755210000000  0.5107410000000  0.4328510000000 1.0
C      1  0.4815690000000  0.4749480000000  0.5588980000000 1.0
C      1  0.4845970000000  0.5819710000000  0.5473840000000 1.0
C      1  0.5590340000000  0.4876060000000  0.4157870000000 1.0
C      1  0.5469690000000  0.4308410000000  0.4256460000000 1.0
C      1  0.4884740000000  0.5247290000000  0.4824770000000 1.0
C      1  0.6107510000000  0.4960040000000  0.4801530000000 1.0
C      1  0.4315310000000  0.4837090000000  0.5910780000000 1.0
C      1  0.5208290000000  0.4487740000000  0.5013640000000 1.0
C      1  0.4427940000000  0.5539960000000  0.5522530000000 1.0
C      1  0.5604680000000  0.6002510000000  0.4955250000000 1.0
C      1  0.4819830000000  0.5262620000000  0.5645120000000 1.0
C      1  0.4956380000000  0.5372100000000  0.5130090000000 1.0
C      1  0.5115500000000  0.4808980000000  0.5077180000000 1.0
C      1  0.4355960000000  0.4401520000000  0.4351200000000 1.0
C      1  0.4995260000000  0.4993580000000  0.5734790000000 1.0
C      1  0.4524940000000  0.5649560000000  0.4287280000000 1.0
C      1  0.4477950000000  0.5420950000000  0.5207810000000 1.0
C      1  0.4093450000000  0.4696670000000  0.4915240000000 1.0
C      1  0.4419620000000  0.5080500000000  0.4715690000000 1.0
END
