TITL C-2778435-5768-281 -0.101992219142097 125000 -253.00895189608 0 0 44 (C1) n - 1
REM
REM in /home/nfs/bkarasulu/CARBON/AIRSS/Generating-Clusters/REBO/Only-C1/SD-CG/HFTN-CG
REM
REM
REM
REM
REM
REM ./C.cell (11c1c37f851c82e70ff6c80c92926a4b)
REM
REM compiler GCC version 9.2.1 20190827 (Red Hat 9.2.1-1)
REM options -cpp -mtune=generic -march=x86-64 -g -O0 -fpre-include=/usr/include/finclude/math-vector-fortran.h
REM seed -2066029447 2096316698 1028103182 1544571493 -559403914 654572419 22610582 -1244185475 -898431787 -1494292326 -273917874 -1627178214 -882676676 962032066 -1315900088 756013944 956291162 -2086778490 1292628223 -440654353 -1820756246 126540021 360809405 -324602536 -1985875399 1368058333 -561936724 506883368 -678279357 1283682204 1854065280 -952866636 -371958206
REM
CELL 1.54180   50.00000   50.00000   50.00000   90.00000   90.00000   90.00000
LATT -1
SFAC C  
C      1  0.5675010000000  0.4618170000000  0.5475410000000 1.0
C      1  0.3854010000000  0.3988970000000  0.4703910000000 1.0
C      1  0.5432390000000  0.5564740000000  0.5210650000000 1.0
C      1  0.5375890000000  0.4665240000000  0.5592350000000 1.0
C      1  0.4856000000000  0.4641860000000  0.5292510000000 1.0
C      1  0.4760810000000  0.5453720000000  0.5330150000000 1.0
C      1  0.4713610000000  0.5376280000000  0.4418360000000 1.0
C      1  0.5792280000000  0.4967040000000  0.4959210000000 1.0
C      1  0.5088300000000  0.4710100000000  0.5532120000000 1.0
C      1  0.4479020000000  0.5460960000000  0.4840660000000 1.0
C      1  0.4045870000000  0.4161220000000  0.4770520000000 1.0
C      1  0.5818120000000  0.4684620000000  0.4988540000000 1.0
C      1  0.4537580000000  0.5132700000000  0.5270500000000 1.0
C      1  0.3665200000000  0.3819450000000  0.4638350000000 1.0
C      1  0.4951870000000  0.5653410000000  0.5341310000000 1.0
C      1  0.4549610000000  0.5268720000000  0.4626040000000 1.0
C      1  0.5113470000000  0.5305050000000  0.4674740000000 1.0
C      1  0.4433010000000  0.4508790000000  0.4904940000000 1.0
C      1  0.5119590000000  0.4963270000000  0.4992410000000 1.0
C      1  0.4663040000000  0.5237750000000  0.5534730000000 1.0
C      1  0.5658920000000  0.4547350000000  0.4796690000000 1.0
C      1  0.5327560000000  0.4924320000000  0.4808220000000 1.0
C      1  0.5834750000000  0.4576160000000  0.5250350000000 1.0
C      1  0.4587410000000  0.4787050000000  0.4851450000000 1.0
C      1  0.4669680000000  0.4596510000000  0.5103720000000 1.0
C      1  0.5143590000000  0.5545060000000  0.4246470000000 1.0
C      1  0.5561350000000  0.5257270000000  0.4446440000000 1.0
C      1  0.5210710000000  0.5699940000000  0.5281700000000 1.0
C      1  0.4326360000000  0.5685120000000  0.4861620000000 1.0
C      1  0.5430260000000  0.4678670000000  0.4719520000000 1.0
C      1  0.4995100000000  0.5416600000000  0.4444310000000 1.0
C      1  0.5603710000000  0.5178170000000  0.4947050000000 1.0
C      1  0.4774840000000  0.5080900000000  0.5735430000000 1.0
C      1  0.4662530000000  0.5032350000000  0.4759690000000 1.0
C      1  0.4237740000000  0.4333480000000  0.4837140000000 1.0
C      1  0.5074220000000  0.4856730000000  0.5235630000000 1.0
C      1  0.4927050000000  0.5167200000000  0.4883410000000 1.0
C      1  0.5283210000000  0.5665840000000  0.4060460000000 1.0
C      1  0.5574690000000  0.4915920000000  0.5546200000000 1.0
C      1  0.5556280000000  0.5314870000000  0.5189770000000 1.0
C      1  0.4681920000000  0.5321350000000  0.5035350000000 1.0
C      1  0.4939280000000  0.4866830000000  0.5755240000000 1.0
C      1  0.5420060000000  0.5207350000000  0.4680840000000 1.0
C      1  0.5594090000000  0.5162910000000  0.5425860000000 1.0
END
