TITL C-2778430-5657-181 -0.000872721555889734 125000 -494.65211457264 0 0 86 (C1) n - 1
REM
REM in /home/nfs/bkarasulu/CARBON/AIRSS/Generating-Clusters/REBO/Only-C1/SD-CG/HFTN-CG
REM
REM
REM
REM
REM
REM ./C.cell (11c1c37f851c82e70ff6c80c92926a4b)
REM
REM compiler GCC version 9.2.1 20190827 (Red Hat 9.2.1-1)
REM options -cpp -mtune=generic -march=x86-64 -g -O0 -fpre-include=/usr/include/finclude/math-vector-fortran.h
REM seed -110710868 -1143082900 68362001 -183048673 91557560 -350443849 936607639 -625058750 1824150884 -84517501 -728460935 161305270 -537346103 -943348042 -842284205 -647246826 80626510 -19843070 -1968190150 -1816348941 2140886309 1963882686 203098 325592500 164406048 786304139 1932651238 692597699 595902849 710206486 449351374 299871957 1103090571
REM
CELL 1.54180   50.00000   50.00000   50.00000   90.00000   90.00000   90.00000
LATT -1
SFAC C  
C      1  0.5698030000000  0.5256630000000  0.4890900000000 1.0
C      1  0.4935700000000  0.4716550000000  0.4831750000000 1.0
C      1  0.5014880000000  0.4637420000000  0.5251980000000 1.0
C      1  0.4562460000000  0.5272800000000  0.4383270000000 1.0
C      1  0.5656450000000  0.5354180000000  0.5417840000000 1.0
C      1  0.5697110000000  0.5067190000000  0.5369480000000 1.0
C      1  0.4697710000000  0.5415580000000  0.5429630000000 1.0
C      1  0.5299920000000  0.4630880000000  0.5442710000000 1.0
C      1  0.5232230000000  0.4520490000000  0.4387960000000 1.0
C      1  0.4959080000000  0.4550370000000  0.4346260000000 1.0
C      1  0.4842580000000  0.5341780000000  0.4333440000000 1.0
C      1  0.5262930000000  0.5704490000000  0.5129250000000 1.0
C      1  0.4894810000000  0.5728240000000  0.4891880000000 1.0
C      1  0.4938760000000  0.4398180000000  0.4869050000000 1.0
C      1  0.5047960000000  0.4981610000000  0.5797880000000 1.0
C      1  0.5482770000000  0.4905960000000  0.5505840000000 1.0
C      1  0.4797720000000  0.5877350000000  0.5358440000000 1.0
C      1  0.5837840000000  0.4799030000000  0.4645460000000 1.0
C      1  0.4358570000000  0.5074680000000  0.5398010000000 1.0
C      1  0.4684440000000  0.5845990000000  0.5101900000000 1.0
C      1  0.5067240000000  0.4962990000000  0.5026390000000 1.0
C      1  0.5646060000000  0.4645230000000  0.5155650000000 1.0
C      1  0.5460790000000  0.4878520000000  0.5108820000000 1.0
C      1  0.4458550000000  0.4537080000000  0.5149980000000 1.0
C      1  0.4878500000000  0.5339670000000  0.5242140000000 1.0
C      1  0.5408800000000  0.5446630000000  0.5240440000000 1.0
C      1  0.5814350000000  0.5064680000000  0.5094450000000 1.0
C      1  0.5126670000000  0.4231230000000  0.5049040000000 1.0
C      1  0.5262620000000  0.4632110000000  0.5044600000000 1.0
C      1  0.4427740000000  0.5558270000000  0.5402850000000 1.0
C      1  0.4641450000000  0.4534620000000  0.4381100000000 1.0
C      1  0.5533050000000  0.4342300000000  0.4815280000000 1.0
C      1  0.5648230000000  0.5067570000000  0.4659500000000 1.0
C      1  0.5218490000000  0.5671160000000  0.4791910000000 1.0
C      1  0.5406850000000  0.4261100000000  0.5067140000000 1.0
C      1  0.4428020000000  0.5380000000000  0.4645740000000 1.0
C      1  0.4684920000000  0.5601240000000  0.4661770000000 1.0
C      1  0.4891920000000  0.5213410000000  0.4706890000000 1.0
C      1  0.4900650000000  0.4923900000000  0.4588190000000 1.0
C      1  0.5081640000000  0.5560660000000  0.5561030000000 1.0
C      1  0.4616650000000  0.4772310000000  0.4868520000000 1.0
C      1  0.4626100000000  0.5766810000000  0.5586480000000 1.0
C      1  0.5768540000000  0.4551510000000  0.4869750000000 1.0
C      1  0.5932770000000  0.4838730000000  0.4962830000000 1.0
C      1  0.5404100000000  0.4761590000000  0.4299820000000 1.0
C      1  0.5002670000000  0.5512690000000  0.4577570000000 1.0
C      1  0.4436110000000  0.4420920000000  0.4830090000000 1.0
C      1  0.4265890000000  0.5357840000000  0.5269840000000 1.0
C      1  0.4286140000000  0.4714890000000  0.4916230000000 1.0
C      1  0.4533180000000  0.5070020000000  0.5112960000000 1.0
C      1  0.4518910000000  0.4997630000000  0.4353780000000 1.0
C      1  0.4689170000000  0.4256170000000  0.4839420000000 1.0
C      1  0.4433290000000  0.4591770000000  0.4564230000000 1.0
C      1  0.5007540000000  0.5077470000000  0.5317900000000 1.0
C      1  0.4983970000000  0.5447110000000  0.5016180000000 1.0
C      1  0.5280290000000  0.5054150000000  0.4318440000000 1.0
C      1  0.5215000000000  0.5310130000000  0.5455440000000 1.0
C      1  0.5340110000000  0.5019440000000  0.4638490000000 1.0
C      1  0.4498140000000  0.4777510000000  0.5387120000000 1.0
C      1  0.4530400000000  0.5585310000000  0.4967670000000 1.0
C      1  0.5441740000000  0.5335010000000  0.4417260000000 1.0
C      1  0.4324950000000  0.5042830000000  0.4842610000000 1.0
C      1  0.5475490000000  0.5457880000000  0.4726340000000 1.0
C      1  0.5071960000000  0.5768710000000  0.5359320000000 1.0
C      1  0.4674350000000  0.4008050000000  0.5014570000000 1.0
C      1  0.5364860000000  0.4346270000000  0.4580300000000 1.0
C      1  0.4861620000000  0.4172130000000  0.5189770000000 1.0
C      1  0.4747400000000  0.4812250000000  0.5171080000000 1.0
C      1  0.4837040000000  0.4956170000000  0.5537220000000 1.0
C      1  0.5499520000000  0.4428120000000  0.5291880000000 1.0
C      1  0.5340440000000  0.4707760000000  0.4768050000000 1.0
C      1  0.4498100000000  0.5105620000000  0.5687310000000 1.0
C      1  0.4378750000000  0.4870700000000  0.4562250000000 1.0
C      1  0.5334470000000  0.5161100000000  0.5104010000000 1.0
C      1  0.5553840000000  0.4695660000000  0.4548480000000 1.0
C      1  0.4776780000000  0.5190510000000  0.5776440000000 1.0
C      1  0.4772690000000  0.4817390000000  0.4244200000000 1.0
C      1  0.4982010000000  0.5066170000000  0.4289520000000 1.0
C      1  0.4742290000000  0.4434620000000  0.5296890000000 1.0
C      1  0.4269150000000  0.5361610000000  0.4949950000000 1.0
C      1  0.5207230000000  0.5272830000000  0.4821700000000 1.0
C      1  0.5063890000000  0.4664330000000  0.5674790000000 1.0
C      1  0.5304070000000  0.5088170000000  0.5650390000000 1.0
C      1  0.4757900000000  0.4636130000000  0.5556530000000 1.0
C      1  0.4649500000000  0.5272450000000  0.4886460000000 1.0
C      1  0.4812540000000  0.5511750000000  0.5724090000000 1.0
END
