TITL C-2778435-5768-398 0.0160080551178455 125000 -181.347142302721 0 0 33 (C1) n - 1
REM
REM in /home/nfs/bkarasulu/CARBON/AIRSS/Generating-Clusters/REBO/Only-C1/SD-CG/HFTN-CG
REM
REM
REM
REM
REM
REM ./C.cell (11c1c37f851c82e70ff6c80c92926a4b)
REM
REM compiler GCC version 9.2.1 20190827 (Red Hat 9.2.1-1)
REM options -cpp -mtune=generic -march=x86-64 -g -O0 -fpre-include=/usr/include/finclude/math-vector-fortran.h
REM seed 548012934 1541036487 1039318589 -90713959 875549179 -1714002322 1546342801 1007413539 1948276313 579222471 185419821 2073820263 1520211005 -539819381 950080587 -1237715973 -114262670 -2083526706 1842043002 -455001578 56170401 -593484849 -1985662397 -640649452 1854208501 -1093479110 916827260 314709669 805967214 971294617 -879370323 1886620003 -1565399077
REM
CELL 1.54180   50.00000   50.00000   50.00000   90.00000   90.00000   90.00000
LATT -1
SFAC C  
C      1  0.5374840000000  0.5384610000000  0.5424970000000 1.0
C      1  0.4230180000000  0.5463650000000  0.5477050000000 1.0
C      1  0.5281740000000  0.4833160000000  0.4922380000000 1.0
C      1  0.4383630000000  0.5365920000000  0.5268550000000 1.0
C      1  0.4678300000000  0.5433100000000  0.4591440000000 1.0
C      1  0.5850180000000  0.5319450000000  0.4915250000000 1.0
C      1  0.4677120000000  0.5209280000000  0.5315230000000 1.0
C      1  0.4646700000000  0.4618070000000  0.5110600000000 1.0
C      1  0.4414790000000  0.4524930000000  0.4725080000000 1.0
C      1  0.4250420000000  0.4689190000000  0.4889770000000 1.0
C      1  0.5900210000000  0.3793560000000  0.5494960000000 1.0
C      1  0.4384350000000  0.5525310000000  0.5006830000000 1.0
C      1  0.5584350000000  0.5281930000000  0.4919850000000 1.0
C      1  0.5324590000000  0.5107570000000  0.5033170000000 1.0
C      1  0.5409900000000  0.4617730000000  0.5041030000000 1.0
C      1  0.4502090000000  0.5535270000000  0.4766940000000 1.0
C      1  0.4428740000000  0.5039940000000  0.5220790000000 1.0
C      1  0.4405170000000  0.4787860000000  0.5119920000000 1.0
C      1  0.5656040000000  0.4204000000000  0.5268900000000 1.0
C      1  0.4861290000000  0.5247750000000  0.4525980000000 1.0
C      1  0.5779100000000  0.3997130000000  0.5382840000000 1.0
C      1  0.4929940000000  0.4569470000000  0.4712710000000 1.0
C      1  0.5532970000000  0.4410860000000  0.5154970000000 1.0
C      1  0.5310440000000  0.4920410000000  0.5477640000000 1.0
C      1  0.4979630000000  0.5691230000000  0.4540760000000 1.0
C      1  0.4825420000000  0.5850560000000  0.4401060000000 1.0
C      1  0.5295400000000  0.5366310000000  0.4826040000000 1.0
C      1  0.5007160000000  0.5027290000000  0.4571360000000 1.0
C      1  0.4936190000000  0.5195470000000  0.5332900000000 1.0
C      1  0.5136340000000  0.5529330000000  0.4682710000000 1.0
C      1  0.5092640000000  0.4801710000000  0.4715380000000 1.0
C      1  0.5243920000000  0.5151710000000  0.5323520000000 1.0
C      1  0.4686190000000  0.4506220000000  0.4839440000000 1.0
END
