TITL C-2778437-8639-1263 -0.00229161443495638 125000 -490.481457565623 0 0 84 (C1) n - 1
REM
REM in /home/nfs/bkarasulu/CARBON/AIRSS/Generating-Clusters/REBO/Only-C1/SD-CG/HFTN-CG
REM
REM
REM
REM
REM
REM ./C.cell (11c1c37f851c82e70ff6c80c92926a4b)
REM
REM compiler GCC version 9.2.1 20190827 (Red Hat 9.2.1-1)
REM options -cpp -mtune=generic -march=x86-64 -g -O0 -fpre-include=/usr/include/finclude/math-vector-fortran.h
REM seed 1271985369 1244898373 -939745273 307824590 365738650 1625034394 1475522006 -884241438 -1618356301 153670607 -1518254965 1563454827 340253792 838837666 -941112195 118379793 744734491 396948415 -671274448 1924111594 2141391051 -1751316628 1548257059 169462939 1173465304 -1613911405 -185114677 847978654 -1227819867 1956543028 841943286 1036741699 1861946589
REM
CELL 1.54180   50.00000   50.00000   50.00000   90.00000   90.00000   90.00000
LATT -1
SFAC C  
C      1  0.5400880000000  0.5644940000000  0.4852020000000 1.0
C      1  0.5010870000000  0.4867120000000  0.4613300000000 1.0
C      1  0.5310960000000  0.4828680000000  0.4519270000000 1.0
C      1  0.4898150000000  0.5574220000000  0.4950800000000 1.0
C      1  0.4680240000000  0.5602930000000  0.4619260000000 1.0
C      1  0.4981420000000  0.4605380000000  0.4298490000000 1.0
C      1  0.5497610000000  0.4430970000000  0.4790170000000 1.0
C      1  0.4898730000000  0.4965010000000  0.5141180000000 1.0
C      1  0.4779200000000  0.4189310000000  0.4774280000000 1.0
C      1  0.5196630000000  0.4592830000000  0.5148470000000 1.0
C      1  0.4378910000000  0.4863640000000  0.4395070000000 1.0
C      1  0.4698170000000  0.4758260000000  0.4390750000000 1.0
C      1  0.4144820000000  0.4845850000000  0.4970240000000 1.0
C      1  0.4655850000000  0.4429440000000  0.4613680000000 1.0
C      1  0.5563580000000  0.4594000000000  0.5444780000000 1.0
C      1  0.4446790000000  0.4990770000000  0.4904380000000 1.0
C      1  0.4755740000000  0.4687870000000  0.5239040000000 1.0
C      1  0.4607580000000  0.4629940000000  0.4986730000000 1.0
C      1  0.4929030000000  0.5155670000000  0.4450340000000 1.0
C      1  0.4340250000000  0.4821010000000  0.5248910000000 1.0
C      1  0.4953420000000  0.5838690000000  0.5293470000000 1.0
C      1  0.5575360000000  0.4990000000000  0.5394230000000 1.0
C      1  0.5202080000000  0.5051750000000  0.5817730000000 1.0
C      1  0.4757010000000  0.4744460000000  0.5575620000000 1.0
C      1  0.5705360000000  0.4691210000000  0.4866840000000 1.0
C      1  0.5444410000000  0.4482140000000  0.5080200000000 1.0
C      1  0.4293910000000  0.4547630000000  0.5047770000000 1.0
C      1  0.4583820000000  0.5690970000000  0.4934420000000 1.0
C      1  0.5115320000000  0.5399210000000  0.4517920000000 1.0
C      1  0.5186620000000  0.4464630000000  0.4409910000000 1.0
C      1  0.4621020000000  0.5558430000000  0.5442180000000 1.0
C      1  0.5274550000000  0.4327480000000  0.4642430000000 1.0
C      1  0.5148030000000  0.5315360000000  0.5728910000000 1.0
C      1  0.5716460000000  0.5016500000000  0.4973010000000 1.0
C      1  0.5062620000000  0.4167100000000  0.4759740000000 1.0
C      1  0.4758510000000  0.4430990000000  0.5462980000000 1.0
C      1  0.4858100000000  0.4837560000000  0.4117610000000 1.0
C      1  0.4629600000000  0.5276840000000  0.4558640000000 1.0
C      1  0.4851140000000  0.5302230000000  0.4812180000000 1.0
C      1  0.5557620000000  0.5271870000000  0.4378550000000 1.0
C      1  0.5057490000000  0.4823920000000  0.5672810000000 1.0
C      1  0.5153870000000  0.5223070000000  0.3999420000000 1.0
C      1  0.5176420000000  0.5532770000000  0.5083180000000 1.0
C      1  0.4171660000000  0.5134550000000  0.4790660000000 1.0
C      1  0.4605150000000  0.4810890000000  0.4715290000000 1.0
C      1  0.5483870000000  0.4985830000000  0.5873630000000 1.0
C      1  0.4989470000000  0.4491020000000  0.4982500000000 1.0
C      1  0.4367480000000  0.5118750000000  0.4534310000000 1.0
C      1  0.5318070000000  0.5048610000000  0.4963380000000 1.0
C      1  0.4133510000000  0.5420310000000  0.4889220000000 1.0
C      1  0.5294170000000  0.5070050000000  0.5275200000000 1.0
C      1  0.4393920000000  0.4574630000000  0.4556640000000 1.0
C      1  0.4591520000000  0.5043450000000  0.5171420000000 1.0
C      1  0.5510920000000  0.5510360000000  0.5146950000000 1.0
C      1  0.5427450000000  0.4823560000000  0.4781940000000 1.0
C      1  0.5455460000000  0.4969430000000  0.4325330000000 1.0
C      1  0.4377320000000  0.5428600000000  0.5584550000000 1.0
C      1  0.4945520000000  0.5102320000000  0.4145900000000 1.0
C      1  0.5417330000000  0.5195060000000  0.4096160000000 1.0
C      1  0.5013710000000  0.5059640000000  0.4875890000000 1.0
C      1  0.5678330000000  0.5197240000000  0.5822170000000 1.0
C      1  0.5530750000000  0.4794030000000  0.5660200000000 1.0
C      1  0.5533670000000  0.5275040000000  0.4907330000000 1.0
C      1  0.4285010000000  0.5609070000000  0.4939450000000 1.0
C      1  0.5693370000000  0.5242630000000  0.5534730000000 1.0
C      1  0.4542320000000  0.4950900000000  0.5485480000000 1.0
C      1  0.4967550000000  0.5644050000000  0.4564970000000 1.0
C      1  0.5358560000000  0.4401770000000  0.5460160000000 1.0
C      1  0.5560530000000  0.5473690000000  0.5445840000000 1.0
C      1  0.5331050000000  0.5535040000000  0.5614610000000 1.0
C      1  0.5116970000000  0.4821170000000  0.5344850000000 1.0
C      1  0.5112070000000  0.5789240000000  0.4788770000000 1.0
C      1  0.5066430000000  0.4493740000000  0.5594690000000 1.0
C      1  0.5116920000000  0.5673000000000  0.5449770000000 1.0
C      1  0.4689950000000  0.5744530000000  0.5244010000000 1.0
C      1  0.4802610000000  0.4299830000000  0.5156570000000 1.0
C      1  0.5134140000000  0.5336330000000  0.5331970000000 1.0
C      1  0.4873670000000  0.5356140000000  0.5550760000000 1.0
C      1  0.5712320000000  0.4757570000000  0.5196570000000 1.0
C      1  0.4526070000000  0.4307560000000  0.4971430000000 1.0
C      1  0.4916750000000  0.4569370000000  0.4719970000000 1.0
C      1  0.4582680000000  0.5212340000000  0.5628330000000 1.0
C      1  0.5086770000000  0.4260920000000  0.5340740000000 1.0
C      1  0.5426830000000  0.5405110000000  0.4616760000000 1.0
END
