TITL C-2778426-5645-176 0.000464411887719178 125000 -1139.37711466468 0 0 195 (C1) n - 1
REM
REM in /home/nfs/bkarasulu/CARBON/AIRSS/Generating-Clusters/REBO/Only-C1/SD-CG/HFTN-CG
REM
REM
REM
REM
REM
REM ./C.cell (11c1c37f851c82e70ff6c80c92926a4b)
REM
REM compiler GCC version 9.2.1 20190827 (Red Hat 9.2.1-1)
REM options -cpp -mtune=generic -march=x86-64 -g -O0 -fpre-include=/usr/include/finclude/math-vector-fortran.h
REM seed -1785274230 679496820 -1474626132 -429702784 1472160960 -130048496 -1629610935 -1186895097 -100374947 -1067650767 2139738459 1722932805 958240548 -1736012704 -70945371 -913198042 59949625 -718939909 2144909637 -1486562851 -912074940 702445387 1659292869 1478486165 -846525350 -391177945 -1062713436 759297889 222107174 196726740 -1995328852 -20266463 -2034205435
REM
CELL 1.54180   50.00000   50.00000   50.00000   90.00000   90.00000   90.00000
LATT -1
SFAC C  
C      1  0.4455570000000  0.5035970000000  0.5866990000000 1.0
C      1  0.5945780000000  0.4720700000000  0.5612560000000 1.0
C      1  0.5191150000000  0.4471380000000  0.5184240000000 1.0
C      1  0.5134880000000  0.4973210000000  0.4955280000000 1.0
C      1  0.5632230000000  0.4742480000000  0.4546700000000 1.0
C      1  0.5311490000000  0.4269910000000  0.4342440000000 1.0
C      1  0.4529900000000  0.5366780000000  0.4251010000000 1.0
C      1  0.5117380000000  0.5852420000000  0.5102950000000 1.0
C      1  0.4059830000000  0.4783500000000  0.4987200000000 1.0
C      1  0.5675860000000  0.4992760000000  0.5955070000000 1.0
C      1  0.4491160000000  0.4336070000000  0.4941900000000 1.0
C      1  0.6065130000000  0.4745570000000  0.4574120000000 1.0
C      1  0.4891430000000  0.4656840000000  0.4940200000000 1.0
C      1  0.5053150000000  0.4170000000000  0.4144360000000 1.0
C      1  0.3972590000000  0.5593420000000  0.4963040000000 1.0
C      1  0.4451620000000  0.4339590000000  0.5672730000000 1.0
C      1  0.5364090000000  0.4190870000000  0.5545220000000 1.0
C      1  0.4350520000000  0.5865770000000  0.5171040000000 1.0
C      1  0.5593310000000  0.5201660000000  0.4391520000000 1.0
C      1  0.4584620000000  0.4956440000000  0.4135440000000 1.0
C      1  0.5056540000000  0.5277480000000  0.5050230000000 1.0
C      1  0.4959480000000  0.5215000000000  0.4446610000000 1.0
C      1  0.5676080000000  0.5654070000000  0.4796990000000 1.0
C      1  0.5353810000000  0.5956640000000  0.5500820000000 1.0
C      1  0.4598870000000  0.4426080000000  0.4567440000000 1.0
C      1  0.5054410000000  0.3663730000000  0.4449640000000 1.0
C      1  0.5164520000000  0.5143290000000  0.4686420000000 1.0
C      1  0.5199840000000  0.5142130000000  0.5670690000000 1.0
C      1  0.4505940000000  0.4619440000000  0.4808730000000 1.0
C      1  0.4688340000000  0.4007740000000  0.5147030000000 1.0
C      1  0.5868130000000  0.4498650000000  0.4515320000000 1.0
C      1  0.5694970000000  0.5278230000000  0.5763870000000 1.0
C      1  0.5309170000000  0.5030780000000  0.4399850000000 1.0
C      1  0.5147850000000  0.4908380000000  0.4055280000000 1.0
C      1  0.4287770000000  0.4308220000000  0.5440820000000 1.0
C      1  0.4677340000000  0.5586980000000  0.4617370000000 1.0
C      1  0.6102100000000  0.5436570000000  0.5097090000000 1.0
C      1  0.5966240000000  0.5561730000000  0.4808990000000 1.0
C      1  0.4436370000000  0.5272270000000  0.5652850000000 1.0
C      1  0.4755430000000  0.4852170000000  0.5677930000000 1.0
C      1  0.5130090000000  0.3991990000000  0.4404750000000 1.0
C      1  0.5407800000000  0.5282640000000  0.5896790000000 1.0
C      1  0.4710060000000  0.4689840000000  0.4404870000000 1.0
C      1  0.4510340000000  0.5183080000000  0.5357350000000 1.0
C      1  0.4054640000000  0.4458000000000  0.4756260000000 1.0
C      1  0.5558780000000  0.4614610000000  0.4162470000000 1.0
C      1  0.4741060000000  0.5817340000000  0.4211110000000 1.0
C      1  0.3949210000000  0.5278610000000  0.5511290000000 1.0
C      1  0.6235650000000  0.4279410000000  0.5151020000000 1.0
C      1  0.5635970000000  0.4969200000000  0.5635700000000 1.0
C      1  0.5516180000000  0.4099120000000  0.4952730000000 1.0
C      1  0.4866060000000  0.4819090000000  0.6060220000000 1.0
C      1  0.4006330000000  0.5102670000000  0.4610610000000 1.0
C      1  0.4363890000000  0.4843470000000  0.5006950000000 1.0
C      1  0.6108490000000  0.4703400000000  0.4911620000000 1.0
C      1  0.3868770000000  0.5095110000000  0.5135190000000 1.0
C      1  0.5240420000000  0.5449220000000  0.5576120000000 1.0
C      1  0.4851750000000  0.4870330000000  0.4080290000000 1.0
C      1  0.4671850000000  0.5462680000000  0.5760240000000 1.0
C      1  0.6111440000000  0.5215260000000  0.4338700000000 1.0
C      1  0.5205500000000  0.4785330000000  0.6022580000000 1.0
C      1  0.4781010000000  0.4985170000000  0.5139270000000 1.0
C      1  0.4419770000000  0.4890740000000  0.5307540000000 1.0
C      1  0.5598580000000  0.4237000000000  0.4651840000000 1.0
C      1  0.4822000000000  0.5201070000000  0.5364420000000 1.0
C      1  0.4910130000000  0.4390860000000  0.5875940000000 1.0
C      1  0.4165260000000  0.5228350000000  0.4336100000000 1.0
C      1  0.4835980000000  0.6033490000000  0.5503560000000 1.0
C      1  0.4910760000000  0.5065940000000  0.5620090000000 1.0
C      1  0.4729890000000  0.4450510000000  0.5408700000000 1.0
C      1  0.4908220000000  0.4411300000000  0.4430880000000 1.0
C      1  0.4975510000000  0.4559650000000  0.4137060000000 1.0
C      1  0.5958050000000  0.4692840000000  0.5280950000000 1.0
C      1  0.5680570000000  0.4583340000000  0.5014720000000 1.0
C      1  0.4667660000000  0.6228480000000  0.5350090000000 1.0
C      1  0.4225140000000  0.5553900000000  0.4421930000000 1.0
C      1  0.5393670000000  0.5835010000000  0.4383400000000 1.0
C      1  0.4773400000000  0.5843660000000  0.5753960000000 1.0
C      1  0.4460040000000  0.4556200000000  0.5868560000000 1.0
C      1  0.4880310000000  0.4081340000000  0.5408820000000 1.0
C      1  0.4488070000000  0.5692350000000  0.4281630000000 1.0
C      1  0.4420320000000  0.5005180000000  0.4378030000000 1.0
C      1  0.5648070000000  0.4961570000000  0.4788350000000 1.0
C      1  0.5645120000000  0.4335710000000  0.4326230000000 1.0
C      1  0.5740820000000  0.4224800000000  0.5180270000000 1.0
C      1  0.4809980000000  0.5314050000000  0.6000220000000 1.0
C      1  0.5628780000000  0.5331210000000  0.5267160000000 1.0
C      1  0.5638700000000  0.5040500000000  0.3950460000000 1.0
C      1  0.4373400000000  0.4254820000000  0.4434190000000 1.0
C      1  0.5470370000000  0.4502000000000  0.4820020000000 1.0
C      1  0.5496850000000  0.5473710000000  0.4993250000000 1.0
C      1  0.4582200000000  0.4707100000000  0.5518840000000 1.0
C      1  0.5474060000000  0.5206930000000  0.4783370000000 1.0
C      1  0.5670320000000  0.4581970000000  0.5345430000000 1.0
C      1  0.4945980000000  0.5482370000000  0.5309540000000 1.0
C      1  0.5041330000000  0.5572950000000  0.4934620000000 1.0
C      1  0.5229970000000  0.5940850000000  0.4730660000000 1.0
C      1  0.6074000000000  0.5243770000000  0.4828070000000 1.0
C      1  0.5193720000000  0.4056710000000  0.5364430000000 1.0
C      1  0.5228490000000  0.3995020000000  0.5079820000000 1.0
C      1  0.5148390000000  0.4783750000000  0.4515210000000 1.0
C      1  0.4793810000000  0.4360340000000  0.4908670000000 1.0
C      1  0.4393140000000  0.4156590000000  0.5208480000000 1.0
C      1  0.4753930000000  0.5686200000000  0.4910990000000 1.0
C      1  0.4360640000000  0.4874440000000  0.4661940000000 1.0
C      1  0.4854400000000  0.3884490000000  0.4574900000000 1.0
C      1  0.4212220000000  0.4230330000000  0.4674780000000 1.0
C      1  0.4153060000000  0.5240610000000  0.5010680000000 1.0
C      1  0.4832160000000  0.5340480000000  0.4172630000000 1.0
C      1  0.4702190000000  0.5052740000000  0.6019680000000 1.0
C      1  0.4007970000000  0.5704140000000  0.5286170000000 1.0
C      1  0.4726010000000  0.4576180000000  0.5993060000000 1.0
C      1  0.6023870000000  0.4953710000000  0.4330590000000 1.0
C      1  0.4321090000000  0.4797070000000  0.5805870000000 1.0
C      1  0.5287830000000  0.4642740000000  0.4091530000000 1.0
C      1  0.4961080000000  0.3999450000000  0.4939550000000 1.0
C      1  0.3886380000000  0.4792980000000  0.5269890000000 1.0
C      1  0.4756460000000  0.4931070000000  0.4816570000000 1.0
C      1  0.4256950000000  0.5792210000000  0.5445260000000 1.0
C      1  0.5191720000000  0.4673710000000  0.4834580000000 1.0
C      1  0.6106260000000  0.4987120000000  0.5496230000000 1.0
C      1  0.5179380000000  0.4785910000000  0.5217630000000 1.0
C      1  0.6099120000000  0.5395050000000  0.4541910000000 1.0
C      1  0.5393770000000  0.5425110000000  0.4224160000000 1.0
C      1  0.5095500000000  0.5942890000000  0.5372900000000 1.0
C      1  0.4439500000000  0.5315190000000  0.5094270000000 1.0
C      1  0.4439500000000  0.4600990000000  0.4246010000000 1.0
C      1  0.4511090000000  0.5332500000000  0.4586960000000 1.0
C      1  0.6128130000000  0.4943350000000  0.5153490000000 1.0
C      1  0.5524680000000  0.4710760000000  0.5917790000000 1.0
C      1  0.5162890000000  0.4512070000000  0.5857550000000 1.0
C      1  0.5068530000000  0.5354760000000  0.6085740000000 1.0
C      1  0.4875470000000  0.4706080000000  0.5254530000000 1.0
C      1  0.4188290000000  0.4798770000000  0.5528740000000 1.0
C      1  0.4560520000000  0.5166270000000  0.4846540000000 1.0
C      1  0.5740780000000  0.4544370000000  0.5736320000000 1.0
C      1  0.5857580000000  0.5149610000000  0.5229360000000 1.0
C      1  0.5233890000000  0.5088970000000  0.6100850000000 1.0
C      1  0.5420040000000  0.4329140000000  0.5175720000000 1.0
C      1  0.5471860000000  0.4731870000000  0.5511600000000 1.0
C      1  0.4082240000000  0.4524750000000  0.5367490000000 1.0
C      1  0.4194540000000  0.4679630000000  0.4326610000000 1.0
C      1  0.5550580000000  0.5962110000000  0.5267700000000 1.0
C      1  0.5572410000000  0.5796080000000  0.4583370000000 1.0
C      1  0.6137220000000  0.5283240000000  0.5357660000000 1.0
C      1  0.4497130000000  0.5605880000000  0.5040920000000 1.0
C      1  0.5053280000000  0.5824830000000  0.4357690000000 1.0
C      1  0.5282690000000  0.5526470000000  0.5256100000000 1.0
C      1  0.4249530000000  0.5761720000000  0.4865610000000 1.0
C      1  0.4491200000000  0.5710140000000  0.5610960000000 1.0
C      1  0.5663940000000  0.4302520000000  0.5505190000000 1.0
C      1  0.5274250000000  0.5588810000000  0.5945850000000 1.0
C      1  0.3984300000000  0.4477060000000  0.5050330000000 1.0
C      1  0.4914170000000  0.5544010000000  0.4443140000000 1.0
C      1  0.5332040000000  0.4476950000000  0.5643900000000 1.0
C      1  0.5354560000000  0.5137930000000  0.4078600000000 1.0
C      1  0.5429820000000  0.5769930000000  0.5714890000000 1.0
C      1  0.4916060000000  0.4204280000000  0.4667100000000 1.0
C      1  0.4515930000000  0.4317130000000  0.4153660000000 1.0
C      1  0.5400900000000  0.5436300000000  0.4555700000000 1.0
C      1  0.3855040000000  0.5289540000000  0.4854710000000 1.0
C      1  0.4938980000000  0.5616410000000  0.4044460000000 1.0
C      1  0.5739250000000  0.5760230000000  0.5369690000000 1.0
C      1  0.5709100000000  0.4908880000000  0.4257590000000 1.0
C      1  0.3872060000000  0.5412250000000  0.5236530000000 1.0
C      1  0.4213390000000  0.5361460000000  0.4704120000000 1.0
C      1  0.4645230000000  0.6180530000000  0.5083780000000 1.0
C      1  0.5358060000000  0.4545070000000  0.4500820000000 1.0
C      1  0.4991480000000  0.5582950000000  0.5766510000000 1.0
C      1  0.5394710000000  0.5957920000000  0.5008330000000 1.0
C      1  0.4787170000000  0.4292100000000  0.4070130000000 1.0
C      1  0.5926660000000  0.4267700000000  0.4724730000000 1.0
C      1  0.4790410000000  0.5693780000000  0.5440420000000 1.0
C      1  0.5738230000000  0.4887320000000  0.5097010000000 1.0
C      1  0.5250520000000  0.5672370000000  0.4120130000000 1.0
C      1  0.4151830000000  0.5394040000000  0.5653650000000 1.0
C      1  0.4859850000000  0.4918120000000  0.4529920000000 1.0
C      1  0.5293500000000  0.4973170000000  0.5432750000000 1.0
C      1  0.4933550000000  0.4321590000000  0.5174080000000 1.0
C      1  0.5219150000000  0.5638840000000  0.4683580000000 1.0
C      1  0.4317900000000  0.5240520000000  0.4047100000000 1.0
C      1  0.4759510000000  0.4233170000000  0.5655990000000 1.0
C      1  0.5338170000000  0.5188460000000  0.5221840000000 1.0
C      1  0.4656540000000  0.3877190000000  0.4832570000000 1.0
C      1  0.4498230000000  0.5847620000000  0.4649190000000 1.0
C      1  0.4963800000000  0.6073960000000  0.4700470000000 1.0
C      1  0.5589060000000  0.5510360000000  0.5548290000000 1.0
C      1  0.4664700000000  0.6062220000000  0.4561940000000 1.0
C      1  0.5970150000000  0.4981070000000  0.4788460000000 1.0
C      1  0.4372440000000  0.4034510000000  0.4889820000000 1.0
C      1  0.5978130000000  0.4402780000000  0.5008480000000 1.0
C      1  0.4047930000000  0.4764010000000  0.4605850000000 1.0
C      1  0.4423730000000  0.5027830000000  0.3886610000000 1.0
C      1  0.3936650000000  0.5000890000000  0.5517330000000 1.0
C      1  0.4782360000000  0.5989560000000  0.4934050000000 1.0
END
