TITL C-2778432-5617-84 0.00245119267755491 125000 -892.95422283409 0 0 150 (C1) n - 1
REM
REM in /home/nfs/bkarasulu/CARBON/AIRSS/Generating-Clusters/REBO/Only-C1/SD-CG/HFTN-CG
REM
REM
REM
REM
REM
REM ./C.cell (11c1c37f851c82e70ff6c80c92926a4b)
REM
REM compiler GCC version 9.2.1 20190827 (Red Hat 9.2.1-1)
REM options -cpp -mtune=generic -march=x86-64 -g -O0 -fpre-include=/usr/include/finclude/math-vector-fortran.h
REM seed 434432288 433096470 2078956358 -174787455 -387675185 -1539643188 -145980026 -1308191202 -1776705218 -1542661654 -2061773380 -888750487 1871845467 -1452256502 -845392724 -1153434724 573425870 -2019343047 1614080363 902744358 -1393579356 -968488133 1423090877 196637874 518722630 -1435122234 -1441125724 1437976869 -701607341 -1869769885 998931486 -110235720 863634732
REM
CELL 1.54180   50.00000   50.00000   50.00000   90.00000   90.00000   90.00000
LATT -1
SFAC C  
C      1  0.5163300000000  0.5907520000000  0.4699980000000 1.0
C      1  0.5495320000000  0.4700950000000  0.5340150000000 1.0
C      1  0.5113990000000  0.4679880000000  0.5591100000000 1.0
C      1  0.4346900000000  0.5026430000000  0.5150190000000 1.0
C      1  0.4656220000000  0.5869930000000  0.4591680000000 1.0
C      1  0.6028220000000  0.5020780000000  0.5046590000000 1.0
C      1  0.5723780000000  0.4385150000000  0.5415950000000 1.0
C      1  0.4565750000000  0.3924740000000  0.5185840000000 1.0
C      1  0.4006580000000  0.5338340000000  0.4914380000000 1.0
C      1  0.4850800000000  0.5012230000000  0.5244450000000 1.0
C      1  0.5070500000000  0.4701610000000  0.4626130000000 1.0
C      1  0.4062110000000  0.4795220000000  0.4819090000000 1.0
C      1  0.4941930000000  0.5413470000000  0.5542440000000 1.0
C      1  0.4489900000000  0.5087720000000  0.5581480000000 1.0
C      1  0.5544000000000  0.5397530000000  0.4760920000000 1.0
C      1  0.4296480000000  0.5764920000000  0.5038990000000 1.0
C      1  0.5953910000000  0.5356260000000  0.4294320000000 1.0
C      1  0.5562740000000  0.4902370000000  0.5677350000000 1.0
C      1  0.4716070000000  0.4293880000000  0.5681850000000 1.0
C      1  0.5070700000000  0.5542800000000  0.5936380000000 1.0
C      1  0.4732390000000  0.4072310000000  0.4692980000000 1.0
C      1  0.5362810000000  0.5761340000000  0.4465480000000 1.0
C      1  0.4774810000000  0.4686610000000  0.4574050000000 1.0
C      1  0.4831580000000  0.5523260000000  0.4501720000000 1.0
C      1  0.5355280000000  0.5439150000000  0.5884180000000 1.0
C      1  0.5119280000000  0.4927840000000  0.6003210000000 1.0
C      1  0.4420390000000  0.4312430000000  0.5648880000000 1.0
C      1  0.5134170000000  0.5454650000000  0.4944540000000 1.0
C      1  0.5266200000000  0.5313290000000  0.4183370000000 1.0
C      1  0.4791560000000  0.5785150000000  0.5308800000000 1.0
C      1  0.4699960000000  0.5191250000000  0.4133160000000 1.0
C      1  0.4298190000000  0.4958610000000  0.4373950000000 1.0
C      1  0.4794660000000  0.5716670000000  0.5605270000000 1.0
C      1  0.4369360000000  0.4483290000000  0.4316570000000 1.0
C      1  0.5235390000000  0.5148220000000  0.4955070000000 1.0
C      1  0.5015950000000  0.5147730000000  0.4094590000000 1.0
C      1  0.5702360000000  0.5382810000000  0.5531150000000 1.0
C      1  0.5437920000000  0.4231950000000  0.5524630000000 1.0
C      1  0.4456680000000  0.5328480000000  0.5264990000000 1.0
C      1  0.4102640000000  0.4522140000000  0.4797830000000 1.0
C      1  0.4361430000000  0.5202170000000  0.4793180000000 1.0
C      1  0.5345690000000  0.4408590000000  0.5800600000000 1.0
C      1  0.5437360000000  0.5480610000000  0.5048120000000 1.0
C      1  0.4842720000000  0.4883690000000  0.5560480000000 1.0
C      1  0.4057340000000  0.5051570000000  0.5030820000000 1.0
C      1  0.4362050000000  0.4448810000000  0.4643230000000 1.0
C      1  0.5407500000000  0.4837890000000  0.4104800000000 1.0
C      1  0.5460810000000  0.4108730000000  0.4975180000000 1.0
C      1  0.4655710000000  0.4582670000000  0.4266610000000 1.0
C      1  0.4445250000000  0.4120120000000  0.4860470000000 1.0
C      1  0.5160650000000  0.5236980000000  0.5696940000000 1.0
C      1  0.4743350000000  0.3870700000000  0.4941920000000 1.0
C      1  0.5815800000000  0.4497510000000  0.5166320000000 1.0
C      1  0.5153430000000  0.4408150000000  0.5451170000000 1.0
C      1  0.5147030000000  0.5005530000000  0.5209380000000 1.0
C      1  0.5236980000000  0.5933930000000  0.5646590000000 1.0
C      1  0.5692760000000  0.5116740000000  0.4479090000000 1.0
C      1  0.4260200000000  0.4293040000000  0.5415280000000 1.0
C      1  0.4853090000000  0.5235850000000  0.4526230000000 1.0
C      1  0.4852280000000  0.3977120000000  0.5306680000000 1.0
C      1  0.5821000000000  0.5572220000000  0.4790020000000 1.0
C      1  0.5573150000000  0.4584300000000  0.5643440000000 1.0
C      1  0.5908610000000  0.5328710000000  0.4611540000000 1.0
C      1  0.4606260000000  0.4576680000000  0.5083330000000 1.0
C      1  0.5795770000000  0.5264000000000  0.4122230000000 1.0
C      1  0.4620980000000  0.5506100000000  0.5761550000000 1.0
C      1  0.4468290000000  0.5416740000000  0.4944660000000 1.0
C      1  0.4317230000000  0.4116280000000  0.5179380000000 1.0
C      1  0.5384080000000  0.4329070000000  0.5212640000000 1.0
C      1  0.5552940000000  0.5099780000000  0.5052770000000 1.0
C      1  0.4409660000000  0.4728100000000  0.5263060000000 1.0
C      1  0.5221350000000  0.4670540000000  0.5902890000000 1.0
C      1  0.4456910000000  0.5293340000000  0.4223840000000 1.0
C      1  0.4189810000000  0.4712290000000  0.4237100000000 1.0
C      1  0.5251000000000  0.4718140000000  0.5217990000000 1.0
C      1  0.5526300000000  0.5749040000000  0.4766040000000 1.0
C      1  0.5219540000000  0.3989660000000  0.4872130000000 1.0
C      1  0.5382230000000  0.5060580000000  0.5893410000000 1.0
C      1  0.5655220000000  0.4385930000000  0.4924270000000 1.0
C      1  0.4201090000000  0.5282650000000  0.4394530000000 1.0
C      1  0.3980290000000  0.4699930000000  0.4079750000000 1.0
C      1  0.5653870000000  0.4921910000000  0.5288400000000 1.0
C      1  0.5331660000000  0.5918750000000  0.4989150000000 1.0
C      1  0.5223730000000  0.4960570000000  0.4671590000000 1.0
C      1  0.3918180000000  0.4680780000000  0.5338780000000 1.0
C      1  0.5147470000000  0.5174710000000  0.4471380000000 1.0
C      1  0.4878120000000  0.4250670000000  0.5431580000000 1.0
C      1  0.4924120000000  0.5645210000000  0.4252110000000 1.0
C      1  0.4981080000000  0.5572610000000  0.5179280000000 1.0
C      1  0.4452300000000  0.4590770000000  0.5760330000000 1.0
C      1  0.5032720000000  0.3873610000000  0.5056790000000 1.0
C      1  0.4567890000000  0.5942590000000  0.4345420000000 1.0
C      1  0.4740630000000  0.5242460000000  0.5416850000000 1.0
C      1  0.5481150000000  0.4408170000000  0.4459320000000 1.0
C      1  0.5267230000000  0.4976800000000  0.5521860000000 1.0
C      1  0.4863660000000  0.6003620000000  0.4729850000000 1.0
C      1  0.5327230000000  0.4475020000000  0.4909870000000 1.0
C      1  0.4653300000000  0.5009810000000  0.5002220000000 1.0
C      1  0.5689080000000  0.5627240000000  0.5211810000000 1.0
C      1  0.5740850000000  0.4495630000000  0.4636680000000 1.0
C      1  0.5062660000000  0.4145070000000  0.4651600000000 1.0
C      1  0.4222170000000  0.4995930000000  0.4671590000000 1.0
C      1  0.5219220000000  0.4426700000000  0.4625050000000 1.0
C      1  0.4795510000000  0.6033140000000  0.5000000000000 1.0
C      1  0.4826600000000  0.5357120000000  0.5919200000000 1.0
C      1  0.4598520000000  0.4578310000000  0.4797830000000 1.0
C      1  0.4898240000000  0.4307990000000  0.4418200000000 1.0
C      1  0.5934780000000  0.5528690000000  0.5080170000000 1.0
C      1  0.4687760000000  0.4751960000000  0.5903860000000 1.0
C      1  0.5328180000000  0.5950100000000  0.5329980000000 1.0
C      1  0.4073620000000  0.5556990000000  0.5094050000000 1.0
C      1  0.4541240000000  0.5881870000000  0.5109710000000 1.0
C      1  0.4530180000000  0.4790310000000  0.5536720000000 1.0
C      1  0.5964230000000  0.5252680000000  0.5472910000000 1.0
C      1  0.5042850000000  0.5790230000000  0.5775820000000 1.0
C      1  0.4818010000000  0.4478450000000  0.5875820000000 1.0
C      1  0.5533380000000  0.4992170000000  0.4741980000000 1.0
C      1  0.5568930000000  0.4619170000000  0.4139950000000 1.0
C      1  0.5215770000000  0.5471520000000  0.5379520000000 1.0
C      1  0.4154710000000  0.4253100000000  0.4920590000000 1.0
C      1  0.5047650000000  0.5966670000000  0.5174710000000 1.0
C      1  0.4723340000000  0.5050500000000  0.4728130000000 1.0
C      1  0.5819840000000  0.5001870000000  0.5518920000000 1.0
C      1  0.5070930000000  0.4538720000000  0.5082900000000 1.0
C      1  0.4220150000000  0.5649710000000  0.4734910000000 1.0
C      1  0.5561420000000  0.5564200000000  0.5727570000000 1.0
C      1  0.5103730000000  0.4819130000000  0.4104510000000 1.0
C      1  0.4570740000000  0.4251350000000  0.4469890000000 1.0
C      1  0.5978540000000  0.4741860000000  0.5142400000000 1.0
C      1  0.4539570000000  0.5654350000000  0.4741810000000 1.0
C      1  0.5953730000000  0.5042160000000  0.4772480000000 1.0
C      1  0.4834200000000  0.4463700000000  0.5200460000000 1.0
C      1  0.5202470000000  0.5614420000000  0.4221300000000 1.0
C      1  0.3852380000000  0.4925000000000  0.5233600000000 1.0
C      1  0.5780720000000  0.4639230000000  0.4330270000000 1.0
C      1  0.5323620000000  0.5435120000000  0.4557050000000 1.0
C      1  0.4856700000000  0.5035400000000  0.5867090000000 1.0
C      1  0.4602970000000  0.4941650000000  0.4428990000000 1.0
C      1  0.6039610000000  0.5279140000000  0.5192230000000 1.0
C      1  0.5461190000000  0.5682820000000  0.5430960000000 1.0
C      1  0.5789860000000  0.4798530000000  0.4697000000000 1.0
C      1  0.5071420000000  0.5600670000000  0.4684640000000 1.0
C      1  0.5513560000000  0.5121060000000  0.4188340000000 1.0
C      1  0.4770870000000  0.4859180000000  0.4145960000000 1.0
C      1  0.5882910000000  0.4897970000000  0.4325250000000 1.0
C      1  0.4166690000000  0.4550820000000  0.5330730000000 1.0
C      1  0.4073510000000  0.5413090000000  0.4615510000000 1.0
C      1  0.4419650000000  0.5388260000000  0.5600950000000 1.0
C      1  0.4989790000000  0.4548420000000  0.4267240000000 1.0
C      1  0.5493440000000  0.5299140000000  0.5323040000000 1.0
END
