TITL C-2778423-5760-965 0.000530337957695648 125000 -945.549222605125 0 0 162 (C1) n - 1
REM
REM in /home/nfs/bkarasulu/CARBON/AIRSS/Generating-Clusters/REBO/Only-C1/SD-CG/HFTN-CG
REM
REM
REM
REM
REM
REM ./C.cell (11c1c37f851c82e70ff6c80c92926a4b)
REM
REM compiler GCC version 9.2.1 20190827 (Red Hat 9.2.1-1)
REM options -cpp -mtune=generic -march=x86-64 -g -O0 -fpre-include=/usr/include/finclude/math-vector-fortran.h
REM seed -2050117514 800291589 1328750658 63924469 -1532821222 1799980191 -2104777765 1473068178 -1703511044 541471371 757733676 -1791530131 -257619313 1676297156 72690192 804564656 675466601 -224557676 -1212428550 -1458321161 1672095838 -188892386 -148005138 -475422404 -382938957 -1987207710 -399190499 -35645891 504558750 -524178698 488417786 -1462316614 1589086526
REM
CELL 1.54180   50.00000   50.00000   50.00000   90.00000   90.00000   90.00000
LATT -1
SFAC C  
C      1  0.4627830000000  0.5010780000000  0.4459620000000 1.0
C      1  0.5631430000000  0.5361710000000  0.4885150000000 1.0
C      1  0.5196070000000  0.5982070000000  0.4814510000000 1.0
C      1  0.5831080000000  0.5832690000000  0.4969770000000 1.0
C      1  0.4447510000000  0.4535050000000  0.5087490000000 1.0
C      1  0.4688300000000  0.5649270000000  0.5638360000000 1.0
C      1  0.5434610000000  0.5154570000000  0.4287250000000 1.0
C      1  0.4821370000000  0.4625540000000  0.5704620000000 1.0
C      1  0.5420890000000  0.5378680000000  0.4616690000000 1.0
C      1  0.4890020000000  0.4273570000000  0.4306070000000 1.0
C      1  0.6025710000000  0.5348730000000  0.4544150000000 1.0
C      1  0.4686120000000  0.4687140000000  0.4047270000000 1.0
C      1  0.4693420000000  0.5054090000000  0.5291570000000 1.0
C      1  0.4584290000000  0.4558630000000  0.4665330000000 1.0
C      1  0.5944440000000  0.4629050000000  0.5301810000000 1.0
C      1  0.5472500000000  0.5198870000000  0.5990990000000 1.0
C      1  0.4721230000000  0.5992430000000  0.5326120000000 1.0
C      1  0.5705790000000  0.5766270000000  0.4659940000000 1.0
C      1  0.4515290000000  0.6164430000000  0.5119990000000 1.0
C      1  0.5236280000000  0.5654680000000  0.5763170000000 1.0
C      1  0.5531010000000  0.5060780000000  0.4836180000000 1.0
C      1  0.5599720000000  0.4087760000000  0.4670800000000 1.0
C      1  0.5095140000000  0.5366740000000  0.4009490000000 1.0
C      1  0.4202230000000  0.4784430000000  0.4419040000000 1.0
C      1  0.4437420000000  0.4267930000000  0.5679940000000 1.0
C      1  0.5355660000000  0.5993880000000  0.5385930000000 1.0
C      1  0.5058740000000  0.5645180000000  0.4127410000000 1.0
C      1  0.5260620000000  0.5229330000000  0.4952000000000 1.0
C      1  0.5226050000000  0.5130570000000  0.3862690000000 1.0
C      1  0.4870120000000  0.4314550000000  0.5213140000000 1.0
C      1  0.4293070000000  0.4152310000000  0.4870320000000 1.0
C      1  0.4115530000000  0.5335000000000  0.4671650000000 1.0
C      1  0.5791410000000  0.5731770000000  0.5293930000000 1.0
C      1  0.4834920000000  0.4771830000000  0.5965490000000 1.0
C      1  0.5781650000000  0.4872690000000  0.4893550000000 1.0
C      1  0.4605960000000  0.5327960000000  0.5162400000000 1.0
C      1  0.5412270000000  0.4438260000000  0.5166360000000 1.0
C      1  0.4785010000000  0.4061740000000  0.5339930000000 1.0
C      1  0.5036400000000  0.4861600000000  0.5220070000000 1.0
C      1  0.4476550000000  0.5781550000000  0.4830420000000 1.0
C      1  0.5438240000000  0.4420660000000  0.5918200000000 1.0
C      1  0.5807850000000  0.5513460000000  0.4455100000000 1.0
C      1  0.5156460000000  0.4675510000000  0.4819780000000 1.0
C      1  0.4461510000000  0.4850280000000  0.4714250000000 1.0
C      1  0.5049060000000  0.5976160000000  0.5355060000000 1.0
C      1  0.5483540000000  0.4453990000000  0.4774060000000 1.0
C      1  0.4565140000000  0.4218300000000  0.4414520000000 1.0
C      1  0.4738050000000  0.5692530000000  0.4212820000000 1.0
C      1  0.5437600000000  0.5654510000000  0.4502820000000 1.0
C      1  0.4395780000000  0.5558590000000  0.5263250000000 1.0
C      1  0.4485850000000  0.5180020000000  0.4790080000000 1.0
C      1  0.5024340000000  0.4744660000000  0.4451840000000 1.0
C      1  0.5362210000000  0.4966480000000  0.4058390000000 1.0
C      1  0.5255050000000  0.5259160000000  0.5735790000000 1.0
C      1  0.5609830000000  0.4221430000000  0.4984300000000 1.0
C      1  0.5584450000000  0.5480200000000  0.5189520000000 1.0
C      1  0.5633350000000  0.4975650000000  0.5973580000000 1.0
C      1  0.5636390000000  0.4338180000000  0.5728810000000 1.0
C      1  0.3772060000000  0.5297800000000  0.5082410000000 1.0
C      1  0.4838760000000  0.5837780000000  0.3951330000000 1.0
C      1  0.5294780000000  0.5561770000000  0.4928050000000 1.0
C      1  0.4912390000000  0.4462820000000  0.3954560000000 1.0
C      1  0.4857390000000  0.5228730000000  0.4562330000000 1.0
C      1  0.5517100000000  0.5460420000000  0.5783620000000 1.0
C      1  0.4951630000000  0.5142510000000  0.5065980000000 1.0
C      1  0.5213310000000  0.4377180000000  0.4689410000000 1.0
C      1  0.5210640000000  0.4537720000000  0.5789920000000 1.0
C      1  0.4672290000000  0.4764830000000  0.5432110000000 1.0
C      1  0.3975580000000  0.4567230000000  0.4830630000000 1.0
C      1  0.4908480000000  0.4894350000000  0.4200650000000 1.0
C      1  0.5249770000000  0.4117170000000  0.5504040000000 1.0
C      1  0.3546010000000  0.5264840000000  0.5210860000000 1.0
C      1  0.4966710000000  0.4341370000000  0.5730820000000 1.0
C      1  0.4784990000000  0.4049650000000  0.4613350000000 1.0
C      1  0.4006150000000  0.5331930000000  0.4949390000000 1.0
C      1  0.4288370000000  0.5516820000000  0.5522640000000 1.0
C      1  0.5174500000000  0.4350100000000  0.5321740000000 1.0
C      1  0.4130050000000  0.4556960000000  0.4606180000000 1.0
C      1  0.5419300000000  0.5899100000000  0.5644820000000 1.0
C      1  0.4453650000000  0.5288420000000  0.4465480000000 1.0
C      1  0.4290400000000  0.5073860000000  0.4258200000000 1.0
C      1  0.5286100000000  0.5496120000000  0.5247690000000 1.0
C      1  0.5689220000000  0.5196820000000  0.5645850000000 1.0
C      1  0.4794930000000  0.5960930000000  0.4590670000000 1.0
C      1  0.5907180000000  0.4893220000000  0.5177930000000 1.0
C      1  0.4311470000000  0.5338610000000  0.5018250000000 1.0
C      1  0.4779670000000  0.4555640000000  0.4411260000000 1.0
C      1  0.5400860000000  0.4962210000000  0.5340020000000 1.0
C      1  0.5215710000000  0.5777070000000  0.4375740000000 1.0
C      1  0.5561680000000  0.5931950000000  0.5162610000000 1.0
C      1  0.4991770000000  0.5424760000000  0.5832720000000 1.0
C      1  0.5326810000000  0.4723460000000  0.4526000000000 1.0
C      1  0.4300480000000  0.4287290000000  0.5121320000000 1.0
C      1  0.4714830000000  0.4136280000000  0.5655410000000 1.0
C      1  0.4107150000000  0.5097780000000  0.4522870000000 1.0
C      1  0.5636070000000  0.5391460000000  0.4277640000000 1.0
C      1  0.5768280000000  0.4964510000000  0.4394910000000 1.0
C      1  0.4441030000000  0.4785110000000  0.5899270000000 1.0
C      1  0.3961320000000  0.4520930000000  0.5098300000000 1.0
C      1  0.5446370000000  0.5824990000000  0.4873100000000 1.0
C      1  0.5310780000000  0.4806150000000  0.5633930000000 1.0
C      1  0.5167650000000  0.5225210000000  0.4488370000000 1.0
C      1  0.4687500000000  0.5725970000000  0.4481590000000 1.0
C      1  0.5317470000000  0.4736870000000  0.5096680000000 1.0
C      1  0.5942620000000  0.4820100000000  0.4620330000000 1.0
C      1  0.4063410000000  0.4499530000000  0.5362870000000 1.0
C      1  0.5916350000000  0.5525900000000  0.4977890000000 1.0
C      1  0.4363020000000  0.4793910000000  0.5003990000000 1.0
C      1  0.5170530000000  0.4524830000000  0.3972160000000 1.0
C      1  0.5033290000000  0.4601240000000  0.5437010000000 1.0
C      1  0.4389610000000  0.4994810000000  0.5202730000000 1.0
C      1  0.5921970000000  0.5214870000000  0.5115790000000 1.0
C      1  0.4475990000000  0.5824900000000  0.5158320000000 1.0
C      1  0.4620060000000  0.5374970000000  0.5693980000000 1.0
C      1  0.5362390000000  0.4682930000000  0.4107260000000 1.0
C      1  0.5771580000000  0.4600870000000  0.5591990000000 1.0
C      1  0.5479990000000  0.4982780000000  0.4548100000000 1.0
C      1  0.4409380000000  0.3896060000000  0.4855550000000 1.0
C      1  0.5695710000000  0.5081450000000  0.5335570000000 1.0
C      1  0.5805890000000  0.4648330000000  0.4374760000000 1.0
C      1  0.4691930000000  0.3889730000000  0.4824020000000 1.0
C      1  0.5081150000000  0.5964060000000  0.4554600000000 1.0
C      1  0.6048320000000  0.5287150000000  0.4806760000000 1.0
C      1  0.4381480000000  0.5541880000000  0.4658910000000 1.0
C      1  0.5630650000000  0.4859940000000  0.5674550000000 1.0
C      1  0.5769780000000  0.5451030000000  0.5465710000000 1.0
C      1  0.4850580000000  0.4756870000000  0.4747010000000 1.0
C      1  0.4468440000000  0.5074640000000  0.5906490000000 1.0
C      1  0.4882770000000  0.5170410000000  0.5623690000000 1.0
C      1  0.4794980000000  0.5038140000000  0.4819530000000 1.0
C      1  0.4135080000000  0.4740750000000  0.5499730000000 1.0
C      1  0.4983560000000  0.5936150000000  0.5031480000000 1.0
C      1  0.5017990000000  0.4929540000000  0.5544770000000 1.0
C      1  0.5527050000000  0.4120160000000  0.5576430000000 1.0
C      1  0.4321230000000  0.5220020000000  0.5643270000000 1.0
C      1  0.5900300000000  0.4378140000000  0.5075240000000 1.0
C      1  0.4722850000000  0.5484150000000  0.4686920000000 1.0
C      1  0.4416630000000  0.4727740000000  0.5604330000000 1.0
C      1  0.5746310000000  0.4568820000000  0.4851380000000 1.0
C      1  0.5523280000000  0.4520920000000  0.4355420000000 1.0
C      1  0.4811360000000  0.4979630000000  0.6093130000000 1.0
C      1  0.4216210000000  0.5022380000000  0.5426000000000 1.0
C      1  0.5060450000000  0.4184260000000  0.4567850000000 1.0
C      1  0.5232140000000  0.5239750000000  0.5422580000000 1.0
C      1  0.5679590000000  0.4416340000000  0.5325190000000 1.0
C      1  0.4973610000000  0.5729550000000  0.5560160000000 1.0
C      1  0.4626500000000  0.4353220000000  0.4105500000000 1.0
C      1  0.5007380000000  0.3981480000000  0.5561920000000 1.0
C      1  0.4987740000000  0.5637150000000  0.5158140000000 1.0
C      1  0.4514390000000  0.4751170000000  0.4321970000000 1.0
C      1  0.5546410000000  0.4217420000000  0.4458770000000 1.0
C      1  0.5021030000000  0.5154650000000  0.4204980000000 1.0
C      1  0.4842460000000  0.3822890000000  0.5043230000000 1.0
C      1  0.4413960000000  0.4462600000000  0.5899420000000 1.0
C      1  0.4740190000000  0.5264030000000  0.5985450000000 1.0
C      1  0.4353670000000  0.4338600000000  0.4628200000000 1.0
C      1  0.4696830000000  0.4538930000000  0.5222390000000 1.0
C      1  0.4820390000000  0.5451870000000  0.4983900000000 1.0
C      1  0.4714020000000  0.6010790000000  0.4896660000000 1.0
C      1  0.4261080000000  0.4265950000000  0.5441030000000 1.0
C      1  0.5196880000000  0.5082280000000  0.3598060000000 1.0
C      1  0.4940610000000  0.5426730000000  0.5423490000000 1.0
END
