TITL C-2778430-5657-624 -0.00542198208749303 125000 -585.408427106084 0 0 102 (C1) n - 1
REM
REM in /home/nfs/bkarasulu/CARBON/AIRSS/Generating-Clusters/REBO/Only-C1/SD-CG/HFTN-CG
REM
REM
REM
REM
REM
REM ./C.cell (11c1c37f851c82e70ff6c80c92926a4b)
REM
REM compiler GCC version 9.2.1 20190827 (Red Hat 9.2.1-1)
REM options -cpp -mtune=generic -march=x86-64 -g -O0 -fpre-include=/usr/include/finclude/math-vector-fortran.h
REM seed 219197897 -1946573112 405105356 -1684971853 -1407302980 253191854 217027548 349656173 1992419330 1756609458 -1508854834 -1444563312 -1469111219 928148579 -1358756497 485010236 2005894220 -892589369 -1076154971 441181782 1550370735 1968955359 -1093525983 -662710279 1578023378 -611282544 -667155049 2036337128 246350704 -212354670 -1983901595 1536281671 -815218308
REM
CELL 1.54180   50.00000   50.00000   50.00000   90.00000   90.00000   90.00000
LATT -1
SFAC C  
C      1  0.5502620000000  0.5613100000000  0.4369300000000 1.0
C      1  0.5329290000000  0.5240560000000  0.5771800000000 1.0
C      1  0.5558700000000  0.5742160000000  0.5348260000000 1.0
C      1  0.4869720000000  0.4589640000000  0.5320790000000 1.0
C      1  0.5066950000000  0.4912640000000  0.4962490000000 1.0
C      1  0.4492230000000  0.5686000000000  0.4664280000000 1.0
C      1  0.4427610000000  0.4441830000000  0.4973650000000 1.0
C      1  0.5020800000000  0.5270590000000  0.4792890000000 1.0
C      1  0.5099680000000  0.5004440000000  0.5861030000000 1.0
C      1  0.4599420000000  0.4999650000000  0.4675860000000 1.0
C      1  0.4334510000000  0.4611190000000  0.4381500000000 1.0
C      1  0.4503200000000  0.4365240000000  0.5253300000000 1.0
C      1  0.4324890000000  0.4810740000000  0.4632290000000 1.0
C      1  0.5634360000000  0.4332640000000  0.4753630000000 1.0
C      1  0.4822600000000  0.5080230000000  0.5874880000000 1.0
C      1  0.4892940000000  0.5105060000000  0.4565010000000 1.0
C      1  0.5339690000000  0.5557690000000  0.5162000000000 1.0
C      1  0.5627840000000  0.4527320000000  0.5419200000000 1.0
C      1  0.5138530000000  0.5257640000000  0.4390550000000 1.0
C      1  0.4592660000000  0.5398610000000  0.5195280000000 1.0
C      1  0.5284800000000  0.5366630000000  0.4745840000000 1.0
C      1  0.4815460000000  0.4680160000000  0.5607260000000 1.0
C      1  0.5159740000000  0.4531690000000  0.4842740000000 1.0
C      1  0.5064500000000  0.4261990000000  0.5307060000000 1.0
C      1  0.4819710000000  0.4281790000000  0.5620150000000 1.0
C      1  0.4246810000000  0.4705870000000  0.4911580000000 1.0
C      1  0.5622260000000  0.4809160000000  0.5286600000000 1.0
C      1  0.5816640000000  0.5390160000000  0.5152970000000 1.0
C      1  0.5070930000000  0.5029780000000  0.4185940000000 1.0
C      1  0.4955650000000  0.5536810000000  0.4456580000000 1.0
C      1  0.4959700000000  0.5782880000000  0.4943530000000 1.0
C      1  0.5522550000000  0.4669520000000  0.4934170000000 1.0
C      1  0.5568080000000  0.4437780000000  0.5148980000000 1.0
C      1  0.4137300000000  0.4895720000000  0.5100070000000 1.0
C      1  0.5277480000000  0.4777530000000  0.4191040000000 1.0
C      1  0.5660060000000  0.5467430000000  0.5380900000000 1.0
C      1  0.5590780000000  0.5306990000000  0.4834240000000 1.0
C      1  0.5587260000000  0.5786860000000  0.4921660000000 1.0
C      1  0.5485100000000  0.4732040000000  0.4366280000000 1.0
C      1  0.4394900000000  0.5674970000000  0.4967380000000 1.0
C      1  0.4796710000000  0.5754460000000  0.4649050000000 1.0
C      1  0.4491600000000  0.5183060000000  0.5422160000000 1.0
C      1  0.5731520000000  0.4830050000000  0.4501210000000 1.0
C      1  0.5428670000000  0.5233470000000  0.5103410000000 1.0
C      1  0.4612430000000  0.4324720000000  0.4713150000000 1.0
C      1  0.5076190000000  0.4716790000000  0.5778650000000 1.0
C      1  0.4915470000000  0.5196530000000  0.5074820000000 1.0
C      1  0.5397240000000  0.4195490000000  0.4780180000000 1.0
C      1  0.4586630000000  0.4471520000000  0.5720390000000 1.0
C      1  0.4251750000000  0.5089460000000  0.4503970000000 1.0
C      1  0.4731200000000  0.4210190000000  0.5332780000000 1.0
C      1  0.4586340000000  0.5016870000000  0.4158200000000 1.0
C      1  0.4621980000000  0.4722040000000  0.4254520000000 1.0
C      1  0.5750960000000  0.5565140000000  0.4914940000000 1.0
C      1  0.5379910000000  0.4890740000000  0.5592150000000 1.0
C      1  0.4450140000000  0.5368810000000  0.4708090000000 1.0
C      1  0.5261630000000  0.5639490000000  0.4567530000000 1.0
C      1  0.5620110000000  0.5070460000000  0.5702000000000 1.0
C      1  0.5815190000000  0.4955970000000  0.4869770000000 1.0
C      1  0.5107210000000  0.5557970000000  0.5365970000000 1.0
C      1  0.4873230000000  0.4173690000000  0.4811750000000 1.0
C      1  0.5791230000000  0.4636390000000  0.4749740000000 1.0
C      1  0.4952140000000  0.4715850000000  0.4270660000000 1.0
C      1  0.5407950000000  0.4639690000000  0.4636830000000 1.0
C      1  0.5066600000000  0.4521490000000  0.4511430000000 1.0
C      1  0.5123050000000  0.4425790000000  0.5602860000000 1.0
C      1  0.5711320000000  0.5130180000000  0.4595140000000 1.0
C      1  0.4276950000000  0.5418520000000  0.5069170000000 1.0
C      1  0.5140950000000  0.4124190000000  0.5000340000000 1.0
C      1  0.4288020000000  0.4980280000000  0.5581130000000 1.0
C      1  0.5154470000000  0.5052040000000  0.5469500000000 1.0
C      1  0.4937620000000  0.5194230000000  0.5365280000000 1.0
C      1  0.4158560000000  0.5262940000000  0.4721190000000 1.0
C      1  0.5411670000000  0.5278430000000  0.5440190000000 1.0
C      1  0.4876380000000  0.4454650000000  0.5007010000000 1.0
C      1  0.4627970000000  0.5230130000000  0.4918470000000 1.0
C      1  0.4113660000000  0.5171790000000  0.5004460000000 1.0
C      1  0.4569400000000  0.5794150000000  0.5144460000000 1.0
C      1  0.5398390000000  0.4601870000000  0.5587870000000 1.0
C      1  0.4125800000000  0.4860940000000  0.5389030000000 1.0
C      1  0.4455020000000  0.5195000000000  0.4332910000000 1.0
C      1  0.4784920000000  0.4824750000000  0.5114330000000 1.0
C      1  0.5457940000000  0.5309290000000  0.4457990000000 1.0
C      1  0.4644080000000  0.4679640000000  0.4879370000000 1.0
C      1  0.5841110000000  0.5098080000000  0.5120840000000 1.0
C      1  0.4687080000000  0.4620040000000  0.4560080000000 1.0
C      1  0.5131130000000  0.4211290000000  0.4612000000000 1.0
C      1  0.5261350000000  0.5734620000000  0.4894430000000 1.0
C      1  0.4579700000000  0.4863400000000  0.5342500000000 1.0
C      1  0.4743250000000  0.5298740000000  0.5550530000000 1.0
C      1  0.4845190000000  0.5626840000000  0.5212220000000 1.0
C      1  0.4602460000000  0.4922660000000  0.5701930000000 1.0
C      1  0.4856300000000  0.6044430000000  0.4782460000000 1.0
C      1  0.4624600000000  0.5463750000000  0.4436570000000 1.0
C      1  0.5274990000000  0.4401040000000  0.5100050000000 1.0
C      1  0.5375270000000  0.4915310000000  0.5073610000000 1.0
C      1  0.4867810000000  0.5456610000000  0.5749120000000 1.0
C      1  0.4464610000000  0.4578870000000  0.5447240000000 1.0
C      1  0.4950200000000  0.4810110000000  0.4658920000000 1.0
C      1  0.5138170000000  0.5484500000000  0.5646860000000 1.0
C      1  0.4812690000000  0.5103800000000  0.4028470000000 1.0
C      1  0.5765930000000  0.5024000000000  0.5435150000000 1.0
END
