TITL C-2778435-5768-649 -0.00306917024818171 125000 -252.874881851637 0 0 44 (C1) n - 1
REM
REM in /home/nfs/bkarasulu/CARBON/AIRSS/Generating-Clusters/REBO/Only-C1/SD-CG/HFTN-CG
REM
REM
REM
REM
REM
REM ./C.cell (11c1c37f851c82e70ff6c80c92926a4b)
REM
REM compiler GCC version 9.2.1 20190827 (Red Hat 9.2.1-1)
REM options -cpp -mtune=generic -march=x86-64 -g -O0 -fpre-include=/usr/include/finclude/math-vector-fortran.h
REM seed -1376517611 -587250854 -1480538161 1545877696 -973513263 -1265076527 -1346313175 -2015785774 -408010525 -935079301 -1668426175 2031870680 -2073338259 -1482083636 1598658683 2004059258 814303330 610492793 -737874579 -1381613769 667567539 -2013157788 798567953 433103443 -843068859 -2135254758 -950856523 -1106861952 1583361414 -101701100 -1600266698 127293419 -886026114
REM
CELL 1.54180   50.00000   50.00000   50.00000   90.00000   90.00000   90.00000
LATT -1
SFAC C  
C      1  0.4791100000000  0.4331560000000  0.5286090000000 1.0
C      1  0.5000680000000  0.5488410000000  0.4521220000000 1.0
C      1  0.5250920000000  0.4912290000000  0.5524710000000 1.0
C      1  0.4974720000000  0.4794620000000  0.5526340000000 1.0
C      1  0.4467990000000  0.5051080000000  0.4239500000000 1.0
C      1  0.4513670000000  0.4837440000000  0.5018940000000 1.0
C      1  0.5497840000000  0.5165670000000  0.5187510000000 1.0
C      1  0.5519770000000  0.4690780000000  0.5171160000000 1.0
C      1  0.5423220000000  0.5371990000000  0.4701580000000 1.0
C      1  0.5245010000000  0.4631150000000  0.4437550000000 1.0
C      1  0.4761750000000  0.5046570000000  0.5536010000000 1.0
C      1  0.5537150000000  0.5108380000000  0.4884360000000 1.0
C      1  0.5618240000000  0.4803650000000  0.4884570000000 1.0
C      1  0.4996510000000  0.5119970000000  0.5297190000000 1.0
C      1  0.5066600000000  0.5169600000000  0.5627530000000 1.0
C      1  0.4665200000000  0.5140100000000  0.4387370000000 1.0
C      1  0.4780710000000  0.4079860000000  0.5389650000000 1.0
C      1  0.4624140000000  0.4182590000000  0.4852770000000 1.0
C      1  0.4431730000000  0.5442150000000  0.5452780000000 1.0
C      1  0.4873050000000  0.5233920000000  0.4543230000000 1.0
C      1  0.4869340000000  0.5682260000000  0.4989370000000 1.0
C      1  0.5130480000000  0.5349350000000  0.5819110000000 1.0
C      1  0.4491900000000  0.5132140000000  0.5459630000000 1.0
C      1  0.5289310000000  0.5079240000000  0.4661070000000 1.0
C      1  0.4745880000000  0.5428900000000  0.5028140000000 1.0
C      1  0.5237270000000  0.4257680000000  0.4048430000000 1.0
C      1  0.4930800000000  0.5202390000000  0.5038470000000 1.0
C      1  0.4937440000000  0.4754710000000  0.4795260000000 1.0
C      1  0.5452260000000  0.4921430000000  0.5333730000000 1.0
C      1  0.5241030000000  0.4439130000000  0.4237480000000 1.0
C      1  0.5382320000000  0.4578780000000  0.4896480000000 1.0
C      1  0.4704590000000  0.4382560000000  0.5019050000000 1.0
C      1  0.5223170000000  0.5573050000000  0.4684080000000 1.0
C      1  0.5334380000000  0.4901050000000  0.4413660000000 1.0
C      1  0.4424490000000  0.5055750000000  0.5163180000000 1.0
C      1  0.4394420000000  0.5651310000000  0.5612570000000 1.0
C      1  0.5448200000000  0.5433210000000  0.5252160000000 1.0
C      1  0.5328580000000  0.5655610000000  0.5150000000000 1.0
C      1  0.4710480000000  0.4658820000000  0.4928710000000 1.0
C      1  0.4487920000000  0.5369630000000  0.5143360000000 1.0
C      1  0.4889710000000  0.4547920000000  0.5434620000000 1.0
C      1  0.5149440000000  0.5698410000000  0.4933540000000 1.0
C      1  0.4995460000000  0.5057620000000  0.4773460000000 1.0
C      1  0.5161140000000  0.4587280000000  0.4714390000000 1.0
END
