TITL C-2778435-5768-1208 0.00643358698594758 125000 -630.83996820321 0 0 111 (C1) n - 1
REM
REM in /home/nfs/bkarasulu/CARBON/AIRSS/Generating-Clusters/REBO/Only-C1/SD-CG/HFTN-CG
REM
REM
REM
REM
REM
REM ./C.cell (11c1c37f851c82e70ff6c80c92926a4b)
REM
REM compiler GCC version 9.2.1 20190827 (Red Hat 9.2.1-1)
REM options -cpp -mtune=generic -march=x86-64 -g -O0 -fpre-include=/usr/include/finclude/math-vector-fortran.h
REM seed 511492675 -429903121 1016011011 1060681620 -1343288615 -2023823328 -1050536991 -2125677356 -2020400764 -1557651359 1616444677 522627082 -2118487351 -1436736544 -1814691143 -1911395088 -269081438 1878529678 -1160131881 -1936562094 93738219 355141744 174669649 -88924470 90296445 1246682769 -450022281 -1727462526 -147468678 -153386786 1059919072 -1189259136 2069735951
REM
CELL 1.54180   50.00000   50.00000   50.00000   90.00000   90.00000   90.00000
LATT -1
SFAC C  
C      1  0.5567030000000  0.5479950000000  0.5396680000000 1.0
C      1  0.5826390000000  0.5015600000000  0.5402190000000 1.0
C      1  0.4935490000000  0.4514180000000  0.4629180000000 1.0
C      1  0.5417720000000  0.4575660000000  0.4607140000000 1.0
C      1  0.4467710000000  0.5142740000000  0.5805040000000 1.0
C      1  0.5550230000000  0.5357890000000  0.4493670000000 1.0
C      1  0.5674480000000  0.5463300000000  0.5018520000000 1.0
C      1  0.4861260000000  0.4753550000000  0.5846200000000 1.0
C      1  0.5512640000000  0.4250010000000  0.5030370000000 1.0
C      1  0.4165640000000  0.5562930000000  0.5058950000000 1.0
C      1  0.5217780000000  0.4234620000000  0.4648840000000 1.0
C      1  0.5197070000000  0.5270500000000  0.4847510000000 1.0
C      1  0.4772900000000  0.5282680000000  0.5588040000000 1.0
C      1  0.5397270000000  0.5099420000000  0.4756530000000 1.0
C      1  0.5543730000000  0.5721420000000  0.5041610000000 1.0
C      1  0.5044510000000  0.4898350000000  0.4948660000000 1.0
C      1  0.4839180000000  0.5777700000000  0.4655840000000 1.0
C      1  0.5301840000000  0.4883190000000  0.4552100000000 1.0
C      1  0.4294380000000  0.5384720000000  0.5540810000000 1.0
C      1  0.4962820000000  0.4094720000000  0.4936780000000 1.0
C      1  0.5781110000000  0.4739770000000  0.4638910000000 1.0
C      1  0.5357890000000  0.4606270000000  0.4270630000000 1.0
C      1  0.4919050000000  0.4484080000000  0.5556330000000 1.0
C      1  0.4548530000000  0.4395030000000  0.5440560000000 1.0
C      1  0.4788540000000  0.5924470000000  0.4959260000000 1.0
C      1  0.4722980000000  0.5586180000000  0.5676230000000 1.0
C      1  0.4811680000000  0.5543470000000  0.5288670000000 1.0
C      1  0.5515360000000  0.4754830000000  0.5108380000000 1.0
C      1  0.5935380000000  0.5411380000000  0.4951390000000 1.0
C      1  0.4499620000000  0.4663120000000  0.4590200000000 1.0
C      1  0.5850410000000  0.4956080000000  0.4816790000000 1.0
C      1  0.5452940000000  0.5780310000000  0.5346550000000 1.0
C      1  0.4964710000000  0.4028700000000  0.5255810000000 1.0
C      1  0.4782820000000  0.4297030000000  0.5230520000000 1.0
C      1  0.5129490000000  0.4929030000000  0.5774970000000 1.0
C      1  0.5092570000000  0.5206160000000  0.5815240000000 1.0
C      1  0.4254190000000  0.5072640000000  0.4959220000000 1.0
C      1  0.4215900000000  0.4762830000000  0.5019640000000 1.0
C      1  0.5325740000000  0.4744500000000  0.5627210000000 1.0
C      1  0.4397980000000  0.4750930000000  0.4278790000000 1.0
C      1  0.4297110000000  0.4346030000000  0.4799040000000 1.0
C      1  0.4741240000000  0.5505040000000  0.4253670000000 1.0
C      1  0.5689510000000  0.5183500000000  0.4733990000000 1.0
C      1  0.4935490000000  0.6017130000000  0.5407830000000 1.0
C      1  0.5296810000000  0.5000960000000  0.5150070000000 1.0
C      1  0.5769810000000  0.4449430000000  0.5131620000000 1.0
C      1  0.5255900000000  0.4038740000000  0.5101650000000 1.0
C      1  0.5283080000000  0.4692350000000  0.4899660000000 1.0
C      1  0.4315410000000  0.5217300000000  0.4464100000000 1.0
C      1  0.5236630000000  0.4382790000000  0.4907060000000 1.0
C      1  0.5498640000000  0.5124220000000  0.4302830000000 1.0
C      1  0.4874590000000  0.5067540000000  0.4730500000000 1.0
C      1  0.5386270000000  0.4278330000000  0.5452390000000 1.0
C      1  0.4857190000000  0.4318200000000  0.4798790000000 1.0
C      1  0.4747200000000  0.4905280000000  0.4391230000000 1.0
C      1  0.5624650000000  0.4857960000000  0.4425130000000 1.0
C      1  0.5436520000000  0.4510070000000  0.5323590000000 1.0
C      1  0.4488470000000  0.4787380000000  0.5448690000000 1.0
C      1  0.4798390000000  0.5029130000000  0.4102460000000 1.0
C      1  0.5656780000000  0.4474040000000  0.4811200000000 1.0
C      1  0.4338800000000  0.4578860000000  0.5246010000000 1.0
C      1  0.4636710000000  0.4606370000000  0.5679000000000 1.0
C      1  0.5112080000000  0.5610600000000  0.4540490000000 1.0
C      1  0.4788760000000  0.4688960000000  0.5318680000000 1.0
C      1  0.5808610000000  0.4875720000000  0.5097790000000 1.0
C      1  0.4937420000000  0.5348000000000  0.4297340000000 1.0
C      1  0.4952470000000  0.5732670000000  0.5688500000000 1.0
C      1  0.4929170000000  0.5552490000000  0.4973780000000 1.0
C      1  0.5000700000000  0.4813290000000  0.4560560000000 1.0
C      1  0.4519340000000  0.4662270000000  0.4900710000000 1.0
C      1  0.4567330000000  0.4981640000000  0.4666310000000 1.0
C      1  0.4997640000000  0.5319160000000  0.4611430000000 1.0
C      1  0.4583460000000  0.5156200000000  0.5001560000000 1.0
C      1  0.5098430000000  0.5829380000000  0.4871990000000 1.0
C      1  0.4433400000000  0.5588680000000  0.5652350000000 1.0
C      1  0.4272960000000  0.5224190000000  0.5241340000000 1.0
C      1  0.5135900000000  0.4408420000000  0.4379540000000 1.0
C      1  0.4734420000000  0.4855890000000  0.5037360000000 1.0
C      1  0.4175520000000  0.5048340000000  0.4644290000000 1.0
C      1  0.5306330000000  0.4918610000000  0.4157860000000 1.0
C      1  0.5272270000000  0.5670540000000  0.5616510000000 1.0
C      1  0.4151280000000  0.4580270000000  0.4767440000000 1.0
C      1  0.5127990000000  0.4537460000000  0.5815410000000 1.0
C      1  0.4347880000000  0.5493330000000  0.4878210000000 1.0
C      1  0.4369500000000  0.5048280000000  0.5514230000000 1.0
C      1  0.5192170000000  0.5958250000000  0.5461660000000 1.0
C      1  0.5564800000000  0.4466180000000  0.4093620000000 1.0
C      1  0.5595680000000  0.4852320000000  0.5590940000000 1.0
C      1  0.5408930000000  0.5603690000000  0.4572370000000 1.0
C      1  0.4372930000000  0.5467200000000  0.4578250000000 1.0
C      1  0.4611660000000  0.4512450000000  0.4315790000000 1.0
C      1  0.4771680000000  0.5856490000000  0.5240000000000 1.0
C      1  0.4601140000000  0.5295600000000  0.5302060000000 1.0
C      1  0.4776080000000  0.5084030000000  0.5860260000000 1.0
C      1  0.5140580000000  0.5368090000000  0.5148810000000 1.0
C      1  0.5588510000000  0.5193580000000  0.5566860000000 1.0
C      1  0.5058340000000  0.5375150000000  0.5454700000000 1.0
C      1  0.4089340000000  0.4783620000000  0.4573260000000 1.0
C      1  0.4519960000000  0.4362040000000  0.5048740000000 1.0
C      1  0.4841020000000  0.4395280000000  0.4259370000000 1.0
C      1  0.5453740000000  0.5270380000000  0.5154020000000 1.0
C      1  0.5185900000000  0.4738070000000  0.5328920000000 1.0
C      1  0.4625220000000  0.5608700000000  0.4508350000000 1.0
C      1  0.5311760000000  0.5362970000000  0.5668550000000 1.0
C      1  0.4486550000000  0.5062780000000  0.4243780000000 1.0
C      1  0.5061110000000  0.5004490000000  0.4035240000000 1.0
C      1  0.5027630000000  0.4504310000000  0.5147860000000 1.0
C      1  0.5382940000000  0.5776210000000  0.4818810000000 1.0
C      1  0.5796820000000  0.4674580000000  0.5377760000000 1.0
C      1  0.5169830000000  0.4271470000000  0.5617590000000 1.0
C      1  0.4680680000000  0.5437120000000  0.4828280000000 1.0
END
