TITL C-2778429-3646-1378 -0.0186321626952327 125000 -552.919832631476 0 0 94 (C1) n - 1
REM
REM in /home/nfs/bkarasulu/CARBON/AIRSS/Generating-Clusters/REBO/Only-C1/SD-CG/HFTN-CG
REM
REM
REM
REM
REM
REM ./C.cell (11c1c37f851c82e70ff6c80c92926a4b)
REM
REM compiler GCC version 9.2.1 20190827 (Red Hat 9.2.1-1)
REM options -cpp -mtune=generic -march=x86-64 -g -O0 -fpre-include=/usr/include/finclude/math-vector-fortran.h
REM seed -96457053 1684029290 248429540 2079894132 -470252272 1031639816 -560965594 -1091768765 1994215322 1894431938 826304613 1742674739 -904527840 1595317682 -353601665 1072587841 -410873885 2139429100 -406361096 674977440 506984794 1123472106 87428704 -1191365735 -1678480539 -1405945975 -615297448 -550327025 1762047666 -1156076487 -825462576 1646978150 339220423
REM
CELL 1.54180   50.00000   50.00000   50.00000   90.00000   90.00000   90.00000
LATT -1
SFAC C  
C      1  0.5047930000000  0.5642860000000  0.5202000000000 1.0
C      1  0.4754350000000  0.5679000000000  0.5598990000000 1.0
C      1  0.4833280000000  0.5770270000000  0.4570950000000 1.0
C      1  0.4355550000000  0.5472170000000  0.4996890000000 1.0
C      1  0.4971950000000  0.5117170000000  0.4112980000000 1.0
C      1  0.5280640000000  0.5294500000000  0.5207920000000 1.0
C      1  0.5712910000000  0.5197130000000  0.5481170000000 1.0
C      1  0.4441700000000  0.4735020000000  0.5672810000000 1.0
C      1  0.5149970000000  0.5099810000000  0.5549590000000 1.0
C      1  0.4689880000000  0.4755350000000  0.4380670000000 1.0
C      1  0.4594300000000  0.5806690000000  0.4733280000000 1.0
C      1  0.4907130000000  0.5504150000000  0.4567030000000 1.0
C      1  0.5713120000000  0.4853810000000  0.4705510000000 1.0
C      1  0.4682040000000  0.4515010000000  0.4570880000000 1.0
C      1  0.5168280000000  0.4430200000000  0.4403530000000 1.0
C      1  0.4926570000000  0.5043510000000  0.5875720000000 1.0
C      1  0.5314100000000  0.5319730000000  0.4870030000000 1.0
C      1  0.5249110000000  0.4194660000000  0.4860390000000 1.0
C      1  0.4976660000000  0.4910740000000  0.4864200000000 1.0
C      1  0.5690380000000  0.5972210000000  0.4891870000000 1.0
C      1  0.4896550000000  0.4577250000000  0.5806280000000 1.0
C      1  0.4460490000000  0.5022660000000  0.5253390000000 1.0
C      1  0.5414720000000  0.4832230000000  0.4364530000000 1.0
C      1  0.5332950000000  0.4886730000000  0.5356430000000 1.0
C      1  0.5597310000000  0.4508940000000  0.5053760000000 1.0
C      1  0.4803940000000  0.4630220000000  0.5188160000000 1.0
C      1  0.4931410000000  0.4331170000000  0.4531160000000 1.0
C      1  0.5235490000000  0.5831300000000  0.4985090000000 1.0
C      1  0.5152240000000  0.5329720000000  0.4589160000000 1.0
C      1  0.4985470000000  0.4162000000000  0.4755800000000 1.0
C      1  0.5232540000000  0.5180700000000  0.4048200000000 1.0
C      1  0.5470890000000  0.5082570000000  0.5673580000000 1.0
C      1  0.5617530000000  0.4609510000000  0.5316760000000 1.0
C      1  0.4562830000000  0.4337970000000  0.4909010000000 1.0
C      1  0.5337350000000  0.4778230000000  0.5688610000000 1.0
C      1  0.4235190000000  0.4858710000000  0.4825770000000 1.0
C      1  0.5062000000000  0.5033970000000  0.4564210000000 1.0
C      1  0.4083830000000  0.5082600000000  0.4911520000000 1.0
C      1  0.5414080000000  0.5627960000000  0.4273510000000 1.0
C      1  0.4588500000000  0.5588990000000  0.5157930000000 1.0
C      1  0.4442260000000  0.4364470000000  0.4529000000000 1.0
C      1  0.4565390000000  0.5526610000000  0.5453550000000 1.0
C      1  0.4681400000000  0.4644250000000  0.4885510000000 1.0
C      1  0.5701620000000  0.5069720000000  0.4505190000000 1.0
C      1  0.4959790000000  0.4332680000000  0.5205600000000 1.0
C      1  0.4736380000000  0.4858050000000  0.5664410000000 1.0
C      1  0.4244370000000  0.5234330000000  0.5091070000000 1.0
C      1  0.5193010000000  0.5509760000000  0.5658470000000 1.0
C      1  0.4648450000000  0.5333900000000  0.4620150000000 1.0
C      1  0.5723000000000  0.5001720000000  0.4995470000000 1.0
C      1  0.5621540000000  0.4579410000000  0.4755040000000 1.0
C      1  0.5353940000000  0.5388710000000  0.4365440000000 1.0
C      1  0.4957350000000  0.4879020000000  0.4310240000000 1.0
C      1  0.4484950000000  0.4936460000000  0.4371970000000 1.0
C      1  0.4149140000000  0.4590430000000  0.4852820000000 1.0
C      1  0.5044560000000  0.5296780000000  0.5797340000000 1.0
C      1  0.4346090000000  0.4499830000000  0.5293610000000 1.0
C      1  0.4732440000000  0.5270400000000  0.4135590000000 1.0
C      1  0.5083590000000  0.4790720000000  0.5848350000000 1.0
C      1  0.4726000000000  0.4358650000000  0.5760190000000 1.0
C      1  0.5393990000000  0.4473150000000  0.4611900000000 1.0
C      1  0.5423280000000  0.5384850000000  0.5510380000000 1.0
C      1  0.4314240000000  0.4768050000000  0.5413080000000 1.0
C      1  0.4870390000000  0.4228980000000  0.5511760000000 1.0
C      1  0.5770600000000  0.5327340000000  0.4622960000000 1.0
C      1  0.5290050000000  0.4480630000000  0.4997240000000 1.0
C      1  0.4618230000000  0.4417950000000  0.5380100000000 1.0
C      1  0.4457260000000  0.4459080000000  0.5765220000000 1.0
C      1  0.5187270000000  0.4346570000000  0.5453870000000 1.0
C      1  0.5184180000000  0.4676790000000  0.4254450000000 1.0
C      1  0.5489780000000  0.5115240000000  0.4252400000000 1.0
C      1  0.4482360000000  0.5267530000000  0.5490050000000 1.0
C      1  0.4775120000000  0.4912970000000  0.5338850000000 1.0
C      1  0.5408760000000  0.4524780000000  0.5503340000000 1.0
C      1  0.5215410000000  0.4803190000000  0.5083620000000 1.0
C      1  0.4530710000000  0.4910780000000  0.4930430000000 1.0
C      1  0.4663010000000  0.5857980000000  0.5012610000000 1.0
C      1  0.5410260000000  0.5015470000000  0.4909910000000 1.0
C      1  0.5562440000000  0.5498680000000  0.4831110000000 1.0
C      1  0.5024620000000  0.5670750000000  0.5506890000000 1.0
C      1  0.4301490000000  0.4416110000000  0.5019890000000 1.0
C      1  0.4803540000000  0.4194860000000  0.4971770000000 1.0
C      1  0.5109220000000  0.4616780000000  0.4750720000000 1.0
C      1  0.5495740000000  0.5776630000000  0.4913310000000 1.0
C      1  0.5822540000000  0.5310980000000  0.4948230000000 1.0
C      1  0.4744920000000  0.5158500000000  0.4870690000000 1.0
C      1  0.4985100000000  0.5139050000000  0.5275590000000 1.0
C      1  0.5665090000000  0.4929620000000  0.5297370000000 1.0
C      1  0.4853000000000  0.5382380000000  0.5102750000000 1.0
C      1  0.5316540000000  0.4861150000000  0.4661350000000 1.0
C      1  0.5619080000000  0.5332430000000  0.5189440000000 1.0
C      1  0.4561430000000  0.5208800000000  0.4358600000000 1.0
C      1  0.4935480000000  0.5911440000000  0.5061370000000 1.0
C      1  0.4444470000000  0.5547220000000  0.4730410000000 1.0
END
