TITL C-2778426-5645-1415 0.00838916579101386 125000 -904.301311972112 0 0 157 (C1) n - 1
REM
REM in /home/nfs/bkarasulu/CARBON/AIRSS/Generating-Clusters/REBO/Only-C1/SD-CG/HFTN-CG
REM
REM
REM
REM
REM
REM ./C.cell (11c1c37f851c82e70ff6c80c92926a4b)
REM
REM compiler GCC version 9.2.1 20190827 (Red Hat 9.2.1-1)
REM options -cpp -mtune=generic -march=x86-64 -g -O0 -fpre-include=/usr/include/finclude/math-vector-fortran.h
REM seed 163808899 -116824851 -1104310552 1066435244 259889134 -2063413371 -770052247 -964287154 538058560 -81788227 -1733321624 1584032923 -307816761 -12271907 70198577 1382467336 42859845 -1628968492 170103527 -1832495858 -66030385 -667826944 1042408602 1388395823 -1355246495 -1953798069 1438458967 -388688211 -1942680976 -1601634837 907318897 -1724575814 -1638516255
REM
CELL 1.54180   50.00000   50.00000   50.00000   90.00000   90.00000   90.00000
LATT -1
SFAC C  
C      1  0.5013590000000  0.5689840000000  0.4843670000000 1.0
C      1  0.5355890000000  0.5520170000000  0.4919990000000 1.0
C      1  0.5601790000000  0.4773440000000  0.5615820000000 1.0
C      1  0.4784780000000  0.5296830000000  0.4040240000000 1.0
C      1  0.4559160000000  0.4360670000000  0.4353750000000 1.0
C      1  0.5876360000000  0.4736110000000  0.4690910000000 1.0
C      1  0.5024440000000  0.4159820000000  0.4455700000000 1.0
C      1  0.4951240000000  0.5338090000000  0.4498750000000 1.0
C      1  0.4974970000000  0.4653350000000  0.6069520000000 1.0
C      1  0.5122540000000  0.5084190000000  0.5024970000000 1.0
C      1  0.4478600000000  0.4054840000000  0.4825230000000 1.0
C      1  0.5533500000000  0.4120870000000  0.4476320000000 1.0
C      1  0.5883590000000  0.4941380000000  0.5422610000000 1.0
C      1  0.6011410000000  0.4746740000000  0.4986900000000 1.0
C      1  0.4272000000000  0.4535460000000  0.5498300000000 1.0
C      1  0.5066790000000  0.5365190000000  0.4945570000000 1.0
C      1  0.5704060000000  0.4261910000000  0.4657380000000 1.0
C      1  0.5558850000000  0.5043650000000  0.4123250000000 1.0
C      1  0.5316800000000  0.4188230000000  0.5402210000000 1.0
C      1  0.6022800000000  0.5373760000000  0.4942820000000 1.0
C      1  0.5627690000000  0.4308800000000  0.5474910000000 1.0
C      1  0.5041900000000  0.4632480000000  0.4515190000000 1.0
C      1  0.5842960000000  0.5612570000000  0.5106970000000 1.0
C      1  0.5003500000000  0.4406830000000  0.5284910000000 1.0
C      1  0.5345800000000  0.4436590000000  0.5839540000000 1.0
C      1  0.5355970000000  0.4576720000000  0.4462860000000 1.0
C      1  0.4754810000000  0.4063500000000  0.5543510000000 1.0
C      1  0.4554100000000  0.5102330000000  0.4615840000000 1.0
C      1  0.4555590000000  0.5745900000000  0.4272600000000 1.0
C      1  0.4491530000000  0.5553430000000  0.5564530000000 1.0
C      1  0.5096440000000  0.4118360000000  0.4844390000000 1.0
C      1  0.4750270000000  0.5601040000000  0.5001450000000 1.0
C      1  0.4782110000000  0.4731320000000  0.5731520000000 1.0
C      1  0.5075460000000  0.5617180000000  0.4344550000000 1.0
C      1  0.5011800000000  0.5155430000000  0.5572960000000 1.0
C      1  0.4392470000000  0.4379670000000  0.4598810000000 1.0
C      1  0.4687290000000  0.5918950000000  0.4868020000000 1.0
C      1  0.4785740000000  0.5034340000000  0.3930270000000 1.0
C      1  0.5093350000000  0.5472110000000  0.5899580000000 1.0
C      1  0.4212140000000  0.4842610000000  0.5569010000000 1.0
C      1  0.6005720000000  0.5253640000000  0.4619530000000 1.0
C      1  0.4945790000000  0.4601940000000  0.5016330000000 1.0
C      1  0.4142430000000  0.4594060000000  0.4563370000000 1.0
C      1  0.5155670000000  0.5567470000000  0.5196970000000 1.0
C      1  0.5468830000000  0.5162530000000  0.5783350000000 1.0
C      1  0.5387350000000  0.5277040000000  0.5510300000000 1.0
C      1  0.4651290000000  0.5360350000000  0.4524760000000 1.0
C      1  0.5730450000000  0.5196830000000  0.5248400000000 1.0
C      1  0.4499080000000  0.4817850000000  0.5999570000000 1.0
C      1  0.4697850000000  0.5394780000000  0.5865390000000 1.0
C      1  0.4435380000000  0.5115180000000  0.4904800000000 1.0
C      1  0.5756260000000  0.5424090000000  0.5470110000000 1.0
C      1  0.4158510000000  0.4742340000000  0.5065190000000 1.0
C      1  0.4788200000000  0.4072020000000  0.5265470000000 1.0
C      1  0.5347080000000  0.5090190000000  0.5281050000000 1.0
C      1  0.4962630000000  0.5860680000000  0.5583160000000 1.0
C      1  0.5637610000000  0.4567210000000  0.4654280000000 1.0
C      1  0.4352130000000  0.4990220000000  0.4234780000000 1.0
C      1  0.5177910000000  0.4373930000000  0.4243250000000 1.0
C      1  0.5950010000000  0.4674200000000  0.5254530000000 1.0
C      1  0.5245850000000  0.4676570000000  0.5995560000000 1.0
C      1  0.4226080000000  0.4460980000000  0.5230530000000 1.0
C      1  0.4802040000000  0.4916730000000  0.6019600000000 1.0
C      1  0.5672360000000  0.5668250000000  0.4759300000000 1.0
C      1  0.6030180000000  0.5105000000000  0.5154140000000 1.0
C      1  0.5252580000000  0.5205630000000  0.5961710000000 1.0
C      1  0.4395870000000  0.5772790000000  0.4971440000000 1.0
C      1  0.4557470000000  0.4529680000000  0.4134030000000 1.0
C      1  0.4427070000000  0.4756120000000  0.4471850000000 1.0
C      1  0.4796220000000  0.4193240000000  0.5777670000000 1.0
C      1  0.4809140000000  0.5584320000000  0.5636020000000 1.0
C      1  0.5484780000000  0.5954100000000  0.4696810000000 1.0
C      1  0.5041500000000  0.4878100000000  0.3888980000000 1.0
C      1  0.4813080000000  0.4719130000000  0.4171850000000 1.0
C      1  0.4622700000000  0.4193990000000  0.5080540000000 1.0
C      1  0.5508030000000  0.5184270000000  0.5019250000000 1.0
C      1  0.5495770000000  0.4285540000000  0.4235360000000 1.0
C      1  0.4317810000000  0.4995950000000  0.5854850000000 1.0
C      1  0.5610660000000  0.5325220000000  0.4213430000000 1.0
C      1  0.4467800000000  0.4707450000000  0.4986910000000 1.0
C      1  0.5400670000000  0.5087200000000  0.4538490000000 1.0
C      1  0.5497870000000  0.4602040000000  0.5134830000000 1.0
C      1  0.4076840000000  0.5541520000000  0.5038730000000 1.0
C      1  0.4548600000000  0.5575910000000  0.4730530000000 1.0
C      1  0.4387200000000  0.5323640000000  0.5794180000000 1.0
C      1  0.4753730000000  0.4966790000000  0.5516520000000 1.0
C      1  0.4937350000000  0.6007100000000  0.5069690000000 1.0
C      1  0.4287370000000  0.5281060000000  0.4380130000000 1.0
C      1  0.5363050000000  0.4962150000000  0.4828060000000 1.0
C      1  0.4613210000000  0.4808330000000  0.4721720000000 1.0
C      1  0.5292460000000  0.4963100000000  0.4062370000000 1.0
C      1  0.5567460000000  0.5859980000000  0.5011630000000 1.0
C      1  0.5621370000000  0.4583060000000  0.4243260000000 1.0
C      1  0.4908580000000  0.4781750000000  0.4769650000000 1.0
C      1  0.5753020000000  0.4467610000000  0.5267910000000 1.0
C      1  0.5295030000000  0.4813590000000  0.5723400000000 1.0
C      1  0.5056560000000  0.5024870000000  0.4584130000000 1.0
C      1  0.5133410000000  0.5861970000000  0.5306920000000 1.0
C      1  0.5933090000000  0.4951510000000  0.4474920000000 1.0
C      1  0.5415070000000  0.4798160000000  0.5346220000000 1.0
C      1  0.5284620000000  0.4033530000000  0.4587330000000 1.0
C      1  0.5744940000000  0.5160830000000  0.5643700000000 1.0
C      1  0.5098870000000  0.4756640000000  0.5450320000000 1.0
C      1  0.4741090000000  0.5914550000000  0.5331490000000 1.0
C      1  0.4540330000000  0.4856180000000  0.4039380000000 1.0
C      1  0.4256840000000  0.5484390000000  0.5235820000000 1.0
C      1  0.4130350000000  0.5166280000000  0.5635460000000 1.0
C      1  0.5062760000000  0.4569060000000  0.4030880000000 1.0
C      1  0.4157410000000  0.5647190000000  0.4773270000000 1.0
C      1  0.4757220000000  0.5393580000000  0.5196970000000 1.0
C      1  0.5702440000000  0.5178300000000  0.4478540000000 1.0
C      1  0.5430820000000  0.4287180000000  0.5126660000000 1.0
C      1  0.5385100000000  0.5561360000000  0.5524450000000 1.0
C      1  0.5192580000000  0.5660080000000  0.5710690000000 1.0
C      1  0.5486980000000  0.5558530000000  0.4276250000000 1.0
C      1  0.5415150000000  0.4670900000000  0.4846540000000 1.0
C      1  0.4584840000000  0.4434920000000  0.4858860000000 1.0
C      1  0.4783630000000  0.4452690000000  0.4580750000000 1.0
C      1  0.5232950000000  0.5255760000000  0.4324360000000 1.0
C      1  0.4912620000000  0.5191370000000  0.5989140000000 1.0
C      1  0.5198910000000  0.4425340000000  0.4936380000000 1.0
C      1  0.5731360000000  0.4844600000000  0.4237020000000 1.0
C      1  0.5709360000000  0.5347950000000  0.4839490000000 1.0
C      1  0.4588200000000  0.5258380000000  0.5454910000000 1.0
C      1  0.3980870000000  0.5169930000000  0.4928120000000 1.0
C      1  0.4483990000000  0.4448540000000  0.5666220000000 1.0
C      1  0.5236790000000  0.5921570000000  0.4928320000000 1.0
C      1  0.5429650000000  0.5934760000000  0.5296880000000 1.0
C      1  0.4648990000000  0.5099720000000  0.5097100000000 1.0
C      1  0.4845990000000  0.4436580000000  0.5896460000000 1.0
C      1  0.4466370000000  0.4551690000000  0.5933460000000 1.0
C      1  0.4948810000000  0.5814650000000  0.4569940000000 1.0
C      1  0.4476110000000  0.5737280000000  0.5296410000000 1.0
C      1  0.5037940000000  0.5394940000000  0.4112690000000 1.0
C      1  0.4248430000000  0.4247530000000  0.4966460000000 1.0
C      1  0.4923150000000  0.4939130000000  0.5221910000000 1.0
C      1  0.5607280000000  0.4477300000000  0.5709850000000 1.0
C      1  0.5083550000000  0.4103040000000  0.5168260000000 1.0
C      1  0.5404910000000  0.5581860000000  0.4588090000000 1.0
C      1  0.4137830000000  0.4926300000000  0.4488130000000 1.0
C      1  0.4677470000000  0.4627500000000  0.5223930000000 1.0
C      1  0.4641100000000  0.5834030000000  0.4538410000000 1.0
C      1  0.5077980000000  0.4874550000000  0.4286540000000 1.0
C      1  0.5262190000000  0.5867380000000  0.4469560000000 1.0
C      1  0.4756960000000  0.4483470000000  0.5505660000000 1.0
C      1  0.5643150000000  0.5700900000000  0.5368480000000 1.0
C      1  0.5170080000000  0.4443000000000  0.5573120000000 1.0
C      1  0.4174670000000  0.5172010000000  0.4686260000000 1.0
C      1  0.4153390000000  0.5538330000000  0.4530210000000 1.0
C      1  0.4789570000000  0.4104250000000  0.4696540000000 1.0
C      1  0.4282970000000  0.5160750000000  0.5337840000000 1.0
C      1  0.4982660000000  0.5409610000000  0.5438600000000 1.0
C      1  0.4077090000000  0.5015920000000  0.5137500000000 1.0
C      1  0.4112630000000  0.4500060000000  0.4855890000000 1.0
C      1  0.4553500000000  0.5421340000000  0.4220790000000 1.0
C      1  0.5843850000000  0.5026300000000  0.4874400000000 1.0
C      1  0.4467500000000  0.4860570000000  0.5356260000000 1.0
END
