TITL C-2778428-5639-1051 0.00702875006674569 125000 -974.473352945716 0 0 169 (C1) n - 1
REM
REM in /home/nfs/bkarasulu/CARBON/AIRSS/Generating-Clusters/REBO/Only-C1/SD-CG/HFTN-CG
REM
REM
REM
REM
REM
REM ./C.cell (11c1c37f851c82e70ff6c80c92926a4b)
REM
REM compiler GCC version 9.2.1 20190827 (Red Hat 9.2.1-1)
REM options -cpp -mtune=generic -march=x86-64 -g -O0 -fpre-include=/usr/include/finclude/math-vector-fortran.h
REM seed -1027135582 -1049300017 1681778949 -244648857 1760299921 1836891454 1477879256 -695850333 -1617822232 1317419584 -740561294 -310111386 -1987173004 622619595 -1588935810 -1999338487 1558540536 -1370836740 -1775133198 1359067056 -2053454406 2094279904 -1142374439 1881565470 1698198560 -1383551668 -558608861 -1356960910 1585128495 -2062743716 1588347489 -771963629 -530243288
REM
CELL 1.54180   50.00000   50.00000   50.00000   90.00000   90.00000   90.00000
LATT -1
SFAC C  
C      1  0.4458140000000  0.4993010000000  0.5915060000000 1.0
C      1  0.4890960000000  0.4321430000000  0.4116700000000 1.0
C      1  0.5583780000000  0.4347480000000  0.5294380000000 1.0
C      1  0.4421760000000  0.5748550000000  0.4754110000000 1.0
C      1  0.5836340000000  0.4760840000000  0.5629230000000 1.0
C      1  0.4948570000000  0.4796910000000  0.5962360000000 1.0
C      1  0.4339970000000  0.5256820000000  0.5750970000000 1.0
C      1  0.4230590000000  0.4903470000000  0.4275950000000 1.0
C      1  0.5753860000000  0.4505890000000  0.4520080000000 1.0
C      1  0.3940430000000  0.4671290000000  0.5040550000000 1.0
C      1  0.5756200000000  0.5228800000000  0.4426690000000 1.0
C      1  0.5413780000000  0.5329620000000  0.5279780000000 1.0
C      1  0.4851220000000  0.5628370000000  0.5163680000000 1.0
C      1  0.4608110000000  0.3928520000000  0.4861280000000 1.0
C      1  0.5315000000000  0.4316520000000  0.5793790000000 1.0
C      1  0.5697940000000  0.5244900000000  0.5393250000000 1.0
C      1  0.5281200000000  0.4115610000000  0.4427150000000 1.0
C      1  0.4850380000000  0.4774520000000  0.5259530000000 1.0
C      1  0.5360960000000  0.5121180000000  0.5032790000000 1.0
C      1  0.4325360000000  0.5197590000000  0.5150570000000 1.0
C      1  0.4464320000000  0.5003950000000  0.4118150000000 1.0
C      1  0.4661180000000  0.5021040000000  0.5270490000000 1.0
C      1  0.4893680000000  0.5943170000000  0.4401210000000 1.0
C      1  0.4603140000000  0.5227460000000  0.5046990000000 1.0
C      1  0.4453730000000  0.5697190000000  0.5095000000000 1.0
C      1  0.5939280000000  0.4516390000000  0.5334850000000 1.0
C      1  0.6070480000000  0.4918380000000  0.4857420000000 1.0
C      1  0.5130550000000  0.5533820000000  0.4443170000000 1.0
C      1  0.5452900000000  0.4434230000000  0.4777710000000 1.0
C      1  0.4969320000000  0.5117550000000  0.5612460000000 1.0
C      1  0.5966780000000  0.5135360000000  0.5327420000000 1.0
C      1  0.4216430000000  0.5398330000000  0.4427060000000 1.0
C      1  0.5047310000000  0.5140090000000  0.6138560000000 1.0
C      1  0.5404330000000  0.5374530000000  0.4200330000000 1.0
C      1  0.5236520000000  0.5523410000000  0.5833010000000 1.0
C      1  0.4990030000000  0.6058180000000  0.4902970000000 1.0
C      1  0.4804650000000  0.5806880000000  0.4654470000000 1.0
C      1  0.4889160000000  0.6023390000000  0.5203840000000 1.0
C      1  0.4861180000000  0.4433130000000  0.5460380000000 1.0
C      1  0.5044680000000  0.3844210000000  0.5026200000000 1.0
C      1  0.4702060000000  0.5574680000000  0.4198940000000 1.0
C      1  0.4537780000000  0.4680720000000  0.5804690000000 1.0
C      1  0.5354050000000  0.4994640000000  0.5582360000000 1.0
C      1  0.4724270000000  0.5897230000000  0.5701440000000 1.0
C      1  0.4799690000000  0.5058090000000  0.4886370000000 1.0
C      1  0.4773360000000  0.4582980000000  0.4703780000000 1.0
C      1  0.5732000000000  0.5025430000000  0.4190180000000 1.0
C      1  0.4369290000000  0.4069040000000  0.4701440000000 1.0
C      1  0.4140220000000  0.5309190000000  0.5480340000000 1.0
C      1  0.4389150000000  0.4634710000000  0.5011660000000 1.0
C      1  0.4773890000000  0.5478490000000  0.4663600000000 1.0
C      1  0.4445900000000  0.4489310000000  0.4277970000000 1.0
C      1  0.5343820000000  0.4624190000000  0.5450450000000 1.0
C      1  0.5893280000000  0.5491270000000  0.5027580000000 1.0
C      1  0.5168780000000  0.4291450000000  0.4825470000000 1.0
C      1  0.5129330000000  0.4361160000000  0.4322090000000 1.0
C      1  0.4455640000000  0.4776830000000  0.5300720000000 1.0
C      1  0.5077070000000  0.4834040000000  0.5472870000000 1.0
C      1  0.4633100000000  0.5465430000000  0.5578750000000 1.0
C      1  0.5500020000000  0.5711080000000  0.4387690000000 1.0
C      1  0.5042310000000  0.5041560000000  0.5065640000000 1.0
C      1  0.5781710000000  0.5189840000000  0.4910600000000 1.0
C      1  0.5476170000000  0.4898530000000  0.4675060000000 1.0
C      1  0.5337560000000  0.4518940000000  0.4020900000000 1.0
C      1  0.4621840000000  0.4263640000000  0.4182380000000 1.0
C      1  0.5233150000000  0.4815200000000  0.5999120000000 1.0
C      1  0.4694440000000  0.4160860000000  0.5700550000000 1.0
C      1  0.4677040000000  0.5269210000000  0.4454890000000 1.0
C      1  0.5223850000000  0.4972960000000  0.3996290000000 1.0
C      1  0.4926300000000  0.5766770000000  0.4192750000000 1.0
C      1  0.3995370000000  0.5188690000000  0.5193370000000 1.0
C      1  0.5002630000000  0.5719840000000  0.4907640000000 1.0
C      1  0.4066100000000  0.5111270000000  0.4355120000000 1.0
C      1  0.4784430000000  0.5300620000000  0.4062890000000 1.0
C      1  0.5156390000000  0.5511320000000  0.4767930000000 1.0
C      1  0.5029680000000  0.5803860000000  0.5646310000000 1.0
C      1  0.5936540000000  0.4610010000000  0.4788740000000 1.0
C      1  0.5619770000000  0.4929410000000  0.5426830000000 1.0
C      1  0.4228420000000  0.4939890000000  0.4990480000000 1.0
C      1  0.5333770000000  0.5672590000000  0.5559750000000 1.0
C      1  0.4970110000000  0.4821530000000  0.3941180000000 1.0
C      1  0.4732930000000  0.5000840000000  0.3981300000000 1.0
C      1  0.5465030000000  0.4153990000000  0.4596050000000 1.0
C      1  0.4196560000000  0.4507110000000  0.5596390000000 1.0
C      1  0.4638060000000  0.5349030000000  0.5893790000000 1.0
C      1  0.4991380000000  0.4522470000000  0.4958610000000 1.0
C      1  0.5007140000000  0.5222940000000  0.4711050000000 1.0
C      1  0.4243220000000  0.5208870000000  0.4699690000000 1.0
C      1  0.5652480000000  0.5555670000000  0.5519270000000 1.0
C      1  0.5535720000000  0.4627570000000  0.5674080000000 1.0
C      1  0.5281280000000  0.4072820000000  0.5029470000000 1.0
C      1  0.5657370000000  0.4669570000000  0.5209790000000 1.0
C      1  0.4580550000000  0.5957800000000  0.5223800000000 1.0
C      1  0.4358050000000  0.4999620000000  0.5529150000000 1.0
C      1  0.4764310000000  0.4203290000000  0.5227990000000 1.0
C      1  0.4693240000000  0.4513620000000  0.5108400000000 1.0
C      1  0.5104230000000  0.5944990000000  0.5378080000000 1.0
C      1  0.5373820000000  0.5311050000000  0.4504710000000 1.0
C      1  0.6090880000000  0.5217210000000  0.4964590000000 1.0
C      1  0.5470490000000  0.5142560000000  0.4049010000000 1.0
C      1  0.5397630000000  0.5639430000000  0.5227050000000 1.0
C      1  0.5282900000000  0.4783760000000  0.5134320000000 1.0
C      1  0.4675610000000  0.4658990000000  0.4180310000000 1.0
C      1  0.5485790000000  0.4440530000000  0.4317790000000 1.0
C      1  0.5437640000000  0.4758770000000  0.4400680000000 1.0
C      1  0.5422520000000  0.5342020000000  0.4824140000000 1.0
C      1  0.4896780000000  0.5571320000000  0.5858260000000 1.0
C      1  0.4768410000000  0.4990890000000  0.4496770000000 1.0
C      1  0.4167890000000  0.4209620000000  0.4831330000000 1.0
C      1  0.4125680000000  0.5631120000000  0.4881280000000 1.0
C      1  0.4760950000000  0.5624860000000  0.5411050000000 1.0
C      1  0.4660240000000  0.5495590000000  0.4950370000000 1.0
C      1  0.4473140000000  0.5620980000000  0.4442480000000 1.0
C      1  0.4652040000000  0.5970410000000  0.4887990000000 1.0
C      1  0.5420370000000  0.5858150000000  0.4606790000000 1.0
C      1  0.4498020000000  0.4704910000000  0.4713090000000 1.0
C      1  0.5575830000000  0.4180700000000  0.5058280000000 1.0
C      1  0.5109660000000  0.4494570000000  0.5265940000000 1.0
C      1  0.4685900000000  0.4107650000000  0.4607650000000 1.0
C      1  0.5163180000000  0.4986650000000  0.4571460000000 1.0
C      1  0.6008070000000  0.4856660000000  0.5365290000000 1.0
C      1  0.4239940000000  0.5513410000000  0.5245760000000 1.0
C      1  0.5598610000000  0.5981800000000  0.5192010000000 1.0
C      1  0.3951330000000  0.4859020000000  0.5264920000000 1.0
C      1  0.5738940000000  0.5696410000000  0.5225960000000 1.0
C      1  0.4666390000000  0.5151620000000  0.5548640000000 1.0
C      1  0.6062510000000  0.4686310000000  0.5084680000000 1.0
C      1  0.5695220000000  0.5398290000000  0.5800460000000 1.0
C      1  0.4863590000000  0.4790960000000  0.4339020000000 1.0
C      1  0.5432530000000  0.5759930000000  0.4910850000000 1.0
C      1  0.5014220000000  0.4263680000000  0.5786700000000 1.0
C      1  0.5148140000000  0.5074700000000  0.4274510000000 1.0
C      1  0.5672960000000  0.5556050000000  0.4797060000000 1.0
C      1  0.5366710000000  0.5044610000000  0.5866060000000 1.0
C      1  0.5124470000000  0.5206320000000  0.5340210000000 1.0
C      1  0.4572580000000  0.4588300000000  0.5493470000000 1.0
C      1  0.5455370000000  0.5314450000000  0.5916300000000 1.0
C      1  0.5271570000000  0.5993550000000  0.5093450000000 1.0
C      1  0.4048570000000  0.5770290000000  0.5131490000000 1.0
C      1  0.5802510000000  0.4420960000000  0.5617740000000 1.0
C      1  0.4964010000000  0.4056620000000  0.5541450000000 1.0
C      1  0.5815230000000  0.4708450000000  0.4284240000000 1.0
C      1  0.4111150000000  0.4773400000000  0.5498110000000 1.0
C      1  0.5136740000000  0.4065300000000  0.5337810000000 1.0
C      1  0.5036410000000  0.5268640000000  0.5858820000000 1.0
C      1  0.5131580000000  0.4666280000000  0.4402370000000 1.0
C      1  0.5513250000000  0.4241260000000  0.5587100000000 1.0
C      1  0.4467140000000  0.4319930000000  0.5648630000000 1.0
C      1  0.5554160000000  0.4753820000000  0.4079880000000 1.0
C      1  0.4063740000000  0.5344890000000  0.4894350000000 1.0
C      1  0.4285940000000  0.4731780000000  0.5998990000000 1.0
C      1  0.4887730000000  0.4304410000000  0.4642840000000 1.0
C      1  0.5492860000000  0.4705840000000  0.4911890000000 1.0
C      1  0.4274800000000  0.4663490000000  0.4477090000000 1.0
C      1  0.5012340000000  0.5319500000000  0.4246610000000 1.0
C      1  0.4842880000000  0.4551170000000  0.5782270000000 1.0
C      1  0.4456300000000  0.5255860000000  0.4284340000000 1.0
C      1  0.5712550000000  0.5515760000000  0.4469880000000 1.0
C      1  0.4103100000000  0.4744160000000  0.4754490000000 1.0
C      1  0.4505690000000  0.5023690000000  0.4717770000000 1.0
C      1  0.5378290000000  0.4577310000000  0.5934160000000 1.0
C      1  0.4549600000000  0.5961080000000  0.5532800000000 1.0
C      1  0.5695190000000  0.5093680000000  0.4670930000000 1.0
C      1  0.4744760000000  0.5053650000000  0.6024740000000 1.0
C      1  0.4783850000000  0.3959540000000  0.5081040000000 1.0
C      1  0.5053120000000  0.4540250000000  0.3973560000000 1.0
C      1  0.4141540000000  0.4430720000000  0.4996830000000 1.0
C      1  0.5251230000000  0.5672780000000  0.4156940000000 1.0
C      1  0.5759220000000  0.4319010000000  0.4806800000000 1.0
END
