TITL C-2778431-5191-1492 -0.00278354881581013 125000 -688.433094629494 0 0 118 (C1) n - 1
REM
REM in /home/nfs/bkarasulu/CARBON/AIRSS/Generating-Clusters/REBO/Only-C1/SD-CG/HFTN-CG
REM
REM
REM
REM
REM
REM ./C.cell (11c1c37f851c82e70ff6c80c92926a4b)
REM
REM compiler GCC version 9.2.1 20190827 (Red Hat 9.2.1-1)
REM options -cpp -mtune=generic -march=x86-64 -g -O0 -fpre-include=/usr/include/finclude/math-vector-fortran.h
REM seed 225710294 -472333102 -1263175988 -1122886327 -395765414 641349777 -1379186734 -1606941899 834031648 1137125760 516458013 1153439668 -1936662317 -829765838 319264042 -367979190 429441320 52029396 -1341145326 1055974449 -830720125 -1637094943 -268150327 1017869372 -1193793258 -298417178 -2070734324 -420125453 -1868990794 -567860413 -79196107 267558705 -348424556
REM
CELL 1.54180   50.00000   50.00000   50.00000   90.00000   90.00000   90.00000
LATT -1
SFAC C  
C      1  0.5675040000000  0.3989620000000  0.5480170000000 1.0
C      1  0.5666020000000  0.4533850000000  0.5517280000000 1.0
C      1  0.5413640000000  0.3971400000000  0.5069890000000 1.0
C      1  0.5593590000000  0.4371460000000  0.4861980000000 1.0
C      1  0.5051570000000  0.4701620000000  0.5146100000000 1.0
C      1  0.4419370000000  0.4174050000000  0.4910700000000 1.0
C      1  0.4708910000000  0.5895280000000  0.5169480000000 1.0
C      1  0.5227860000000  0.5990780000000  0.5756670000000 1.0
C      1  0.4891280000000  0.4491930000000  0.5467900000000 1.0
C      1  0.4644260000000  0.5249020000000  0.4334440000000 1.0
C      1  0.4515450000000  0.5436170000000  0.4970800000000 1.0
C      1  0.5165860000000  0.5437710000000  0.4678910000000 1.0
C      1  0.4347360000000  0.5744380000000  0.5468310000000 1.0
C      1  0.5179020000000  0.5380000000000  0.4355290000000 1.0
C      1  0.5320210000000  0.4898160000000  0.5753800000000 1.0
C      1  0.5396810000000  0.5863970000000  0.5296940000000 1.0
C      1  0.5111930000000  0.3692930000000  0.4220840000000 1.0
C      1  0.5206160000000  0.5066680000000  0.4284140000000 1.0
C      1  0.5154430000000  0.3963060000000  0.5728490000000 1.0
C      1  0.5450890000000  0.5288540000000  0.4632890000000 1.0
C      1  0.4468430000000  0.4195450000000  0.4621870000000 1.0
C      1  0.5215270000000  0.4884800000000  0.4963670000000 1.0
C      1  0.5729470000000  0.5116630000000  0.4225900000000 1.0
C      1  0.4702400000000  0.5564460000000  0.5116890000000 1.0
C      1  0.6365180000000  0.4682800000000  0.5331820000000 1.0
C      1  0.5058400000000  0.6197910000000  0.5353390000000 1.0
C      1  0.5353190000000  0.4653200000000  0.5578250000000 1.0
C      1  0.5739160000000  0.5075690000000  0.5866400000000 1.0
C      1  0.4278030000000  0.5407560000000  0.5837070000000 1.0
C      1  0.4975630000000  0.5448260000000  0.5158190000000 1.0
C      1  0.4885850000000  0.4599880000000  0.4416670000000 1.0
C      1  0.5613790000000  0.5238000000000  0.5394500000000 1.0
C      1  0.4182400000000  0.5133690000000  0.4723250000000 1.0
C      1  0.4160760000000  0.4872640000000  0.4595170000000 1.0
C      1  0.4609300000000  0.5836850000000  0.5471810000000 1.0
C      1  0.5469690000000  0.5618940000000  0.5086860000000 1.0
C      1  0.5276020000000  0.6066780000000  0.5489800000000 1.0
C      1  0.5505180000000  0.4585030000000  0.4625120000000 1.0
C      1  0.5278290000000  0.4202140000000  0.5659070000000 1.0
C      1  0.5206020000000  0.5484470000000  0.4030360000000 1.0
C      1  0.5287730000000  0.4087550000000  0.4583030000000 1.0
C      1  0.5232160000000  0.5010380000000  0.3979200000000 1.0
C      1  0.4389550000000  0.4765180000000  0.4462930000000 1.0
C      1  0.4015590000000  0.5427130000000  0.5431930000000 1.0
C      1  0.4601430000000  0.5829960000000  0.4789200000000 1.0
C      1  0.5507410000000  0.5152170000000  0.4358230000000 1.0
C      1  0.5145900000000  0.3925490000000  0.4352260000000 1.0
C      1  0.4743480000000  0.4299920000000  0.4449200000000 1.0
C      1  0.5213370000000  0.5911130000000  0.5008220000000 1.0
C      1  0.5225320000000  0.5258440000000  0.3854650000000 1.0
C      1  0.5665740000000  0.5434690000000  0.4915230000000 1.0
C      1  0.4112150000000  0.5140130000000  0.4992980000000 1.0
C      1  0.5454460000000  0.4106300000000  0.4799630000000 1.0
C      1  0.5078880000000  0.3466600000000  0.4092930000000 1.0
C      1  0.4757680000000  0.5109060000000  0.4624020000000 1.0
C      1  0.5013550000000  0.5839920000000  0.5830010000000 1.0
C      1  0.5475380000000  0.5549420000000  0.5409640000000 1.0
C      1  0.4410160000000  0.5818040000000  0.5020020000000 1.0
C      1  0.4513500000000  0.4520110000000  0.4571610000000 1.0
C      1  0.5037690000000  0.3737720000000  0.5793910000000 1.0
C      1  0.4231900000000  0.5303880000000  0.5219010000000 1.0
C      1  0.4465830000000  0.5148570000000  0.5369240000000 1.0
C      1  0.3953390000000  0.4873010000000  0.5072820000000 1.0
C      1  0.5373010000000  0.4740810000000  0.4124260000000 1.0
C      1  0.4794990000000  0.4782830000000  0.4675780000000 1.0
C      1  0.5862790000000  0.4776150000000  0.5507930000000 1.0
C      1  0.5146790000000  0.5194260000000  0.5008440000000 1.0
C      1  0.4575100000000  0.4950660000000  0.4384610000000 1.0
C      1  0.5607600000000  0.4428790000000  0.5199270000000 1.0
C      1  0.4175700000000  0.4291170000000  0.5018300000000 1.0
C      1  0.4873600000000  0.5862030000000  0.4598690000000 1.0
C      1  0.5342090000000  0.5843840000000  0.4701370000000 1.0
C      1  0.4964980000000  0.6052140000000  0.5134680000000 1.0
C      1  0.5786830000000  0.5047540000000  0.5584620000000 1.0
C      1  0.5520190000000  0.5619500000000  0.4690310000000 1.0
C      1  0.4697130000000  0.5321830000000  0.5549260000000 1.0
C      1  0.4267610000000  0.5641170000000  0.5208120000000 1.0
C      1  0.4539860000000  0.5542770000000  0.5754490000000 1.0
C      1  0.4036230000000  0.5472590000000  0.5701140000000 1.0
C      1  0.5388990000000  0.5008340000000  0.5301130000000 1.0
C      1  0.5581380000000  0.4632390000000  0.3970400000000 1.0
C      1  0.5168880000000  0.4531070000000  0.4253340000000 1.0
C      1  0.5140950000000  0.4444670000000  0.5604740000000 1.0
C      1  0.4798650000000  0.5584570000000  0.4731060000000 1.0
C      1  0.5463030000000  0.4679500000000  0.4929910000000 1.0
C      1  0.5435400000000  0.4720260000000  0.5254250000000 1.0
C      1  0.4821300000000  0.5686430000000  0.5650180000000 1.0
C      1  0.5242740000000  0.5388880000000  0.5560960000000 1.0
C      1  0.3743350000000  0.4888750000000  0.5248190000000 1.0
C      1  0.4002730000000  0.4715970000000  0.4775190000000 1.0
C      1  0.5051200000000  0.4884670000000  0.4476280000000 1.0
C      1  0.4841720000000  0.4286060000000  0.5229360000000 1.0
C      1  0.4829520000000  0.4777070000000  0.5344480000000 1.0
C      1  0.5340710000000  0.4259260000000  0.5149870000000 1.0
C      1  0.5480760000000  0.5221740000000  0.5075740000000 1.0
C      1  0.4442810000000  0.4725320000000  0.5070410000000 1.0
C      1  0.4479450000000  0.5470140000000  0.4301470000000 1.0
C      1  0.4649960000000  0.4311780000000  0.5027830000000 1.0
C      1  0.5586790000000  0.3848630000000  0.5258890000000 1.0
C      1  0.4573870000000  0.4884520000000  0.5264730000000 1.0
C      1  0.5429820000000  0.4767010000000  0.4442850000000 1.0
C      1  0.5174530000000  0.5587030000000  0.4955710000000 1.0
C      1  0.5504430000000  0.4959950000000  0.5959950000000 1.0
C      1  0.4970360000000  0.5456600000000  0.5465160000000 1.0
C      1  0.4345600000000  0.5495650000000  0.4768800000000 1.0
C      1  0.5141900000000  0.5870420000000  0.4490560000000 1.0
C      1  0.4635140000000  0.4591660000000  0.4873460000000 1.0
C      1  0.4899170000000  0.5296570000000  0.4796120000000 1.0
C      1  0.5109420000000  0.4414180000000  0.5143800000000 1.0
C      1  0.5558890000000  0.4221880000000  0.5593230000000 1.0
C      1  0.4319950000000  0.5559390000000  0.4505970000000 1.0
C      1  0.5174160000000  0.5694380000000  0.4270960000000 1.0
C      1  0.5307130000000  0.4989380000000  0.4661790000000 1.0
C      1  0.6121580000000  0.4728060000000  0.5417210000000 1.0
C      1  0.5060810000000  0.4244790000000  0.4383160000000 1.0
C      1  0.5280490000000  0.5108950000000  0.5573020000000 1.0
C      1  0.4433810000000  0.5169060000000  0.5704940000000 1.0
C      1  0.4159710000000  0.4606330000000  0.5042640000000 1.0
END
