TITL C-2778426-5645-243 0.000209736244668857 125000 -120.467313027106 0 0 23 (C1) n - 1
REM
REM in /home/nfs/bkarasulu/CARBON/AIRSS/Generating-Clusters/REBO/Only-C1/SD-CG/HFTN-CG
REM
REM
REM
REM
REM
REM ./C.cell (11c1c37f851c82e70ff6c80c92926a4b)
REM
REM compiler GCC version 9.2.1 20190827 (Red Hat 9.2.1-1)
REM options -cpp -mtune=generic -march=x86-64 -g -O0 -fpre-include=/usr/include/finclude/math-vector-fortran.h
REM seed 62596512 -1096226395 1937264581 -541225140 1197722120 1045705894 1628918225 -1370434796 1357852889 1393136113 1741599841 -1192627474 734504517 1326078327 95756943 592038130 2134389187 -1050995625 1367820886 -690778083 476997002 -112351359 1664996441 -5708379 -1021099288 1081371577 360835040 -687356017 1896459057 481142307 1895980849 607832058 -1864614516
REM
CELL 1.54180   50.00000   50.00000   50.00000   90.00000   90.00000   90.00000
LATT -1
SFAC C  
C      1  0.5025380000000  0.5214680000000  0.4785350000000 1.0
C      1  0.4546930000000  0.4665230000000  0.5663060000000 1.0
C      1  0.5150650000000  0.4995890000000  0.4870500000000 1.0
C      1  0.5752480000000  0.5518840000000  0.4229770000000 1.0
C      1  0.5653830000000  0.5699420000000  0.4032260000000 1.0
C      1  0.4140160000000  0.4828180000000  0.5880390000000 1.0
C      1  0.5378380000000  0.4598480000000  0.5025030000000 1.0
C      1  0.5600680000000  0.4860300000000  0.4611560000000 1.0
C      1  0.4137730000000  0.5267230000000  0.5534950000000 1.0
C      1  0.5403500000000  0.4823930000000  0.4808200000000 1.0
C      1  0.4336890000000  0.5082410000000  0.5511670000000 1.0
C      1  0.3953220000000  0.4799950000000  0.6061890000000 1.0
C      1  0.5580810000000  0.5078950000000  0.4438290000000 1.0
C      1  0.4552370000000  0.4449290000000  0.5829350000000 1.0
C      1  0.4743170000000  0.4701600000000  0.5467200000000 1.0
C      1  0.4533610000000  0.5107320000000  0.5324480000000 1.0
C      1  0.5343640000000  0.5359660000000  0.4075790000000 1.0
C      1  0.5123830000000  0.4772160000000  0.5087270000000 1.0
C      1  0.4339490000000  0.4858290000000  0.5686860000000 1.0
C      1  0.4930060000000  0.4736240000000  0.5280670000000 1.0
C      1  0.5561160000000  0.5295100000000  0.4267020000000 1.0
C      1  0.5403830000000  0.5602080000000  0.3938110000000 1.0
C      1  0.5808190000000  0.4684740000000  0.4590330000000 1.0
END
