TITL C-2778432-5617-562 0.00378432594295883 125000 -358.7248372943 0 0 62 (C1) n - 1
REM
REM in /home/nfs/bkarasulu/CARBON/AIRSS/Generating-Clusters/REBO/Only-C1/SD-CG/HFTN-CG
REM
REM
REM
REM
REM
REM ./C.cell (11c1c37f851c82e70ff6c80c92926a4b)
REM
REM compiler GCC version 9.2.1 20190827 (Red Hat 9.2.1-1)
REM options -cpp -mtune=generic -march=x86-64 -g -O0 -fpre-include=/usr/include/finclude/math-vector-fortran.h
REM seed -1441345528 2044233138 1477416408 -110400484 -208259625 -1638102882 -1110424631 -1612173236 1807923349 1260996903 247758645 778311503 335317306 458236433 -1348518051 1649087646 546822061 2030187755 1999938772 -53478887 -1834711116 85450625 1423032740 -1691584749 829763135 1970454926 -2080375697 -1966712746 -1729872970 -13178671 1821007540 -862757253 -1233217299
REM
CELL 1.54180   50.00000   50.00000   50.00000   90.00000   90.00000   90.00000
LATT -1
SFAC C  
C      1  0.4971980000000  0.4574230000000  0.5474760000000 1.0
C      1  0.5338250000000  0.4577560000000  0.5131000000000 1.0
C      1  0.4233180000000  0.5112480000000  0.4817160000000 1.0
C      1  0.4916130000000  0.5059100000000  0.4304020000000 1.0
C      1  0.4260110000000  0.4639310000000  0.4717860000000 1.0
C      1  0.5736990000000  0.5179690000000  0.4977170000000 1.0
C      1  0.4869060000000  0.4909680000000  0.4671520000000 1.0
C      1  0.5061090000000  0.5492070000000  0.5423300000000 1.0
C      1  0.4731420000000  0.5259570000000  0.4306360000000 1.0
C      1  0.5436700000000  0.4701650000000  0.5394190000000 1.0
C      1  0.4427370000000  0.4715030000000  0.4492960000000 1.0
C      1  0.4573310000000  0.5535860000000  0.4276090000000 1.0
C      1  0.5423500000000  0.5053400000000  0.4939160000000 1.0
C      1  0.4520010000000  0.5755320000000  0.4139390000000 1.0
C      1  0.4201840000000  0.4847130000000  0.4916380000000 1.0
C      1  0.5118330000000  0.5053730000000  0.4565970000000 1.0
C      1  0.5390160000000  0.5335920000000  0.4451600000000 1.0
C      1  0.5396650000000  0.4758410000000  0.4847540000000 1.0
C      1  0.4494280000000  0.5212790000000  0.4777290000000 1.0
C      1  0.5643400000000  0.5652510000000  0.5139850000000 1.0
C      1  0.5647530000000  0.4884960000000  0.5389420000000 1.0
C      1  0.4689200000000  0.5614120000000  0.5342270000000 1.0
C      1  0.4664810000000  0.4567310000000  0.5503320000000 1.0
C      1  0.5166700000000  0.5731410000000  0.4845180000000 1.0
C      1  0.5227570000000  0.4718290000000  0.5581870000000 1.0
C      1  0.4373070000000  0.4930830000000  0.5409540000000 1.0
C      1  0.5625980000000  0.5138830000000  0.5273100000000 1.0
C      1  0.4868380000000  0.4871530000000  0.5660550000000 1.0
C      1  0.4656300000000  0.4376960000000  0.4805640000000 1.0
C      1  0.4936570000000  0.4280060000000  0.5065970000000 1.0
C      1  0.5563000000000  0.4476300000000  0.4910830000000 1.0
C      1  0.5783190000000  0.5491110000000  0.5004720000000 1.0
C      1  0.5263530000000  0.5241230000000  0.4750200000000 1.0
C      1  0.4540770000000  0.4553210000000  0.5248060000000 1.0
C      1  0.5725850000000  0.5054820000000  0.4677900000000 1.0
C      1  0.5019830000000  0.4743710000000  0.4341650000000 1.0
C      1  0.5513240000000  0.5053210000000  0.4501600000000 1.0
C      1  0.4612840000000  0.4768540000000  0.5073090000000 1.0
C      1  0.4329570000000  0.4367690000000  0.4809650000000 1.0
C      1  0.4745640000000  0.4656990000000  0.4825520000000 1.0
C      1  0.5382050000000  0.5585160000000  0.5272710000000 1.0
C      1  0.5128650000000  0.5720040000000  0.5143130000000 1.0
C      1  0.5263720000000  0.5556260000000  0.4666570000000 1.0
C      1  0.5174210000000  0.5155150000000  0.5128930000000 1.0
C      1  0.5154470000000  0.4945840000000  0.5758670000000 1.0
C      1  0.4715040000000  0.5044510000000  0.4918450000000 1.0
C      1  0.5921130000000  0.4126830000000  0.4765430000000 1.0
C      1  0.5741010000000  0.4302590000000  0.4838560000000 1.0
C      1  0.5067060000000  0.4460130000000  0.5207170000000 1.0
C      1  0.5304110000000  0.4785840000000  0.4525730000000 1.0
C      1  0.4778520000000  0.5308070000000  0.5363840000000 1.0
C      1  0.4537640000000  0.5358910000000  0.4545650000000 1.0
C      1  0.5163180000000  0.5438470000000  0.5680510000000 1.0
C      1  0.4540770000000  0.4808130000000  0.5674310000000 1.0
C      1  0.4901880000000  0.5185530000000  0.5111220000000 1.0
C      1  0.4651940000000  0.5094060000000  0.5519990000000 1.0
C      1  0.5219150000000  0.5208750000000  0.5816400000000 1.0
C      1  0.5376800000000  0.5279330000000  0.5300840000000 1.0
C      1  0.4239840000000  0.4839110000000  0.5198890000000 1.0
C      1  0.4850690000000  0.5786150000000  0.5252810000000 1.0
C      1  0.4490080000000  0.4313630000000  0.5086930000000 1.0
C      1  0.4700730000000  0.4750970000000  0.4439640000000 1.0
END
