TITL C-2778425-5191-837 0.00442733526510266 125000 -531.063933096545 0 0 94 (C1) n - 1
REM
REM in /home/nfs/bkarasulu/CARBON/AIRSS/Generating-Clusters/REBO/Only-C1/SD-CG/HFTN-CG
REM
REM
REM
REM
REM
REM ./C.cell (11c1c37f851c82e70ff6c80c92926a4b)
REM
REM compiler GCC version 9.2.1 20190827 (Red Hat 9.2.1-1)
REM options -cpp -mtune=generic -march=x86-64 -g -O0 -fpre-include=/usr/include/finclude/math-vector-fortran.h
REM seed -265879920 -2095499302 -336860459 263900164 -1586463503 -320668807 1467249564 505312340 -1374856395 -1032866736 -1175012866 -892880060 -1416235093 -401353066 870034702 -1578475369 -1312883227 1316673637 -1005885141 -752388004 -393231967 -46223889 -716287943 -1038407491 114201629 1010939564 222066028 1314397979 1439258597 -704738875 -1025670455 1988304137 2062269806
REM
CELL 1.54180   50.00000   50.00000   50.00000   90.00000   90.00000   90.00000
LATT -1
SFAC C  
C      1  0.4721010000000  0.4684750000000  0.5022520000000 1.0
C      1  0.4399760000000  0.4537890000000  0.5406620000000 1.0
C      1  0.4456920000000  0.4462810000000  0.4578040000000 1.0
C      1  0.4243140000000  0.4552410000000  0.5132220000000 1.0
C      1  0.4947350000000  0.4900970000000  0.5781470000000 1.0
C      1  0.4708040000000  0.5346870000000  0.4884900000000 1.0
C      1  0.5310440000000  0.5174490000000  0.4290190000000 1.0
C      1  0.5393080000000  0.4379490000000  0.5460640000000 1.0
C      1  0.4848050000000  0.4895910000000  0.5334060000000 1.0
C      1  0.4340860000000  0.4364410000000  0.4882910000000 1.0
C      1  0.5300690000000  0.5417700000000  0.4764450000000 1.0
C      1  0.5127260000000  0.5869040000000  0.4679720000000 1.0
C      1  0.5512720000000  0.4491940000000  0.5205440000000 1.0
C      1  0.4514570000000  0.5194480000000  0.4628940000000 1.0
C      1  0.4603070000000  0.4386190000000  0.5098050000000 1.0
C      1  0.4792600000000  0.5428640000000  0.4261720000000 1.0
C      1  0.5277190000000  0.4931140000000  0.5761480000000 1.0
C      1  0.4497370000000  0.4942150000000  0.5072480000000 1.0
C      1  0.5750300000000  0.4843650000000  0.4844580000000 1.0
C      1  0.5661970000000  0.5043810000000  0.5366330000000 1.0
C      1  0.4990180000000  0.5195990000000  0.4769520000000 1.0
C      1  0.4776940000000  0.5723640000000  0.5240290000000 1.0
C      1  0.5059820000000  0.5427250000000  0.5323220000000 1.0
C      1  0.5360050000000  0.5997080000000  0.4863320000000 1.0
C      1  0.4418790000000  0.5248850000000  0.5143140000000 1.0
C      1  0.4866350000000  0.4156070000000  0.4899860000000 1.0
C      1  0.4709350000000  0.5830920000000  0.4973330000000 1.0
C      1  0.4572510000000  0.5560970000000  0.4479870000000 1.0
C      1  0.4510240000000  0.5311180000000  0.5634400000000 1.0
C      1  0.5108680000000  0.4652600000000  0.5513400000000 1.0
C      1  0.5786930000000  0.5113480000000  0.5048400000000 1.0
C      1  0.5182770000000  0.5636890000000  0.5190410000000 1.0
C      1  0.4801500000000  0.4800040000000  0.4228390000000 1.0
C      1  0.4938290000000  0.5776250000000  0.5474070000000 1.0
C      1  0.4679140000000  0.5638250000000  0.4762190000000 1.0
C      1  0.4338310000000  0.5446930000000  0.4683730000000 1.0
C      1  0.4376870000000  0.4943190000000  0.4566910000000 1.0
C      1  0.5794150000000  0.5313950000000  0.4771440000000 1.0
C      1  0.5069840000000  0.4639690000000  0.4661660000000 1.0
C      1  0.5618760000000  0.4609190000000  0.4962430000000 1.0
C      1  0.4583120000000  0.4187810000000  0.4620600000000 1.0
C      1  0.5153510000000  0.5674990000000  0.5621680000000 1.0
C      1  0.4540720000000  0.4094770000000  0.4934100000000 1.0
C      1  0.4313690000000  0.5288110000000  0.5441760000000 1.0
C      1  0.5106560000000  0.5837210000000  0.5007450000000 1.0
C      1  0.5152160000000  0.4848520000000  0.4895760000000 1.0
C      1  0.4502410000000  0.5146680000000  0.5851340000000 1.0
C      1  0.4885550000000  0.4313780000000  0.5549370000000 1.0
C      1  0.5667750000000  0.5568350000000  0.4715780000000 1.0
C      1  0.4875990000000  0.4178620000000  0.4575320000000 1.0
C      1  0.5251140000000  0.5182900000000  0.5410350000000 1.0
C      1  0.4649970000000  0.4313870000000  0.5395990000000 1.0
C      1  0.5379430000000  0.4379240000000  0.4587160000000 1.0
C      1  0.4243780000000  0.5420730000000  0.4939490000000 1.0
C      1  0.4793220000000  0.5229310000000  0.4514500000000 1.0
C      1  0.4856270000000  0.4852530000000  0.4617180000000 1.0
C      1  0.4667100000000  0.4728070000000  0.5499400000000 1.0
C      1  0.5080150000000  0.4705160000000  0.5196090000000 1.0
C      1  0.4608660000000  0.4860160000000  0.5811750000000 1.0
C      1  0.4981580000000  0.4459460000000  0.5002820000000 1.0
C      1  0.5734460000000  0.5390930000000  0.5232570000000 1.0
C      1  0.5523280000000  0.5564590000000  0.4466840000000 1.0
C      1  0.4970940000000  0.5097030000000  0.5522990000000 1.0
C      1  0.5339710000000  0.5477080000000  0.5665180000000 1.0
C      1  0.5502650000000  0.5610890000000  0.5204950000000 1.0
C      1  0.4996620000000  0.4405700000000  0.4479290000000 1.0
C      1  0.5216560000000  0.5631540000000  0.4510890000000 1.0
C      1  0.5558390000000  0.5309250000000  0.4344620000000 1.0
C      1  0.5400630000000  0.4657230000000  0.5657850000000 1.0
C      1  0.5462300000000  0.5684810000000  0.4909220000000 1.0
C      1  0.4242480000000  0.4810800000000  0.5007950000000 1.0
C      1  0.5354910000000  0.5113120000000  0.4907490000000 1.0
C      1  0.4778430000000  0.5351960000000  0.5499080000000 1.0
C      1  0.5413460000000  0.5285170000000  0.5168990000000 1.0
C      1  0.4870510000000  0.4574160000000  0.5725880000000 1.0
C      1  0.4686820000000  0.5416850000000  0.5195610000000 1.0
C      1  0.5167070000000  0.4106070000000  0.5028290000000 1.0
C      1  0.4871710000000  0.4989560000000  0.5011030000000 1.0
C      1  0.5473840000000  0.4881900000000  0.5127600000000 1.0
C      1  0.5338890000000  0.4580540000000  0.4374660000000 1.0
C      1  0.5584030000000  0.4727260000000  0.5417290000000 1.0
C      1  0.5666840000000  0.4904890000000  0.4580270000000 1.0
C      1  0.5745550000000  0.5167260000000  0.4519100000000 1.0
C      1  0.4577110000000  0.4728380000000  0.4475690000000 1.0
C      1  0.5050520000000  0.5593290000000  0.4254080000000 1.0
C      1  0.5476930000000  0.5167050000000  0.5630970000000 1.0
C      1  0.5408330000000  0.4837220000000  0.4478570000000 1.0
C      1  0.5139250000000  0.5021310000000  0.4526380000000 1.0
C      1  0.4829520000000  0.5090210000000  0.4219310000000 1.0
C      1  0.4173510000000  0.4863660000000  0.4735370000000 1.0
C      1  0.5150370000000  0.4233100000000  0.5486740000000 1.0
C      1  0.4356460000000  0.4647500000000  0.5726180000000 1.0
C      1  0.5029560000000  0.4609420000000  0.4241030000000 1.0
C      1  0.5249770000000  0.4328860000000  0.4833370000000 1.0
END
