TITL C-2778427-5640-837 0.00211176338895577 125000 -1045.18749574228 0 0 180 (C1) n - 1
REM
REM in /home/nfs/bkarasulu/CARBON/AIRSS/Generating-Clusters/REBO/Only-C1/SD-CG/HFTN-CG
REM
REM
REM
REM
REM
REM ./C.cell (11c1c37f851c82e70ff6c80c92926a4b)
REM
REM compiler GCC version 9.2.1 20190827 (Red Hat 9.2.1-1)
REM options -cpp -mtune=generic -march=x86-64 -g -O0 -fpre-include=/usr/include/finclude/math-vector-fortran.h
REM seed 685323440 986295231 -976945386 602145886 -1725262892 -1924174524 -1430044117 -1951100535 -1782664257 -1909182640 1339137199 261172347 -1688291610 -1975998920 -946836671 -1482002085 -1652727871 -1813640066 1680841175 737830539 -151200015 -21193450 -269682040 838287372 -1665303150 -1285056258 -172273830 -2123267921 -1152734111 1155519781 -1408330804 -2080398161 1870382750
REM
CELL 1.54180   50.00000   50.00000   50.00000   90.00000   90.00000   90.00000
LATT -1
SFAC C  
C      1  0.5882850000000  0.4629280000000  0.5405510000000 1.0
C      1  0.5619680000000  0.5543590000000  0.5043290000000 1.0
C      1  0.5469530000000  0.4124270000000  0.5448540000000 1.0
C      1  0.5018880000000  0.4670960000000  0.5220920000000 1.0
C      1  0.4503950000000  0.5763830000000  0.4332880000000 1.0
C      1  0.5170110000000  0.4559240000000  0.4772670000000 1.0
C      1  0.4578110000000  0.4962050000000  0.3940750000000 1.0
C      1  0.4717740000000  0.4969390000000  0.6003800000000 1.0
C      1  0.5036250000000  0.3958490000000  0.4967440000000 1.0
C      1  0.4748440000000  0.4408350000000  0.5752590000000 1.0
C      1  0.4699660000000  0.4073950000000  0.5386960000000 1.0
C      1  0.5770680000000  0.5599070000000  0.5294940000000 1.0
C      1  0.6068050000000  0.4616440000000  0.4867340000000 1.0
C      1  0.4321890000000  0.5853770000000  0.5426140000000 1.0
C      1  0.4316950000000  0.5156370000000  0.5630370000000 1.0
C      1  0.5770830000000  0.4243960000000  0.5044850000000 1.0
C      1  0.4542800000000  0.4783430000000  0.5533490000000 1.0
C      1  0.5308140000000  0.5767370000000  0.4353680000000 1.0
C      1  0.5170320000000  0.5546820000000  0.5164350000000 1.0
C      1  0.4447940000000  0.4590350000000  0.4252200000000 1.0
C      1  0.4681510000000  0.4240650000000  0.4782510000000 1.0
C      1  0.5123390000000  0.5299030000000  0.4687210000000 1.0
C      1  0.4162480000000  0.4129100000000  0.4623940000000 1.0
C      1  0.4749110000000  0.6023260000000  0.5664630000000 1.0
C      1  0.4278220000000  0.5478640000000  0.5019460000000 1.0
C      1  0.4390910000000  0.5737340000000  0.4846450000000 1.0
C      1  0.6019850000000  0.5047540000000  0.4864960000000 1.0
C      1  0.5512320000000  0.4320050000000  0.4021840000000 1.0
C      1  0.5167370000000  0.5026610000000  0.5317530000000 1.0
C      1  0.4913770000000  0.5599320000000  0.5335220000000 1.0
C      1  0.4267250000000  0.5555860000000  0.4424540000000 1.0
C      1  0.5077540000000  0.4831600000000  0.4701120000000 1.0
C      1  0.4469200000000  0.4198100000000  0.5463490000000 1.0
C      1  0.4243090000000  0.4873210000000  0.4964740000000 1.0
C      1  0.5964080000000  0.4829690000000  0.4414390000000 1.0
C      1  0.5393400000000  0.4734670000000  0.4278910000000 1.0
C      1  0.3903390000000  0.4661040000000  0.4530880000000 1.0
C      1  0.5725060000000  0.4328040000000  0.5358790000000 1.0
C      1  0.5947210000000  0.5079480000000  0.4556100000000 1.0
C      1  0.4228890000000  0.4573790000000  0.4881210000000 1.0
C      1  0.4727740000000  0.4787340000000  0.5142850000000 1.0
C      1  0.4482770000000  0.5799410000000  0.5139900000000 1.0
C      1  0.4532060000000  0.5011630000000  0.4975540000000 1.0
C      1  0.5024640000000  0.4295550000000  0.5030720000000 1.0
C      1  0.4410390000000  0.4727160000000  0.5224970000000 1.0
C      1  0.5350570000000  0.5208190000000  0.5764500000000 1.0
C      1  0.5274610000000  0.5032720000000  0.4578500000000 1.0
C      1  0.4841170000000  0.4265440000000  0.4317920000000 1.0
C      1  0.4308200000000  0.4440500000000  0.5377880000000 1.0
C      1  0.4362510000000  0.4856460000000  0.4090500000000 1.0
C      1  0.5343350000000  0.6032020000000  0.5251480000000 1.0
C      1  0.5140670000000  0.4247510000000  0.4711690000000 1.0
C      1  0.5696290000000  0.4575940000000  0.5682830000000 1.0
C      1  0.4819700000000  0.5797840000000  0.4925890000000 1.0
C      1  0.4920980000000  0.4941110000000  0.4942700000000 1.0
C      1  0.5566640000000  0.5754610000000  0.4876360000000 1.0
C      1  0.4951560000000  0.4157860000000  0.5499800000000 1.0
C      1  0.4819660000000  0.4804480000000  0.3969180000000 1.0
C      1  0.5501900000000  0.5252570000000  0.4189440000000 1.0
C      1  0.4884560000000  0.5546990000000  0.4492700000000 1.0
C      1  0.4596460000000  0.4190660000000  0.4492900000000 1.0
C      1  0.5027800000000  0.5262220000000  0.4366310000000 1.0
C      1  0.5173500000000  0.3983840000000  0.5466190000000 1.0
C      1  0.5396790000000  0.6030740000000  0.4914930000000 1.0
C      1  0.4832290000000  0.5639380000000  0.5617680000000 1.0
C      1  0.5722140000000  0.5071820000000  0.5719910000000 1.0
C      1  0.5239570000000  0.4419470000000  0.5907620000000 1.0
C      1  0.4174440000000  0.4638420000000  0.5615990000000 1.0
C      1  0.4733020000000  0.4389250000000  0.5147070000000 1.0
C      1  0.4970680000000  0.5330980000000  0.3977120000000 1.0
C      1  0.5409860000000  0.5706320000000  0.5816260000000 1.0
C      1  0.5393510000000  0.4023670000000  0.4662920000000 1.0
C      1  0.5441010000000  0.5889810000000  0.4606540000000 1.0
C      1  0.5468640000000  0.4659520000000  0.5922360000000 1.0
C      1  0.5307400000000  0.4004590000000  0.5168990000000 1.0
C      1  0.4597910000000  0.5581210000000  0.4674500000000 1.0
C      1  0.5008400000000  0.4967150000000  0.6078890000000 1.0
C      1  0.5512280000000  0.4615510000000  0.4563020000000 1.0
C      1  0.4166920000000  0.4181130000000  0.4899630000000 1.0
C      1  0.5569670000000  0.4718570000000  0.4980180000000 1.0
C      1  0.5295270000000  0.5235960000000  0.3956510000000 1.0
C      1  0.3901650000000  0.5145930000000  0.5081170000000 1.0
C      1  0.5567410000000  0.5282410000000  0.5417330000000 1.0
C      1  0.5329340000000  0.4149300000000  0.4237180000000 1.0
C      1  0.5565450000000  0.4938850000000  0.4584430000000 1.0
C      1  0.4500020000000  0.5287390000000  0.5383810000000 1.0
C      1  0.5494140000000  0.4125550000000  0.4938880000000 1.0
C      1  0.5077670000000  0.6128680000000  0.5129230000000 1.0
C      1  0.5425680000000  0.5469950000000  0.4392520000000 1.0
C      1  0.5212120000000  0.5521390000000  0.4128990000000 1.0
C      1  0.4044940000000  0.5341900000000  0.4861550000000 1.0
C      1  0.4337640000000  0.5494670000000  0.5597840000000 1.0
C      1  0.5647590000000  0.5041540000000  0.4297420000000 1.0
C      1  0.5822200000000  0.4370400000000  0.4533430000000 1.0
C      1  0.5335310000000  0.5483260000000  0.5961350000000 1.0
C      1  0.4928940000000  0.4884220000000  0.5473860000000 1.0
C      1  0.6153100000000  0.4920690000000  0.5111920000000 1.0
C      1  0.4647420000000  0.5266160000000  0.3973590000000 1.0
C      1  0.5261680000000  0.5132870000000  0.5023240000000 1.0
C      1  0.4946560000000  0.5239990000000  0.5047750000000 1.0
C      1  0.4878490000000  0.5972800000000  0.4696530000000 1.0
C      1  0.5594490000000  0.4865410000000  0.5550080000000 1.0
C      1  0.4484200000000  0.5459740000000  0.4190480000000 1.0
C      1  0.4555260000000  0.5281570000000  0.4565910000000 1.0
C      1  0.4949840000000  0.5522740000000  0.5859550000000 1.0
C      1  0.6003540000000  0.4599650000000  0.4586920000000 1.0
C      1  0.4084960000000  0.4416420000000  0.5132570000000 1.0
C      1  0.4762770000000  0.4553550000000  0.4152480000000 1.0
C      1  0.5004100000000  0.4828060000000  0.5763240000000 1.0
C      1  0.5779030000000  0.4804740000000  0.4161310000000 1.0
C      1  0.5003590000000  0.5790100000000  0.4365030000000 1.0
C      1  0.5273420000000  0.4807350000000  0.5073870000000 1.0
C      1  0.4976600000000  0.4527820000000  0.5865210000000 1.0
C      1  0.4944870000000  0.4562880000000  0.4436490000000 1.0
C      1  0.5236300000000  0.5211880000000  0.6146370000000 1.0
C      1  0.5697740000000  0.4978930000000  0.4864240000000 1.0
C      1  0.5788770000000  0.5335970000000  0.4713770000000 1.0
C      1  0.3944010000000  0.4961130000000  0.5284430000000 1.0
C      1  0.4116280000000  0.4951830000000  0.5545650000000 1.0
C      1  0.5206720000000  0.4992790000000  0.4261060000000 1.0
C      1  0.4448460000000  0.4339880000000  0.4988840000000 1.0
C      1  0.4831950000000  0.5479850000000  0.4886590000000 1.0
C      1  0.4952920000000  0.6148790000000  0.5903790000000 1.0
C      1  0.5563190000000  0.4617040000000  0.4052110000000 1.0
C      1  0.5053190000000  0.4996820000000  0.3980850000000 1.0
C      1  0.4972710000000  0.5423660000000  0.6112490000000 1.0
C      1  0.4108990000000  0.5056640000000  0.4751360000000 1.0
C      1  0.5109910000000  0.5354310000000  0.5639160000000 1.0
C      1  0.4827540000000  0.4523910000000  0.4750770000000 1.0
C      1  0.4127020000000  0.4524070000000  0.4601640000000 1.0
C      1  0.4822920000000  0.5240090000000  0.5610460000000 1.0
C      1  0.4093200000000  0.5572040000000  0.4637810000000 1.0
C      1  0.5949490000000  0.5333370000000  0.4997610000000 1.0
C      1  0.4314870000000  0.5090750000000  0.4530900000000 1.0
C      1  0.4325480000000  0.4344350000000  0.4414970000000 1.0
C      1  0.5307160000000  0.4931480000000  0.5819270000000 1.0
C      1  0.4200810000000  0.5566330000000  0.5299440000000 1.0
C      1  0.4835410000000  0.4874850000000  0.4469050000000 1.0
C      1  0.4605290000000  0.4751760000000  0.4767700000000 1.0
C      1  0.4535250000000  0.5755400000000  0.5672180000000 1.0
C      1  0.4822100000000  0.5136720000000  0.4682160000000 1.0
C      1  0.5961300000000  0.4946960000000  0.5337620000000 1.0
C      1  0.4503880000000  0.4830870000000  0.4468870000000 1.0
C      1  0.5354150000000  0.5885800000000  0.5523860000000 1.0
C      1  0.5093730000000  0.6144880000000  0.4810630000000 1.0
C      1  0.5272470000000  0.5330470000000  0.5370760000000 1.0
C      1  0.5086530000000  0.5966130000000  0.5677290000000 1.0
C      1  0.4556420000000  0.5301370000000  0.4989340000000 1.0
C      1  0.5610570000000  0.5662770000000  0.5545180000000 1.0
C      1  0.5675330000000  0.4460620000000  0.4819230000000 1.0
C      1  0.4723990000000  0.5908260000000  0.4433650000000 1.0
C      1  0.4623920000000  0.6005170000000  0.5375220000000 1.0
C      1  0.5333640000000  0.4400420000000  0.5025530000000 1.0
C      1  0.5091610000000  0.4103770000000  0.4414820000000 1.0
C      1  0.5336340000000  0.4884290000000  0.6145190000000 1.0
C      1  0.5634370000000  0.4996140000000  0.5258130000000 1.0
C      1  0.4090120000000  0.5846450000000  0.4751930000000 1.0
C      1  0.5556450000000  0.5231180000000  0.5021570000000 1.0
C      1  0.5453940000000  0.4354430000000  0.5664730000000 1.0
C      1  0.4211800000000  0.5031290000000  0.4236840000000 1.0
C      1  0.4849210000000  0.5954390000000  0.5164010000000 1.0
C      1  0.4607300000000  0.5038780000000  0.5719100000000 1.0
C      1  0.5049230000000  0.4468290000000  0.5478060000000 1.0
C      1  0.3861960000000  0.4914080000000  0.4627080000000 1.0
C      1  0.5254820000000  0.5505730000000  0.4887070000000 1.0
C      1  0.4465010000000  0.4529490000000  0.5734600000000 1.0
C      1  0.5897980000000  0.5284400000000  0.5317050000000 1.0
C      1  0.4726640000000  0.5244920000000  0.4293880000000 1.0
C      1  0.5959430000000  0.4511630000000  0.5095820000000 1.0
C      1  0.3978690000000  0.4654400000000  0.5337130000000 1.0
C      1  0.5505000000000  0.5418080000000  0.4673970000000 1.0
C      1  0.5640950000000  0.5377180000000  0.5727160000000 1.0
C      1  0.4717690000000  0.4509320000000  0.5428180000000 1.0
C      1  0.5094600000000  0.3861550000000  0.4657840000000 1.0
C      1  0.5567790000000  0.4352910000000  0.4352030000000 1.0
C      1  0.4630780000000  0.5538780000000  0.5222570000000 1.0
C      1  0.5341940000000  0.4638070000000  0.5511910000000 1.0
C      1  0.4721300000000  0.4046190000000  0.5060850000000 1.0
C      1  0.5501770000000  0.4537200000000  0.5256040000000 1.0
C      1  0.4787280000000  0.5147140000000  0.5303920000000 1.0
END
