TITL C-2778423-5760-953 -0.000687671906704655 125000 -263.747440427732 0 0 46 (C1) n - 1
REM
REM in /home/nfs/bkarasulu/CARBON/AIRSS/Generating-Clusters/REBO/Only-C1/SD-CG/HFTN-CG
REM
REM
REM
REM
REM
REM ./C.cell (11c1c37f851c82e70ff6c80c92926a4b)
REM
REM compiler GCC version 9.2.1 20190827 (Red Hat 9.2.1-1)
REM options -cpp -mtune=generic -march=x86-64 -g -O0 -fpre-include=/usr/include/finclude/math-vector-fortran.h
REM seed 1386537594 1913084207 1101960651 -1119239425 1808174739 -769126542 -2116357800 -1302254699 592591584 633191712 802078522 790656884 -2027858602 326896021 593792464 1190601498 4577753 -963223994 -102868553 516134141 1955177582 1543972189 1860423706 -1380822559 -1189654606 1857859742 1851345310 -1959128724 -1715670710 680707995 610682634 938599329 728641875
REM
CELL 1.54180   50.00000   50.00000   50.00000   90.00000   90.00000   90.00000
LATT -1
SFAC C  
C      1  0.5464020000000  0.5069770000000  0.5151670000000 1.0
C      1  0.5026560000000  0.5574420000000  0.4705270000000 1.0
C      1  0.5244290000000  0.5149710000000  0.4656830000000 1.0
C      1  0.4205640000000  0.4857740000000  0.5245390000000 1.0
C      1  0.5060000000000  0.5666260000000  0.4970700000000 1.0
C      1  0.5370000000000  0.5178140000000  0.4375590000000 1.0
C      1  0.4387420000000  0.4757200000000  0.5046710000000 1.0
C      1  0.5573990000000  0.5344930000000  0.4771240000000 1.0
C      1  0.5507330000000  0.4829240000000  0.4503030000000 1.0
C      1  0.4743410000000  0.4919120000000  0.5642860000000 1.0
C      1  0.5328460000000  0.4762220000000  0.5507220000000 1.0
C      1  0.4270690000000  0.4908490000000  0.5559950000000 1.0
C      1  0.4797490000000  0.5096370000000  0.4624500000000 1.0
C      1  0.5706180000000  0.4804910000000  0.5098280000000 1.0
C      1  0.5671750000000  0.4804660000000  0.4801950000000 1.0
C      1  0.5445380000000  0.5330000000000  0.5028230000000 1.0
C      1  0.5066240000000  0.4736250000000  0.5334310000000 1.0
C      1  0.5149280000000  0.4628940000000  0.4643660000000 1.0
C      1  0.4995750000000  0.5298740000000  0.4663630000000 1.0
C      1  0.5314070000000  0.4835490000000  0.5037250000000 1.0
C      1  0.5610110000000  0.5579900000000  0.4639590000000 1.0
C      1  0.5639840000000  0.5091630000000  0.4657010000000 1.0
C      1  0.4882850000000  0.5326200000000  0.5403290000000 1.0
C      1  0.4911170000000  0.4883630000000  0.4451680000000 1.0
C      1  0.4571040000000  0.5067170000000  0.4835570000000 1.0
C      1  0.4433340000000  0.4569220000000  0.4838720000000 1.0
C      1  0.4660830000000  0.4910240000000  0.5124310000000 1.0
C      1  0.5220350000000  0.4877570000000  0.4775020000000 1.0
C      1  0.4863830000000  0.4692820000000  0.5155680000000 1.0
C      1  0.5013010000000  0.4820210000000  0.5631260000000 1.0
C      1  0.4332400000000  0.4974150000000  0.4715380000000 1.0
C      1  0.4686700000000  0.5095870000000  0.5392580000000 1.0
C      1  0.5335600000000  0.4554890000000  0.5101070000000 1.0
C      1  0.4698520000000  0.4482610000000  0.4766840000000 1.0
C      1  0.4483820000000  0.4841220000000  0.5737940000000 1.0
C      1  0.4360190000000  0.5141820000000  0.5329100000000 1.0
C      1  0.5573020000000  0.4748960000000  0.5362630000000 1.0
C      1  0.4610710000000  0.5526670000000  0.5106810000000 1.0
C      1  0.4808420000000  0.5714860000000  0.5098340000000 1.0
C      1  0.4879190000000  0.4462970000000  0.4995070000000 1.0
C      1  0.4856830000000  0.4594370000000  0.4552350000000 1.0
C      1  0.5209190000000  0.4894910000000  0.4352370000000 1.0
C      1  0.5124770000000  0.5439430000000  0.5376360000000 1.0
C      1  0.5247540000000  0.5513580000000  0.5131470000000 1.0
C      1  0.5147400000000  0.4364430000000  0.5018300000000 1.0
C      1  0.4511390000000  0.5278070000000  0.5082960000000 1.0
END
