TITL C-2778432-5617-504 0.00280125728981081 125000 -1053.14312363732 0 0 181 (C1) n - 1
REM
REM in /home/nfs/bkarasulu/CARBON/AIRSS/Generating-Clusters/REBO/Only-C1/SD-CG/HFTN-CG
REM
REM
REM
REM
REM
REM ./C.cell (11c1c37f851c82e70ff6c80c92926a4b)
REM
REM compiler GCC version 9.2.1 20190827 (Red Hat 9.2.1-1)
REM options -cpp -mtune=generic -march=x86-64 -g -O0 -fpre-include=/usr/include/finclude/math-vector-fortran.h
REM seed -1790891329 187529461 616078479 -888078164 -70241291 2082546696 -1081148168 41955553 1732912014 -470498947 640257531 1153134412 761703342 -218775316 341642672 -795279899 1533923507 -2094187694 -1041170992 1773545945 893917410 -1555219911 -251118128 696769111 -1677074359 621305253 1168893777 -76393569 -1338586788 1511179803 785895291 1383068118 -1290740334
REM
CELL 1.54180   50.00000   50.00000   50.00000   90.00000   90.00000   90.00000
LATT -1
SFAC C  
C      1  0.3991200000000  0.4802090000000  0.5279940000000 1.0
C      1  0.4836660000000  0.4619890000000  0.5855850000000 1.0
C      1  0.5292550000000  0.5556110000000  0.5574110000000 1.0
C      1  0.5756480000000  0.4629820000000  0.5160980000000 1.0
C      1  0.5248100000000  0.5938940000000  0.5475710000000 1.0
C      1  0.5243550000000  0.5407770000000  0.4564910000000 1.0
C      1  0.4844110000000  0.5948530000000  0.5556460000000 1.0
C      1  0.4392830000000  0.4910420000000  0.4949390000000 1.0
C      1  0.4677640000000  0.4483310000000  0.5071550000000 1.0
C      1  0.4011840000000  0.5250200000000  0.5004090000000 1.0
C      1  0.4718350000000  0.5758710000000  0.4276770000000 1.0
C      1  0.5629230000000  0.4199480000000  0.4485330000000 1.0
C      1  0.4883390000000  0.3929200000000  0.4552900000000 1.0
C      1  0.4310290000000  0.4151380000000  0.4480730000000 1.0
C      1  0.4384580000000  0.5231650000000  0.5482290000000 1.0
C      1  0.4500100000000  0.5536330000000  0.5437950000000 1.0
C      1  0.4470800000000  0.4863520000000  0.4649560000000 1.0
C      1  0.4497410000000  0.5556630000000  0.4260780000000 1.0
C      1  0.5362740000000  0.3932780000000  0.5072050000000 1.0
C      1  0.5573870000000  0.4502660000000  0.4733240000000 1.0
C      1  0.5068920000000  0.4733340000000  0.5124030000000 1.0
C      1  0.5194790000000  0.4663860000000  0.4813780000000 1.0
C      1  0.4678620000000  0.4269840000000  0.4903580000000 1.0
C      1  0.4289940000000  0.5334070000000  0.4734150000000 1.0
C      1  0.6009740000000  0.5011020000000  0.5161840000000 1.0
C      1  0.5558350000000  0.5880080000000  0.4616220000000 1.0
C      1  0.4576020000000  0.4562770000000  0.4651900000000 1.0
C      1  0.4799240000000  0.4233840000000  0.4618470000000 1.0
C      1  0.4365760000000  0.4079100000000  0.5806610000000 1.0
C      1  0.4058630000000  0.5282930000000  0.5524530000000 1.0
C      1  0.4047970000000  0.5135420000000  0.4681070000000 1.0
C      1  0.4703530000000  0.3772510000000  0.5158650000000 1.0
C      1  0.4392000000000  0.5712090000000  0.4797530000000 1.0
C      1  0.4840650000000  0.5424430000000  0.4660110000000 1.0
C      1  0.5922560000000  0.5584790000000  0.5339850000000 1.0
C      1  0.4852800000000  0.5718720000000  0.4578220000000 1.0
C      1  0.4400050000000  0.4304780000000  0.5669860000000 1.0
C      1  0.5153380000000  0.4375440000000  0.5320890000000 1.0
C      1  0.5331720000000  0.5527970000000  0.4935270000000 1.0
C      1  0.5573130000000  0.4308720000000  0.5646340000000 1.0
C      1  0.4988760000000  0.6219760000000  0.5117980000000 1.0
C      1  0.4941580000000  0.5362810000000  0.4963480000000 1.0
C      1  0.4876910000000  0.5074750000000  0.4654280000000 1.0
C      1  0.4567950000000  0.4336170000000  0.4419430000000 1.0
C      1  0.5718200000000  0.4629740000000  0.4153810000000 1.0
C      1  0.5024070000000  0.5701830000000  0.4218040000000 1.0
C      1  0.4304290000000  0.4200200000000  0.5023220000000 1.0
C      1  0.4629110000000  0.5326080000000  0.5934380000000 1.0
C      1  0.4633630000000  0.5265550000000  0.4162390000000 1.0
C      1  0.5053160000000  0.4152210000000  0.4837730000000 1.0
C      1  0.5293320000000  0.4723310000000  0.5958680000000 1.0
C      1  0.4883770000000  0.5168950000000  0.4354880000000 1.0
C      1  0.6387190000000  0.4155620000000  0.5153470000000 1.0
C      1  0.5021100000000  0.5735050000000  0.5679460000000 1.0
C      1  0.5137880000000  0.4050100000000  0.5553090000000 1.0
C      1  0.5982380000000  0.4933690000000  0.4477090000000 1.0
C      1  0.5311680000000  0.4488660000000  0.4545210000000 1.0
C      1  0.5077380000000  0.5128130000000  0.5342980000000 1.0
C      1  0.4999550000000  0.5398340000000  0.6057340000000 1.0
C      1  0.5365530000000  0.5063320000000  0.5254740000000 1.0
C      1  0.4177710000000  0.5061850000000  0.5833550000000 1.0
C      1  0.4656880000000  0.5895850000000  0.4768880000000 1.0
C      1  0.5128810000000  0.4670280000000  0.5445610000000 1.0
C      1  0.5353240000000  0.4757970000000  0.5627570000000 1.0
C      1  0.5868520000000  0.4380430000000  0.4648510000000 1.0
C      1  0.5088590000000  0.5404620000000  0.4308580000000 1.0
C      1  0.4155640000000  0.5871540000000  0.4628690000000 1.0
C      1  0.4872020000000  0.4971150000000  0.5141380000000 1.0
C      1  0.4688150000000  0.5244380000000  0.5159050000000 1.0
C      1  0.4888470000000  0.4925350000000  0.6199800000000 1.0
C      1  0.4601770000000  0.4652390000000  0.5536350000000 1.0
C      1  0.5672280000000  0.4893240000000  0.4725620000000 1.0
C      1  0.5522630000000  0.4034790000000  0.4717370000000 1.0
C      1  0.5401400000000  0.5828460000000  0.5738360000000 1.0
C      1  0.4767760000000  0.5340380000000  0.5475780000000 1.0
C      1  0.5503160000000  0.4501370000000  0.5009580000000 1.0
C      1  0.5377670000000  0.4121690000000  0.5634390000000 1.0
C      1  0.5453270000000  0.5082950000000  0.5640380000000 1.0
C      1  0.4344460000000  0.4490940000000  0.4851460000000 1.0
C      1  0.4355370000000  0.4809120000000  0.5436380000000 1.0
C      1  0.5936960000000  0.5090250000000  0.5430450000000 1.0
C      1  0.5854430000000  0.5116160000000  0.4904780000000 1.0
C      1  0.5362670000000  0.4820090000000  0.4486190000000 1.0
C      1  0.5874770000000  0.5604850000000  0.5018210000000 1.0
C      1  0.4886210000000  0.4788720000000  0.5588510000000 1.0
C      1  0.4852840000000  0.4757300000000  0.4670270000000 1.0
C      1  0.5784860000000  0.4866410000000  0.5636660000000 1.0
C      1  0.5050570000000  0.5465120000000  0.5386310000000 1.0
C      1  0.5088570000000  0.6051740000000  0.4910720000000 1.0
C      1  0.5849800000000  0.4914990000000  0.4221320000000 1.0
C      1  0.5221700000000  0.5815590000000  0.5040000000000 1.0
C      1  0.4880130000000  0.4227890000000  0.5419160000000 1.0
C      1  0.4161010000000  0.4255060000000  0.4715020000000 1.0
C      1  0.4480350000000  0.4610630000000  0.4261630000000 1.0
C      1  0.4286140000000  0.5583660000000  0.4502610000000 1.0
C      1  0.4932480000000  0.5099620000000  0.5651010000000 1.0
C      1  0.5529460000000  0.5902380000000  0.5949920000000 1.0
C      1  0.3948340000000  0.4818350000000  0.4757520000000 1.0
C      1  0.4978250000000  0.4652260000000  0.4401340000000 1.0
C      1  0.5391250000000  0.5300520000000  0.4071240000000 1.0
C      1  0.5767750000000  0.5844960000000  0.5316620000000 1.0
C      1  0.5542340000000  0.4976890000000  0.4242600000000 1.0
C      1  0.4255260000000  0.6125780000000  0.4580640000000 1.0
C      1  0.5063560000000  0.3879630000000  0.5042260000000 1.0
C      1  0.5151490000000  0.3923350000000  0.4405690000000 1.0
C      1  0.5919550000000  0.4212550000000  0.4916200000000 1.0
C      1  0.5799390000000  0.5715800000000  0.4704560000000 1.0
C      1  0.4804130000000  0.3823280000000  0.4835140000000 1.0
C      1  0.4702610000000  0.4768710000000  0.4968380000000 1.0
C      1  0.5348120000000  0.5115610000000  0.5934030000000 1.0
C      1  0.4052020000000  0.5409500000000  0.5234920000000 1.0
C      1  0.4297680000000  0.5287170000000  0.4221060000000 1.0
C      1  0.5696150000000  0.5888320000000  0.4988500000000 1.0
C      1  0.4075010000000  0.4937730000000  0.5024580000000 1.0
C      1  0.5020050000000  0.6006900000000  0.4646080000000 1.0
C      1  0.5149260000000  0.5968200000000  0.4381550000000 1.0
C      1  0.5692920000000  0.5361100000000  0.4961830000000 1.0
C      1  0.5977950000000  0.4689930000000  0.4701110000000 1.0
C      1  0.5383100000000  0.4757690000000  0.5151170000000 1.0
C      1  0.4488800000000  0.5607950000000  0.5830370000000 1.0
C      1  0.4497900000000  0.5459700000000  0.4977170000000 1.0
C      1  0.4218560000000  0.4714070000000  0.4378390000000 1.0
C      1  0.5652940000000  0.4096170000000  0.5003540000000 1.0
C      1  0.5970390000000  0.4748820000000  0.5011450000000 1.0
C      1  0.4495820000000  0.5116800000000  0.5750200000000 1.0
C      1  0.4541020000000  0.3988520000000  0.4979240000000 1.0
C      1  0.5427900000000  0.4190160000000  0.5243620000000 1.0
C      1  0.5023070000000  0.4719050000000  0.6049800000000 1.0
C      1  0.4573470000000  0.5890660000000  0.5270080000000 1.0
C      1  0.5078850000000  0.5175560000000  0.5922440000000 1.0
C      1  0.4690060000000  0.4717020000000  0.4083820000000 1.0
C      1  0.5542840000000  0.5410530000000  0.4691070000000 1.0
C      1  0.5256720000000  0.3970170000000  0.4688280000000 1.0
C      1  0.4510430000000  0.4577100000000  0.5839660000000 1.0
C      1  0.5185510000000  0.4377640000000  0.4990400000000 1.0
C      1  0.4998800000000  0.6121620000000  0.5383050000000 1.0
C      1  0.4220060000000  0.5400900000000  0.5802930000000 1.0
C      1  0.4543410000000  0.6119360000000  0.4567890000000 1.0
C      1  0.5351020000000  0.5705710000000  0.4322270000000 1.0
C      1  0.4434170000000  0.5039850000000  0.5232860000000 1.0
C      1  0.5593930000000  0.4880480000000  0.5918830000000 1.0
C      1  0.4567480000000  0.5320410000000  0.4608850000000 1.0
C      1  0.5308320000000  0.4216790000000  0.4367030000000 1.0
C      1  0.5658920000000  0.4667910000000  0.4466330000000 1.0
C      1  0.5615070000000  0.4571190000000  0.5629700000000 1.0
C      1  0.5527910000000  0.5471090000000  0.4251610000000 1.0
C      1  0.5294310000000  0.4864210000000  0.4091640000000 1.0
C      1  0.5511440000000  0.5343160000000  0.5499890000000 1.0
C      1  0.4160020000000  0.4553470000000  0.5312390000000 1.0
C      1  0.4515880000000  0.4979170000000  0.4411140000000 1.0
C      1  0.4549980000000  0.5824830000000  0.5591000000000 1.0
C      1  0.5826160000000  0.5352970000000  0.5461570000000 1.0
C      1  0.4123510000000  0.5041400000000  0.4380800000000 1.0
C      1  0.4637750000000  0.4402670000000  0.5364090000000 1.0
C      1  0.4891970000000  0.4514130000000  0.4036090000000 1.0
C      1  0.5092250000000  0.5219820000000  0.4020150000000 1.0
C      1  0.4689530000000  0.5732310000000  0.5060630000000 1.0
C      1  0.4100240000000  0.4583990000000  0.4640910000000 1.0
C      1  0.6154850000000  0.4183900000000  0.5035590000000 1.0
C      1  0.4658600000000  0.5043810000000  0.6104580000000 1.0
C      1  0.5778280000000  0.5455460000000  0.4482840000000 1.0
C      1  0.5931500000000  0.5181340000000  0.4601540000000 1.0
C      1  0.5478510000000  0.4648310000000  0.3996090000000 1.0
C      1  0.4247850000000  0.5606650000000  0.5245480000000 1.0
C      1  0.4643500000000  0.6063460000000  0.4313510000000 1.0
C      1  0.4419810000000  0.4854070000000  0.5953700000000 1.0
C      1  0.4066710000000  0.4956740000000  0.5547720000000 1.0
C      1  0.5450980000000  0.5910290000000  0.5228630000000 1.0
C      1  0.5023910000000  0.4887540000000  0.4221410000000 1.0
C      1  0.5062070000000  0.4397830000000  0.4251380000000 1.0
C      1  0.5468230000000  0.5341240000000  0.5171880000000 1.0
C      1  0.4808710000000  0.5025500000000  0.3996090000000 1.0
C      1  0.4926790000000  0.3905840000000  0.5339030000000 1.0
C      1  0.4993860000000  0.5625560000000  0.5128260000000 1.0
C      1  0.5304770000000  0.5727820000000  0.4659820000000 1.0
C      1  0.4370460000000  0.4971680000000  0.4137020000000 1.0
C      1  0.4330080000000  0.4300070000000  0.5336730000000 1.0
C      1  0.5151510000000  0.5194780000000  0.4774910000000 1.0
C      1  0.4829710000000  0.5596800000000  0.5877790000000 1.0
C      1  0.5342570000000  0.4962100000000  0.4775170000000 1.0
C      1  0.5622410000000  0.4858960000000  0.5353420000000 1.0
END
