TITL C-2778431-5191-1499 -0.00711898783548225 125000 -917.259555615911 0 0 158 (C1) n - 1
REM
REM in /home/nfs/bkarasulu/CARBON/AIRSS/Generating-Clusters/REBO/Only-C1/SD-CG/HFTN-CG
REM
REM
REM
REM
REM
REM ./C.cell (11c1c37f851c82e70ff6c80c92926a4b)
REM
REM compiler GCC version 9.2.1 20190827 (Red Hat 9.2.1-1)
REM options -cpp -mtune=generic -march=x86-64 -g -O0 -fpre-include=/usr/include/finclude/math-vector-fortran.h
REM seed -1811260820 316584353 -1067080043 -1096651747 -921452321 -1579393189 -917739551 821771134 11364307 -1975516712 2072680674 1983499814 -122951565 450528177 -864305380 -2133268965 -1077640726 -1780681391 -513992130 -1503525005 -1815963656 1350928840 1954318099 -1818434727 612679207 1218856525 630362478 1022975506 1792489672 15835403 1626321634 -510475448 1931780290
REM
CELL 1.54180   50.00000   50.00000   50.00000   90.00000   90.00000   90.00000
LATT -1
SFAC C  
C      1  0.5406060000000  0.5398560000000  0.5390760000000 1.0
C      1  0.5751970000000  0.5374880000000  0.4397860000000 1.0
C      1  0.4418010000000  0.4697760000000  0.5163790000000 1.0
C      1  0.4092880000000  0.4920430000000  0.5229160000000 1.0
C      1  0.4352510000000  0.4828290000000  0.4179900000000 1.0
C      1  0.6114770000000  0.5149200000000  0.4790820000000 1.0
C      1  0.4918050000000  0.5653250000000  0.5350770000000 1.0
C      1  0.5012710000000  0.5329000000000  0.5390170000000 1.0
C      1  0.5648420000000  0.4861650000000  0.5487820000000 1.0
C      1  0.4445190000000  0.4907040000000  0.4951680000000 1.0
C      1  0.4364850000000  0.4497230000000  0.4235630000000 1.0
C      1  0.4900910000000  0.4665260000000  0.4274410000000 1.0
C      1  0.4160170000000  0.4531450000000  0.5289130000000 1.0
C      1  0.5680750000000  0.5774220000000  0.4756520000000 1.0
C      1  0.5385200000000  0.5231960000000  0.5935590000000 1.0
C      1  0.5287220000000  0.4318180000000  0.5642030000000 1.0
C      1  0.4951300000000  0.5638770000000  0.4232010000000 1.0
C      1  0.4962710000000  0.5064170000000  0.4645690000000 1.0
C      1  0.5968630000000  0.5223860000000  0.4563470000000 1.0
C      1  0.4656590000000  0.4878230000000  0.4041150000000 1.0
C      1  0.4669560000000  0.4653230000000  0.5913150000000 1.0
C      1  0.4414950000000  0.4091750000000  0.5119150000000 1.0
C      1  0.4056430000000  0.4549630000000  0.4681990000000 1.0
C      1  0.4817420000000  0.4170010000000  0.4478090000000 1.0
C      1  0.4254020000000  0.5512960000000  0.4679230000000 1.0
C      1  0.4123400000000  0.4750980000000  0.4419100000000 1.0
C      1  0.5152180000000  0.5056360000000  0.6000230000000 1.0
C      1  0.5001240000000  0.5475180000000  0.5861960000000 1.0
C      1  0.4273330000000  0.4833740000000  0.5490440000000 1.0
C      1  0.3899680000000  0.5175330000000  0.5169200000000 1.0
C      1  0.4095760000000  0.5643470000000  0.5146790000000 1.0
C      1  0.4849670000000  0.4334240000000  0.5752110000000 1.0
C      1  0.5027460000000  0.5417160000000  0.5052150000000 1.0
C      1  0.5474760000000  0.5173270000000  0.4786320000000 1.0
C      1  0.4294930000000  0.5768390000000  0.4900010000000 1.0
C      1  0.5652670000000  0.5525920000000  0.5676170000000 1.0
C      1  0.5065040000000  0.4268690000000  0.4681320000000 1.0
C      1  0.4446380000000  0.4420640000000  0.4731260000000 1.0
C      1  0.4839980000000  0.4055620000000  0.5309580000000 1.0
C      1  0.5282710000000  0.5919290000000  0.4577290000000 1.0
C      1  0.4571100000000  0.3935020000000  0.4912630000000 1.0
C      1  0.5225440000000  0.4747200000000  0.5934580000000 1.0
C      1  0.5748910000000  0.4477840000000  0.5443830000000 1.0
C      1  0.4612220000000  0.5766880000000  0.4401170000000 1.0
C      1  0.4831050000000  0.4940650000000  0.5989170000000 1.0
C      1  0.4599080000000  0.5854850000000  0.5480620000000 1.0
C      1  0.5232530000000  0.4655930000000  0.4942640000000 1.0
C      1  0.4556360000000  0.5885750000000  0.4969900000000 1.0
C      1  0.5663560000000  0.5112350000000  0.5060340000000 1.0
C      1  0.5018200000000  0.4124380000000  0.5543430000000 1.0
C      1  0.5507420000000  0.5140350000000  0.4187910000000 1.0
C      1  0.4800270000000  0.5209270000000  0.5079930000000 1.0
C      1  0.5373950000000  0.6071200000000  0.5027520000000 1.0
C      1  0.4984220000000  0.5179210000000  0.4264970000000 1.0
C      1  0.5122120000000  0.5601430000000  0.4798450000000 1.0
C      1  0.5498310000000  0.4747130000000  0.5781000000000 1.0
C      1  0.4999430000000  0.4585130000000  0.5926140000000 1.0
C      1  0.5116000000000  0.4009930000000  0.4858590000000 1.0
C      1  0.5245260000000  0.4550370000000  0.5321580000000 1.0
C      1  0.4570140000000  0.5309030000000  0.5768900000000 1.0
C      1  0.5555820000000  0.4891990000000  0.4652160000000 1.0
C      1  0.5643180000000  0.5643150000000  0.4501900000000 1.0
C      1  0.5319350000000  0.4047220000000  0.5107150000000 1.0
C      1  0.4597910000000  0.5278060000000  0.5348370000000 1.0
C      1  0.4591260000000  0.5535370000000  0.5548930000000 1.0
C      1  0.5236010000000  0.5289580000000  0.4108650000000 1.0
C      1  0.4711370000000  0.5022900000000  0.4296500000000 1.0
C      1  0.5331660000000  0.4072440000000  0.5421840000000 1.0
C      1  0.4515820000000  0.5183300000000  0.4969540000000 1.0
C      1  0.5622300000000  0.4288860000000  0.5019140000000 1.0
C      1  0.4732750000000  0.5672250000000  0.5124440000000 1.0
C      1  0.4684380000000  0.4210380000000  0.4782950000000 1.0
C      1  0.4105900000000  0.5603290000000  0.5469080000000 1.0
C      1  0.6038980000000  0.4819380000000  0.5149290000000 1.0
C      1  0.4305680000000  0.5408260000000  0.5067350000000 1.0
C      1  0.4200890000000  0.5353770000000  0.5558440000000 1.0
C      1  0.4567490000000  0.4805630000000  0.5641040000000 1.0
C      1  0.5070040000000  0.4875360000000  0.4392240000000 1.0
C      1  0.4734820000000  0.4765440000000  0.4862420000000 1.0
C      1  0.4175510000000  0.5313360000000  0.4130920000000 1.0
C      1  0.5933430000000  0.4699230000000  0.4620530000000 1.0
C      1  0.5492200000000  0.4347420000000  0.5300240000000 1.0
C      1  0.4666880000000  0.4907320000000  0.4575190000000 1.0
C      1  0.5192010000000  0.4852010000000  0.5223410000000 1.0
C      1  0.4313080000000  0.4433220000000  0.5535890000000 1.0
C      1  0.4190890000000  0.4910610000000  0.4770150000000 1.0
C      1  0.5836050000000  0.5095470000000  0.5599660000000 1.0
C      1  0.5707370000000  0.4667970000000  0.4359280000000 1.0
C      1  0.5029550000000  0.4522740000000  0.5536650000000 1.0
C      1  0.4585170000000  0.5493860000000  0.4899790000000 1.0
C      1  0.4840630000000  0.5673400000000  0.5738950000000 1.0
C      1  0.5830470000000  0.5357190000000  0.5194600000000 1.0
C      1  0.4410780000000  0.4718020000000  0.4603500000000 1.0
C      1  0.4967210000000  0.4561910000000  0.4794640000000 1.0
C      1  0.4804710000000  0.4715900000000  0.5437060000000 1.0
C      1  0.4814510000000  0.5261480000000  0.5914090000000 1.0
C      1  0.5766920000000  0.5267600000000  0.4082830000000 1.0
C      1  0.5540720000000  0.4694780000000  0.4917310000000 1.0
C      1  0.5430640000000  0.5495360000000  0.4894750000000 1.0
C      1  0.5176750000000  0.5081690000000  0.4897310000000 1.0
C      1  0.5878630000000  0.4387820000000  0.5014820000000 1.0
C      1  0.4529050000000  0.4035870000000  0.5371350000000 1.0
C      1  0.4811150000000  0.5056190000000  0.5447890000000 1.0
C      1  0.4993800000000  0.5883980000000  0.4687450000000 1.0
C      1  0.6089940000000  0.4842500000000  0.4843990000000 1.0
C      1  0.5208290000000  0.5056530000000  0.5450090000000 1.0
C      1  0.4695210000000  0.4547790000000  0.5206360000000 1.0
C      1  0.5559420000000  0.5670560000000  0.5300180000000 1.0
C      1  0.4867740000000  0.3904890000000  0.5006460000000 1.0
C      1  0.5799910000000  0.5361990000000  0.5501790000000 1.0
C      1  0.5160040000000  0.4346320000000  0.5068960000000 1.0
C      1  0.4438310000000  0.4386310000000  0.5043090000000 1.0
C      1  0.5475930000000  0.5978820000000  0.4783170000000 1.0
C      1  0.4377950000000  0.5086500000000  0.5675600000000 1.0
C      1  0.5313400000000  0.5289130000000  0.5132020000000 1.0
C      1  0.4928750000000  0.4926990000000  0.5038770000000 1.0
C      1  0.5334300000000  0.4724470000000  0.4486890000000 1.0
C      1  0.4940970000000  0.4880240000000  0.3940090000000 1.0
C      1  0.5818980000000  0.4972780000000  0.4461280000000 1.0
C      1  0.4289160000000  0.5179390000000  0.5297610000000 1.0
C      1  0.6057730000000  0.5143970000000  0.5099110000000 1.0
C      1  0.4847580000000  0.4297380000000  0.5068900000000 1.0
C      1  0.5716170000000  0.5609280000000  0.5024850000000 1.0
C      1  0.5449730000000  0.5188640000000  0.5604190000000 1.0
C      1  0.5663400000000  0.4508440000000  0.4659800000000 1.0
C      1  0.5454750000000  0.4824290000000  0.4192550000000 1.0
C      1  0.4243470000000  0.4379440000000  0.4476350000000 1.0
C      1  0.4821250000000  0.5421200000000  0.4432100000000 1.0
C      1  0.4868840000000  0.5996290000000  0.4946600000000 1.0
C      1  0.4521480000000  0.4416620000000  0.5715020000000 1.0
C      1  0.5425400000000  0.5301280000000  0.4475500000000 1.0
C      1  0.5634140000000  0.5031680000000  0.5846120000000 1.0
C      1  0.3909850000000  0.5405040000000  0.5019670000000 1.0
C      1  0.5937810000000  0.4567430000000  0.5239830000000 1.0
C      1  0.4156450000000  0.5164600000000  0.4596070000000 1.0
C      1  0.5361750000000  0.4388410000000  0.4550780000000 1.0
C      1  0.4561440000000  0.5511070000000  0.4578940000000 1.0
C      1  0.5005300000000  0.4984280000000  0.5700510000000 1.0
C      1  0.4783090000000  0.4504760000000  0.4532970000000 1.0
C      1  0.4221380000000  0.5115210000000  0.4307220000000 1.0
C      1  0.3979650000000  0.5377740000000  0.4747280000000 1.0
C      1  0.5223950000000  0.5589290000000  0.4196620000000 1.0
C      1  0.4985690000000  0.4335730000000  0.4233230000000 1.0
C      1  0.5118850000000  0.5361900000000  0.4590560000000 1.0
C      1  0.4794360000000  0.5926300000000  0.4460570000000 1.0
C      1  0.5391580000000  0.5727020000000  0.4384020000000 1.0
C      1  0.4895540000000  0.5929290000000  0.5554810000000 1.0
C      1  0.5328800000000  0.5523490000000  0.5783160000000 1.0
C      1  0.5215330000000  0.5658120000000  0.5492140000000 1.0
C      1  0.5549850000000  0.4471050000000  0.5674620000000 1.0
C      1  0.4656040000000  0.4431870000000  0.4222740000000 1.0
C      1  0.4058410000000  0.4686010000000  0.4993530000000 1.0
C      1  0.5073830000000  0.6048240000000  0.5135050000000 1.0
C      1  0.5427490000000  0.4161180000000  0.4803040000000 1.0
C      1  0.5199700000000  0.4961070000000  0.4011980000000 1.0
C      1  0.5268550000000  0.4295440000000  0.4267250000000 1.0
C      1  0.5631270000000  0.4850110000000  0.5198310000000 1.0
C      1  0.5331970000000  0.5907490000000  0.5310700000000 1.0
END
