TITL C-2778436-5916-146 0.00232472470485426 125000 -526.155727426621 0 0 90 (C1) n - 1
REM
REM in /home/nfs/bkarasulu/CARBON/AIRSS/Generating-Clusters/REBO/Only-C1/SD-CG/HFTN-CG
REM
REM
REM
REM
REM
REM ./C.cell (11c1c37f851c82e70ff6c80c92926a4b)
REM
REM compiler GCC version 9.2.1 20190827 (Red Hat 9.2.1-1)
REM options -cpp -mtune=generic -march=x86-64 -g -O0 -fpre-include=/usr/include/finclude/math-vector-fortran.h
REM seed 341358006 -588587957 -851985060 -1019736616 -800792605 -42019621 1796079091 701124526 491434476 321527206 -1990120639 1085344479 -96474217 504642122 -1550649056 -693139782 812942077 -2017266594 1131700926 -768316777 -1693298529 290229262 -314593070 -1458678655 1799878345 843767398 501147805 2102585373 1075837457 -336217613 -487694041 -1265741742 -1492831210
REM
CELL 1.54180   50.00000   50.00000   50.00000   90.00000   90.00000   90.00000
LATT -1
SFAC C  
C      1  0.5392810000000  0.4462760000000  0.5733880000000 1.0
C      1  0.5600160000000  0.5393630000000  0.4705150000000 1.0
C      1  0.5499590000000  0.5137550000000  0.4414960000000 1.0
C      1  0.5963500000000  0.5122690000000  0.4905850000000 1.0
C      1  0.4248170000000  0.5641320000000  0.5036260000000 1.0
C      1  0.5305990000000  0.5553950000000  0.5141520000000 1.0
C      1  0.5855620000000  0.5444620000000  0.4572560000000 1.0
C      1  0.5493800000000  0.5035020000000  0.5095950000000 1.0
C      1  0.4647320000000  0.5781390000000  0.5346690000000 1.0
C      1  0.4474000000000  0.4644300000000  0.4493580000000 1.0
C      1  0.5294230000000  0.4298980000000  0.5525230000000 1.0
C      1  0.4540490000000  0.4908810000000  0.4643920000000 1.0
C      1  0.4492950000000  0.5195500000000  0.4257280000000 1.0
C      1  0.5161370000000  0.4611260000000  0.4176650000000 1.0
C      1  0.5348660000000  0.4856850000000  0.4771250000000 1.0
C      1  0.4863470000000  0.4981280000000  0.4661170000000 1.0
C      1  0.5989990000000  0.4418980000000  0.4937230000000 1.0
C      1  0.4742120000000  0.4437300000000  0.4810240000000 1.0
C      1  0.5197860000000  0.4592050000000  0.4795070000000 1.0
C      1  0.5015710000000  0.5411000000000  0.5376540000000 1.0
C      1  0.4645890000000  0.4646810000000  0.4265060000000 1.0
C      1  0.4609780000000  0.5106630000000  0.5973900000000 1.0
C      1  0.4574500000000  0.4356260000000  0.5292100000000 1.0
C      1  0.5148340000000  0.4524620000000  0.5082990000000 1.0
C      1  0.4520510000000  0.5206610000000  0.5050200000000 1.0
C      1  0.4346340000000  0.5088450000000  0.4822740000000 1.0
C      1  0.4312220000000  0.5759840000000  0.5290010000000 1.0
C      1  0.5662620000000  0.5204100000000  0.4913620000000 1.0
C      1  0.5294810000000  0.4714560000000  0.5787110000000 1.0
C      1  0.5336690000000  0.5459570000000  0.4631190000000 1.0
C      1  0.4400080000000  0.5228130000000  0.5848650000000 1.0
C      1  0.5760670000000  0.5199680000000  0.5342120000000 1.0
C      1  0.5080390000000  0.4133350000000  0.5070550000000 1.0
C      1  0.4393660000000  0.5130910000000  0.5359240000000 1.0
C      1  0.5539560000000  0.5461850000000  0.5332610000000 1.0
C      1  0.5069670000000  0.5431730000000  0.4548010000000 1.0
C      1  0.4944810000000  0.5711780000000  0.5407100000000 1.0
C      1  0.4429660000000  0.5592010000000  0.5527280000000 1.0
C      1  0.4718560000000  0.4831730000000  0.5146200000000 1.0
C      1  0.5719430000000  0.5880760000000  0.5655640000000 1.0
C      1  0.5655850000000  0.4737610000000  0.5128520000000 1.0
C      1  0.6062650000000  0.5286120000000  0.4685200000000 1.0
C      1  0.4094710000000  0.5402980000000  0.5049660000000 1.0
C      1  0.5207510000000  0.5032090000000  0.4990300000000 1.0
C      1  0.5272580000000  0.4879780000000  0.4101910000000 1.0
C      1  0.4844670000000  0.5594560000000  0.4578460000000 1.0
C      1  0.5435800000000  0.5154270000000  0.5409950000000 1.0
C      1  0.5102060000000  0.5321710000000  0.5058290000000 1.0
C      1  0.4682560000000  0.5822080000000  0.5021400000000 1.0
C      1  0.4135650000000  0.4909180000000  0.4964210000000 1.0
C      1  0.4927460000000  0.4525630000000  0.4352770000000 1.0
C      1  0.5232680000000  0.4085540000000  0.5312300000000 1.0
C      1  0.5506090000000  0.4880200000000  0.4541490000000 1.0
C      1  0.5359690000000  0.4690140000000  0.5246960000000 1.0
C      1  0.4560580000000  0.4615640000000  0.5516160000000 1.0
C      1  0.4834160000000  0.5157680000000  0.4930100000000 1.0
C      1  0.4621340000000  0.4900130000000  0.4134150000000 1.0
C      1  0.5074860000000  0.4445470000000  0.5381660000000 1.0
C      1  0.5262760000000  0.5119650000000  0.4254980000000 1.0
C      1  0.4800620000000  0.5154730000000  0.4193670000000 1.0
C      1  0.4503380000000  0.4424910000000  0.4674310000000 1.0
C      1  0.5391960000000  0.4440770000000  0.4564090000000 1.0
C      1  0.5227200000000  0.4194570000000  0.4827310000000 1.0
C      1  0.4834020000000  0.4336350000000  0.5082680000000 1.0
C      1  0.5231210000000  0.4921890000000  0.5373700000000 1.0
C      1  0.5880740000000  0.4991440000000  0.5171770000000 1.0
C      1  0.4477310000000  0.5690970000000  0.4865940000000 1.0
C      1  0.4427280000000  0.5397050000000  0.4442870000000 1.0
C      1  0.4547160000000  0.4762910000000  0.4933120000000 1.0
C      1  0.5116980000000  0.4920420000000  0.5754180000000 1.0
C      1  0.4989220000000  0.4880430000000  0.5172820000000 1.0
C      1  0.4563280000000  0.5575280000000  0.4620490000000 1.0
C      1  0.4780790000000  0.5207820000000  0.5265310000000 1.0
C      1  0.4141190000000  0.5144290000000  0.5159530000000 1.0
C      1  0.5135420000000  0.5786630000000  0.5185340000000 1.0
C      1  0.4303910000000  0.4400100000000  0.5142610000000 1.0
C      1  0.5723580000000  0.4486190000000  0.4971970000000 1.0
C      1  0.4949320000000  0.5139170000000  0.5553060000000 1.0
C      1  0.4999740000000  0.5157810000000  0.4422760000000 1.0
C      1  0.5083400000000  0.4297230000000  0.4552200000000 1.0
C      1  0.5442670000000  0.4646670000000  0.4339240000000 1.0
C      1  0.4847210000000  0.5043530000000  0.5853230000000 1.0
C      1  0.4929430000000  0.4647160000000  0.4664990000000 1.0
C      1  0.4279310000000  0.4647020000000  0.5006010000000 1.0
C      1  0.4960340000000  0.5881800000000  0.4971370000000 1.0
C      1  0.4388450000000  0.5326830000000  0.5586610000000 1.0
C      1  0.5514360000000  0.4336950000000  0.4854710000000 1.0
C      1  0.4558480000000  0.4866230000000  0.5389170000000 1.0
C      1  0.5637280000000  0.5689430000000  0.5508100000000 1.0
C      1  0.4825090000000  0.4444280000000  0.5491060000000 1.0
END
