TITL C-2778433-5640-1078 0.000200502786485917 125000 -809.206360754333 0 0 138 (C1) n - 1
REM
REM in /home/nfs/bkarasulu/CARBON/AIRSS/Generating-Clusters/REBO/Only-C1/SD-CG/HFTN-CG
REM
REM
REM
REM
REM
REM ./C.cell (11c1c37f851c82e70ff6c80c92926a4b)
REM
REM compiler GCC version 9.2.1 20190827 (Red Hat 9.2.1-1)
REM options -cpp -mtune=generic -march=x86-64 -g -O0 -fpre-include=/usr/include/finclude/math-vector-fortran.h
REM seed 827627720 454249867 1258973502 -522513519 2004183085 -540678958 -1279050712 -99267981 -504331791 -1615230770 961474434 -98497503 -1125150923 -2097235526 -646083447 -250386691 -1532980029 1419142539 -181780447 -1832698984 1074101228 -1698068441 -2040370664 556478172 -1342069064 552095781 -1708195351 747853319 -1844069836 1659972824 -1438337292 1426116502 52653983
REM
CELL 1.54180   50.00000   50.00000   50.00000   90.00000   90.00000   90.00000
LATT -1
SFAC C  
C      1  0.5132990000000  0.5232580000000  0.5508800000000 1.0
C      1  0.4603280000000  0.5300810000000  0.4680170000000 1.0
C      1  0.4729400000000  0.4067220000000  0.5604100000000 1.0
C      1  0.4972370000000  0.5096790000000  0.4081160000000 1.0
C      1  0.4300820000000  0.4540150000000  0.5351790000000 1.0
C      1  0.4076360000000  0.4783970000000  0.4790150000000 1.0
C      1  0.5342710000000  0.5448260000000  0.5013680000000 1.0
C      1  0.4811560000000  0.4832790000000  0.3836090000000 1.0
C      1  0.4152640000000  0.4854770000000  0.5374790000000 1.0
C      1  0.5318610000000  0.4303860000000  0.5476010000000 1.0
C      1  0.5271940000000  0.3993740000000  0.5114370000000 1.0
C      1  0.4358690000000  0.5691460000000  0.4832240000000 1.0
C      1  0.5690620000000  0.5162990000000  0.4330650000000 1.0
C      1  0.4387720000000  0.5083230000000  0.4685670000000 1.0
C      1  0.4575090000000  0.5697080000000  0.4651230000000 1.0
C      1  0.5105760000000  0.4817770000000  0.3933540000000 1.0
C      1  0.5243290000000  0.4098700000000  0.4832550000000 1.0
C      1  0.5966380000000  0.5388670000000  0.4873210000000 1.0
C      1  0.5201490000000  0.4124370000000  0.5670370000000 1.0
C      1  0.4359000000000  0.4721980000000  0.5615700000000 1.0
C      1  0.4144430000000  0.5498010000000  0.4837920000000 1.0
C      1  0.5365000000000  0.4726590000000  0.4132820000000 1.0
C      1  0.6008690000000  0.4806050000000  0.5022470000000 1.0
C      1  0.4858600000000  0.5747240000000  0.4759380000000 1.0
C      1  0.5707740000000  0.5198130000000  0.4636850000000 1.0
C      1  0.5776250000000  0.4748600000000  0.4830340000000 1.0
C      1  0.4911810000000  0.5366180000000  0.5736080000000 1.0
C      1  0.5135820000000  0.4260000000000  0.5910020000000 1.0
C      1  0.4445160000000  0.4248600000000  0.4864930000000 1.0
C      1  0.4533440000000  0.4471870000000  0.5730050000000 1.0
C      1  0.4730010000000  0.5745380000000  0.5161490000000 1.0
C      1  0.4880610000000  0.5128410000000  0.4626790000000 1.0
C      1  0.4647980000000  0.5055210000000  0.4035480000000 1.0
C      1  0.4426180000000  0.5794130000000  0.5084350000000 1.0
C      1  0.5078060000000  0.5598640000000  0.5354210000000 1.0
C      1  0.5721250000000  0.4585540000000  0.5148610000000 1.0
C      1  0.5055490000000  0.5516050000000  0.4922160000000 1.0
C      1  0.5035650000000  0.5841900000000  0.5144860000000 1.0
C      1  0.5631030000000  0.5778460000000  0.4799540000000 1.0
C      1  0.4470980000000  0.5205060000000  0.4287100000000 1.0
C      1  0.5196610000000  0.4947110000000  0.4462140000000 1.0
C      1  0.4900610000000  0.4738250000000  0.5413620000000 1.0
C      1  0.5523850000000  0.5321440000000  0.4800130000000 1.0
C      1  0.5093800000000  0.4398220000000  0.4824070000000 1.0
C      1  0.4290660000000  0.5476880000000  0.5406860000000 1.0
C      1  0.5669870000000  0.4848470000000  0.4227720000000 1.0
C      1  0.4869300000000  0.5022180000000  0.5224790000000 1.0
C      1  0.5297820000000  0.5061530000000  0.4174230000000 1.0
C      1  0.4969660000000  0.5006400000000  0.5905390000000 1.0
C      1  0.4695160000000  0.4596550000000  0.4675270000000 1.0
C      1  0.4717850000000  0.5717070000000  0.5474620000000 1.0
C      1  0.5344410000000  0.4612080000000  0.4753940000000 1.0
C      1  0.4298360000000  0.5260380000000  0.5705390000000 1.0
C      1  0.5485020000000  0.5035700000000  0.5190080000000 1.0
C      1  0.4644570000000  0.5115720000000  0.5571140000000 1.0
C      1  0.4160460000000  0.5165550000000  0.5405980000000 1.0
C      1  0.4874950000000  0.5342990000000  0.5339700000000 1.0
C      1  0.5150710000000  0.5906850000000  0.4830070000000 1.0
C      1  0.5712850000000  0.4763960000000  0.5369770000000 1.0
C      1  0.5532650000000  0.4812930000000  0.5592990000000 1.0
C      1  0.5487630000000  0.4861930000000  0.4910900000000 1.0
C      1  0.5981850000000  0.5076220000000  0.4730570000000 1.0
C      1  0.5645260000000  0.4968810000000  0.5803160000000 1.0
C      1  0.5399220000000  0.5728140000000  0.4397960000000 1.0
C      1  0.5043820000000  0.4773260000000  0.5723340000000 1.0
C      1  0.5499230000000  0.4863350000000  0.4511640000000 1.0
C      1  0.5801810000000  0.5299970000000  0.5497610000000 1.0
C      1  0.5400600000000  0.5845680000000  0.4654540000000 1.0
C      1  0.5262770000000  0.4479000000000  0.4291370000000 1.0
C      1  0.5604460000000  0.5805230000000  0.5112400000000 1.0
C      1  0.5073530000000  0.4581680000000  0.4546930000000 1.0
C      1  0.5632010000000  0.5494420000000  0.4381170000000 1.0
C      1  0.4831550000000  0.4511730000000  0.4980100000000 1.0
C      1  0.5009760000000  0.5744520000000  0.5651570000000 1.0
C      1  0.4112390000000  0.5304840000000  0.5094950000000 1.0
C      1  0.4413350000000  0.4750190000000  0.4755760000000 1.0
C      1  0.5086730000000  0.5574980000000  0.4593630000000 1.0
C      1  0.4777800000000  0.4879550000000  0.4846310000000 1.0
C      1  0.4304710000000  0.4275830000000  0.4616810000000 1.0
C      1  0.5028710000000  0.4235160000000  0.4358130000000 1.0
C      1  0.4907650000000  0.5235770000000  0.4959990000000 1.0
C      1  0.4561110000000  0.4944250000000  0.5100720000000 1.0
C      1  0.4729350000000  0.5640680000000  0.5803140000000 1.0
C      1  0.5337180000000  0.5976800000000  0.5102190000000 1.0
C      1  0.3972610000000  0.5006240000000  0.5011470000000 1.0
C      1  0.4844660000000  0.4152150000000  0.4633920000000 1.0
C      1  0.5312940000000  0.4239260000000  0.4529360000000 1.0
C      1  0.5450200000000  0.4174010000000  0.5256320000000 1.0
C      1  0.5220150000000  0.4989850000000  0.4779130000000 1.0
C      1  0.4363980000000  0.4699560000000  0.4363110000000 1.0
C      1  0.4692840000000  0.4097880000000  0.4862360000000 1.0
C      1  0.5792760000000  0.5585520000000  0.4666660000000 1.0
C      1  0.4662880000000  0.5471830000000  0.4969570000000 1.0
C      1  0.4611730000000  0.4223820000000  0.5814000000000 1.0
C      1  0.4250220000000  0.5731840000000  0.5284870000000 1.0
C      1  0.5487300000000  0.4329230000000  0.4805010000000 1.0
C      1  0.5336240000000  0.5335650000000  0.4354670000000 1.0
C      1  0.4677340000000  0.4205790000000  0.5345040000000 1.0
C      1  0.4490420000000  0.4528080000000  0.5005480000000 1.0
C      1  0.5780280000000  0.5544730000000  0.5358720000000 1.0
C      1  0.4432910000000  0.4436630000000  0.4419460000000 1.0
C      1  0.4740950000000  0.4391920000000  0.4432620000000 1.0
C      1  0.5356540000000  0.5308320000000  0.5297660000000 1.0
C      1  0.5646700000000  0.5248090000000  0.5740070000000 1.0
C      1  0.4576730000000  0.5366690000000  0.5870000000000 1.0
C      1  0.5079090000000  0.4523220000000  0.5892080000000 1.0
C      1  0.5056910000000  0.4772980000000  0.4978670000000 1.0
C      1  0.5604690000000  0.4339950000000  0.5084710000000 1.0
C      1  0.4887650000000  0.4839600000000  0.4433170000000 1.0
C      1  0.5839070000000  0.4839930000000  0.4527510000000 1.0
C      1  0.4541150000000  0.4909980000000  0.5420950000000 1.0
C      1  0.5305260000000  0.5599860000000  0.5611990000000 1.0
C      1  0.4695670000000  0.5062290000000  0.5868090000000 1.0
C      1  0.5237800000000  0.4923110000000  0.5523450000000 1.0
C      1  0.4792940000000  0.4051720000000  0.5125960000000 1.0
C      1  0.4184200000000  0.5154480000000  0.4436920000000 1.0
C      1  0.4853180000000  0.5539940000000  0.4271650000000 1.0
C      1  0.5182900000000  0.4543520000000  0.5420160000000 1.0
C      1  0.5000250000000  0.3956770000000  0.5546100000000 1.0
C      1  0.5242580000000  0.4796730000000  0.5217810000000 1.0
C      1  0.5396310000000  0.5378740000000  0.5798900000000 1.0
C      1  0.5477190000000  0.5618730000000  0.5348200000000 1.0
C      1  0.5164550000000  0.5244410000000  0.5905460000000 1.0
C      1  0.5888960000000  0.5618890000000  0.5081440000000 1.0
C      1  0.4056570000000  0.5393830000000  0.4598620000000 1.0
C      1  0.4599350000000  0.4888450000000  0.4311580000000 1.0
C      1  0.4195780000000  0.4684400000000  0.5081140000000 1.0
C      1  0.4309300000000  0.5055910000000  0.4988430000000 1.0
C      1  0.5029840000000  0.3928070000000  0.5248360000000 1.0
C      1  0.6015970000000  0.5112240000000  0.5066960000000 1.0
C      1  0.4141190000000  0.4844430000000  0.4480830000000 1.0
C      1  0.4636420000000  0.4523990000000  0.5408070000000 1.0
C      1  0.4590000000000  0.5415520000000  0.5473820000000 1.0
C      1  0.5805530000000  0.5068310000000  0.5295210000000 1.0
C      1  0.5005590000000  0.5275360000000  0.4342920000000 1.0
C      1  0.4585630000000  0.5488950000000  0.4405550000000 1.0
C      1  0.5126110000000  0.5686350000000  0.4290800000000 1.0
C      1  0.5245360000000  0.5288800000000  0.4660450000000 1.0
END
