TITL C-2778434-4341-886 -0.00544944974649498 125000 -349.483022789094 0 0 60 (C1) n - 1
REM
REM in /home/nfs/bkarasulu/CARBON/AIRSS/Generating-Clusters/REBO/Only-C1/SD-CG/HFTN-CG
REM
REM
REM
REM
REM
REM ./C.cell (11c1c37f851c82e70ff6c80c92926a4b)
REM
REM compiler GCC version 9.2.1 20190827 (Red Hat 9.2.1-1)
REM options -cpp -mtune=generic -march=x86-64 -g -O0 -fpre-include=/usr/include/finclude/math-vector-fortran.h
REM seed -1125718498 -1236401159 -1824233459 262890606 -204563858 -940654110 1956348963 -812888310 -420134170 2006599504 923668813 -1694550321 -887262072 658270631 -184321435 752824488 -894955975 -1218139559 1965369566 534656973 -201667811 -548532832 -420253375 -710129792 -34494783 -677330869 -45107623 515580858 -124601470 -520617507 18347236 710128076 -1157899813
REM
CELL 1.54180   50.00000   50.00000   50.00000   90.00000   90.00000   90.00000
LATT -1
SFAC C  
C      1  0.4526790000000  0.4598460000000  0.5396870000000 1.0
C      1  0.5199480000000  0.5470140000000  0.5499740000000 1.0
C      1  0.4983720000000  0.4755160000000  0.4555910000000 1.0
C      1  0.4683910000000  0.4779920000000  0.5852070000000 1.0
C      1  0.4677490000000  0.4677220000000  0.4942600000000 1.0
C      1  0.4932930000000  0.5576980000000  0.5504470000000 1.0
C      1  0.5444000000000  0.5540630000000  0.5020370000000 1.0
C      1  0.4865930000000  0.4568480000000  0.5433300000000 1.0
C      1  0.5265970000000  0.4430090000000  0.5218470000000 1.0
C      1  0.5565840000000  0.5394140000000  0.4536900000000 1.0
C      1  0.5217060000000  0.5566530000000  0.4844490000000 1.0
C      1  0.5454570000000  0.4932490000000  0.5370420000000 1.0
C      1  0.4486700000000  0.5341140000000  0.4803440000000 1.0
C      1  0.4495640000000  0.4817530000000  0.4439630000000 1.0
C      1  0.4216560000000  0.4822720000000  0.4423130000000 1.0
C      1  0.4982370000000  0.4336790000000  0.4826980000000 1.0
C      1  0.4747700000000  0.5672670000000  0.5015650000000 1.0
C      1  0.4629270000000  0.4583490000000  0.4298110000000 1.0
C      1  0.4911990000000  0.5058000000000  0.4693270000000 1.0
C      1  0.4519380000000  0.5501430000000  0.5047680000000 1.0
C      1  0.5605470000000  0.4902010000000  0.5090470000000 1.0
C      1  0.5585190000000  0.4635610000000  0.4592220000000 1.0
C      1  0.4867980000000  0.4906940000000  0.4326100000000 1.0
C      1  0.4755120000000  0.5109690000000  0.5171490000000 1.0
C      1  0.4419220000000  0.5070890000000  0.4860390000000 1.0
C      1  0.5640160000000  0.5397350000000  0.4870970000000 1.0
C      1  0.4655640000000  0.5111120000000  0.4391270000000 1.0
C      1  0.5140650000000  0.4240180000000  0.5046520000000 1.0
C      1  0.4682070000000  0.5437640000000  0.5525040000000 1.0
C      1  0.5254070000000  0.5444040000000  0.4590500000000 1.0
C      1  0.5011330000000  0.5007400000000  0.5538230000000 1.0
C      1  0.4625440000000  0.4888970000000  0.4722260000000 1.0
C      1  0.5374870000000  0.4598770000000  0.4771150000000 1.0
C      1  0.4654750000000  0.4557180000000  0.5684550000000 1.0
C      1  0.5700870000000  0.5096450000000  0.4919690000000 1.0
C      1  0.4668380000000  0.5350320000000  0.4574830000000 1.0
C      1  0.5157420000000  0.4510160000000  0.5466710000000 1.0
C      1  0.4659700000000  0.5263050000000  0.5749210000000 1.0
C      1  0.5689730000000  0.5103140000000  0.4611510000000 1.0
C      1  0.4741300000000  0.4387290000000  0.4179460000000 1.0
C      1  0.5594080000000  0.5142860000000  0.5500860000000 1.0
C      1  0.5136870000000  0.4852170000000  0.5262130000000 1.0
C      1  0.5367260000000  0.4689190000000  0.5065360000000 1.0
C      1  0.5704250000000  0.4855760000000  0.4484660000000 1.0
C      1  0.4996350000000  0.5300480000000  0.4480970000000 1.0
C      1  0.5681700000000  0.5534890000000  0.4328910000000 1.0
C      1  0.4790970000000  0.5011450000000  0.5729230000000 1.0
C      1  0.5343870000000  0.4962080000000  0.5753410000000 1.0
C      1  0.5384750000000  0.5543620000000  0.5297160000000 1.0
C      1  0.4969200000000  0.5503510000000  0.4959220000000 1.0
C      1  0.5223340000000  0.5215480000000  0.5629510000000 1.0
C      1  0.4716410000000  0.4414580000000  0.4884960000000 1.0
C      1  0.4911270000000  0.5218250000000  0.4960090000000 1.0
C      1  0.5017670000000  0.5255780000000  0.4203270000000 1.0
C      1  0.4582090000000  0.5320840000000  0.5276930000000 1.0
C      1  0.4350900000000  0.4747150000000  0.5250840000000 1.0
C      1  0.4291400000000  0.4944120000000  0.5074640000000 1.0
C      1  0.4806630000000  0.4800630000000  0.5195000000000 1.0
C      1  0.5118450000000  0.4535740000000  0.4668290000000 1.0
C      1  0.5315860000000  0.4709250000000  0.5588460000000 1.0
END
