TITL C-2778428-5639-747 0.00681864604772881 125000 -318.405159544475 0 0 55 (C1) n - 1
REM
REM in /home/nfs/bkarasulu/CARBON/AIRSS/Generating-Clusters/REBO/Only-C1/SD-CG/HFTN-CG
REM
REM
REM
REM
REM
REM ./C.cell (11c1c37f851c82e70ff6c80c92926a4b)
REM
REM compiler GCC version 9.2.1 20190827 (Red Hat 9.2.1-1)
REM options -cpp -mtune=generic -march=x86-64 -g -O0 -fpre-include=/usr/include/finclude/math-vector-fortran.h
REM seed -392929046 -1159251086 -1137856771 1598987723 1693252557 15976766 1757907737 -78206243 682213886 -1530393289 -841307142 1614791589 -752565059 -553402457 618517075 774539595 1906763171 -704445479 -1898019198 144309654 859807952 373891949 1494204697 -411190659 -1716042289 859821460 50278782 -1094329125 -474880864 1349668587 1132848420 -1823612741 544698685
REM
CELL 1.54180   50.00000   50.00000   50.00000   90.00000   90.00000   90.00000
LATT -1
SFAC C  
C      1  0.5459720000000  0.4593730000000  0.5445760000000 1.0
C      1  0.4898030000000  0.5674110000000  0.4841090000000 1.0
C      1  0.4820670000000  0.5326450000000  0.5570920000000 1.0
C      1  0.4766390000000  0.5442330000000  0.5265020000000 1.0
C      1  0.5132240000000  0.5408210000000  0.5511470000000 1.0
C      1  0.4922230000000  0.5203560000000  0.4907600000000 1.0
C      1  0.4785490000000  0.5211960000000  0.4242450000000 1.0
C      1  0.4711820000000  0.5531510000000  0.4690220000000 1.0
C      1  0.4450610000000  0.5358860000000  0.4731420000000 1.0
C      1  0.5099260000000  0.4860610000000  0.4465060000000 1.0
C      1  0.5159750000000  0.5685640000000  0.4731000000000 1.0
C      1  0.4883250000000  0.5017450000000  0.5608340000000 1.0
C      1  0.5549420000000  0.4615190000000  0.5131670000000 1.0
C      1  0.4486330000000  0.5340490000000  0.5528740000000 1.0
C      1  0.5199410000000  0.4652510000000  0.5553100000000 1.0
C      1  0.4337410000000  0.5276120000000  0.4966550000000 1.0
C      1  0.5593160000000  0.5156170000000  0.5343620000000 1.0
C      1  0.4475960000000  0.5003160000000  0.5106030000000 1.0
C      1  0.4676260000000  0.4566310000000  0.5495100000000 1.0
C      1  0.4466310000000  0.4430300000000  0.4393900000000 1.0
C      1  0.4906720000000  0.4822640000000  0.5132350000000 1.0
C      1  0.4482690000000  0.4477080000000  0.5290990000000 1.0
C      1  0.4972610000000  0.4503850000000  0.5431610000000 1.0
C      1  0.4951420000000  0.4999180000000  0.4191280000000 1.0
C      1  0.5125350000000  0.5376900000000  0.4982400000000 1.0
C      1  0.5360400000000  0.5533290000000  0.4629600000000 1.0
C      1  0.5414800000000  0.5511230000000  0.5046950000000 1.0
C      1  0.5124510000000  0.4411410000000  0.4679870000000 1.0
C      1  0.4713850000000  0.5226350000000  0.5089640000000 1.0
C      1  0.4839220000000  0.5679780000000  0.5123920000000 1.0
C      1  0.5336170000000  0.4947710000000  0.5312310000000 1.0
C      1  0.4888720000000  0.4508030000000  0.4871490000000 1.0
C      1  0.5217980000000  0.4305540000000  0.4966440000000 1.0
C      1  0.4423090000000  0.4447440000000  0.4983090000000 1.0
C      1  0.4372370000000  0.5267860000000  0.5293490000000 1.0
C      1  0.5597280000000  0.5210310000000  0.4347260000000 1.0
C      1  0.5298860000000  0.4684960000000  0.4627660000000 1.0
C      1  0.5334940000000  0.4910800000000  0.4850970000000 1.0
C      1  0.5504850000000  0.5292010000000  0.4589340000000 1.0
C      1  0.4665310000000  0.4604210000000  0.4449510000000 1.0
C      1  0.5597290000000  0.5286760000000  0.5065080000000 1.0
C      1  0.5427550000000  0.4526340000000  0.4905460000000 1.0
C      1  0.4702440000000  0.5235730000000  0.4538230000000 1.0
C      1  0.5148810000000  0.4924570000000  0.5662030000000 1.0
C      1  0.4739950000000  0.4704700000000  0.4714700000000 1.0
C      1  0.5528380000000  0.5124390000000  0.4828830000000 1.0
C      1  0.4867480000000  0.4702520000000  0.4271990000000 1.0
C      1  0.5674010000000  0.4838470000000  0.5346680000000 1.0
C      1  0.4584280000000  0.4731330000000  0.5080330000000 1.0
C      1  0.5329370000000  0.5176970000000  0.5561040000000 1.0
C      1  0.4768060000000  0.4846390000000  0.5414870000000 1.0
C      1  0.5171710000000  0.4886010000000  0.5082060000000 1.0
C      1  0.5182930000000  0.5536590000000  0.5266770000000 1.0
C      1  0.4874480000000  0.5000290000000  0.4679230000000 1.0
C      1  0.4998420000000  0.4403710000000  0.5163440000000 1.0
END
