TITL C-2778428-5639-1435 0.00274266100519473 125000 -354.891976345709 0 0 60 (C1) n - 1
REM
REM in /home/nfs/bkarasulu/CARBON/AIRSS/Generating-Clusters/REBO/Only-C1/SD-CG/HFTN-CG
REM
REM
REM
REM
REM
REM ./C.cell (11c1c37f851c82e70ff6c80c92926a4b)
REM
REM compiler GCC version 9.2.1 20190827 (Red Hat 9.2.1-1)
REM options -cpp -mtune=generic -march=x86-64 -g -O0 -fpre-include=/usr/include/finclude/math-vector-fortran.h
REM seed 818413508 -85649271 -356992441 -364884100 1403404011 -678542688 -436428826 1246193191 526198509 -1322109164 1838572342 -307652404 1611539566 -820483497 -166221464 -801890673 2126242001 2019155411 1905779173 -1983937654 32270619 -1981311191 -1719497403 74408319 1188463629 -795815203 569683205 701615082 -227031975 1936819319 856746956 1924002809 -261267183
REM
CELL 1.54180   50.00000   50.00000   50.00000   90.00000   90.00000   90.00000
LATT -1
SFAC C  
C      1  0.4694890000000  0.5300770000000  0.4682280000000 1.0
C      1  0.4589260000000  0.5041490000000  0.4373390000000 1.0
C      1  0.4721730000000  0.4973800000000  0.5027450000000 1.0
C      1  0.5384830000000  0.4943410000000  0.5661240000000 1.0
C      1  0.4662390000000  0.5106130000000  0.5504370000000 1.0
C      1  0.5599320000000  0.4882030000000  0.4700590000000 1.0
C      1  0.4882400000000  0.4313160000000  0.5127290000000 1.0
C      1  0.5583510000000  0.4687650000000  0.5662630000000 1.0
C      1  0.4562570000000  0.5361420000000  0.5515120000000 1.0
C      1  0.5479580000000  0.4466390000000  0.5534800000000 1.0
C      1  0.4970940000000  0.4620640000000  0.5520910000000 1.0
C      1  0.5914420000000  0.5192250000000  0.4947500000000 1.0
C      1  0.5423720000000  0.5076480000000  0.4259240000000 1.0
C      1  0.4199660000000  0.5119230000000  0.4662230000000 1.0
C      1  0.5330580000000  0.4703450000000  0.4718900000000 1.0
C      1  0.5395550000000  0.4759270000000  0.5160550000000 1.0
C      1  0.5288260000000  0.4394990000000  0.4843360000000 1.0
C      1  0.5375260000000  0.5269220000000  0.5634880000000 1.0
C      1  0.4267360000000  0.4829520000000  0.5248260000000 1.0
C      1  0.4774750000000  0.4487160000000  0.5359650000000 1.0
C      1  0.4632440000000  0.5378690000000  0.4357080000000 1.0
C      1  0.4718210000000  0.5023540000000  0.4750970000000 1.0
C      1  0.4388150000000  0.5475520000000  0.4932370000000 1.0
C      1  0.4218030000000  0.5232270000000  0.4924950000000 1.0
C      1  0.4978320000000  0.5073310000000  0.5164530000000 1.0
C      1  0.4385250000000  0.4675130000000  0.4617130000000 1.0
C      1  0.5101430000000  0.4852420000000  0.5580670000000 1.0
C      1  0.5933650000000  0.5382280000000  0.5143730000000 1.0
C      1  0.5653770000000  0.5233980000000  0.5537430000000 1.0
C      1  0.4706640000000  0.5544080000000  0.5347710000000 1.0
C      1  0.5202910000000  0.4335600000000  0.5110930000000 1.0
C      1  0.5121200000000  0.5353410000000  0.5541390000000 1.0
C      1  0.5207510000000  0.5017500000000  0.4690010000000 1.0
C      1  0.5155330000000  0.5067560000000  0.4387890000000 1.0
C      1  0.5042610000000  0.4519630000000  0.4700180000000 1.0
C      1  0.4557800000000  0.4513290000000  0.4747230000000 1.0
C      1  0.4793500000000  0.4044950000000  0.5144650000000 1.0
C      1  0.4597730000000  0.5648000000000  0.4511520000000 1.0
C      1  0.4565680000000  0.4928220000000  0.5283490000000 1.0
C      1  0.4875210000000  0.4904630000000  0.4498830000000 1.0
C      1  0.4129000000000  0.5047420000000  0.5128400000000 1.0
C      1  0.4897000000000  0.5484550000000  0.4865440000000 1.0
C      1  0.4372890000000  0.5638760000000  0.4690730000000 1.0
C      1  0.5340570000000  0.4508300000000  0.5289100000000 1.0
C      1  0.4646940000000  0.5514530000000  0.5070750000000 1.0
C      1  0.5656250000000  0.4863930000000  0.5185230000000 1.0
C      1  0.5627250000000  0.5000110000000  0.4442640000000 1.0
C      1  0.5461970000000  0.5150020000000  0.3996690000000 1.0
C      1  0.5695930000000  0.4931950000000  0.5475880000000 1.0
C      1  0.4353300000000  0.4935330000000  0.4515070000000 1.0
C      1  0.4967950000000  0.5098780000000  0.5463460000000 1.0
C      1  0.4978350000000  0.5582100000000  0.5444300000000 1.0
C      1  0.5096640000000  0.5251190000000  0.4912480000000 1.0
C      1  0.4809940000000  0.4448660000000  0.4844560000000 1.0
C      1  0.5746980000000  0.4963670000000  0.4933610000000 1.0
C      1  0.4878810000000  0.5173560000000  0.4248650000000 1.0
C      1  0.4519790000000  0.4614320000000  0.5326500000000 1.0
C      1  0.5818710000000  0.5407400000000  0.5390690000000 1.0
C      1  0.4838410000000  0.5706440000000  0.4641140000000 1.0
C      1  0.5226970000000  0.4946490000000  0.5017350000000 1.0
END
