TITL C-2778428-5639-696 -0.0863389077783672 125000 -347.358699758454 0 0 61 (C1) n - 1
REM
REM in /home/nfs/bkarasulu/CARBON/AIRSS/Generating-Clusters/REBO/Only-C1/SD-CG/HFTN-CG
REM
REM
REM
REM
REM
REM ./C.cell (11c1c37f851c82e70ff6c80c92926a4b)
REM
REM compiler GCC version 9.2.1 20190827 (Red Hat 9.2.1-1)
REM options -cpp -mtune=generic -march=x86-64 -g -O0 -fpre-include=/usr/include/finclude/math-vector-fortran.h
REM seed -1749000658 1179294686 2122904298 -161184188 1537714706 -1692275590 2104563488 -766093361 -1367435957 -62876824 1268909926 827364986 1609655364 88964986 -1533113595 -1803364822 -1209112567 -1649641871 1684546737 492503680 172900262 952963679 -90731488 -1382272995 1532011474 -1248059286 1961325480 353160619 -1150844279 1747147116 1386770175 -532297985 -609999142
REM
CELL 1.54180   50.00000   50.00000   50.00000   90.00000   90.00000   90.00000
LATT -1
SFAC C  
C      1  0.5024770000000  0.5273210000000  0.5388590000000 1.0
C      1  0.5265080000000  0.5240200000000  0.4593220000000 1.0
C      1  0.4212300000000  0.4542650000000  0.5149910000000 1.0
C      1  0.5207720000000  0.4880240000000  0.5381870000000 1.0
C      1  0.5824360000000  0.5138690000000  0.5048320000000 1.0
C      1  0.5382290000000  0.4808800000000  0.5029150000000 1.0
C      1  0.4849210000000  0.4646250000000  0.4406430000000 1.0
C      1  0.5039090000000  0.5070440000000  0.4173650000000 1.0
C      1  0.4842560000000  0.5022210000000  0.5315750000000 1.0
C      1  0.4346250000000  0.4675210000000  0.4512170000000 1.0
C      1  0.5396420000000  0.4541200000000  0.4734780000000 1.0
C      1  0.5514000000000  0.5122190000000  0.4671670000000 1.0
C      1  0.4998840000000  0.5053490000000  0.4822840000000 1.0
C      1  0.5521320000000  0.5516820000000  0.4946940000000 1.0
C      1  0.5367070000000  0.5606270000000  0.4470940000000 1.0
C      1  0.5129280000000  0.5345350000000  0.4875050000000 1.0
C      1  0.4600510000000  0.4891620000000  0.5733900000000 1.0
C      1  0.5472460000000  0.4578590000000  0.5435320000000 1.0
C      1  0.5523210000000  0.5475910000000  0.5477810000000 1.0
C      1  0.5833800000000  0.4766300000000  0.4731870000000 1.0
C      1  0.5799080000000  0.4921320000000  0.5216140000000 1.0
C      1  0.5137710000000  0.4533510000000  0.4808420000000 1.0
C      1  0.5170290000000  0.5857690000000  0.4817860000000 1.0
C      1  0.5662350000000  0.5282700000000  0.4862130000000 1.0
C      1  0.5165900000000  0.4485920000000  0.5428110000000 1.0
C      1  0.5064880000000  0.5334880000000  0.5655670000000 1.0
C      1  0.4271550000000  0.4827230000000  0.4743100000000 1.0
C      1  0.5334820000000  0.5030950000000  0.5639940000000 1.0
C      1  0.4645130000000  0.5444990000000  0.4771690000000 1.0
C      1  0.4437210000000  0.4414530000000  0.4595110000000 1.0
C      1  0.5418600000000  0.5507900000000  0.5218440000000 1.0
C      1  0.4598630000000  0.5117370000000  0.4347630000000 1.0
C      1  0.4469620000000  0.5694450000000  0.5325540000000 1.0
C      1  0.4713960000000  0.4818720000000  0.5492890000000 1.0
C      1  0.4432300000000  0.4480280000000  0.5294970000000 1.0
C      1  0.5072700000000  0.5254300000000  0.4388360000000 1.0
C      1  0.4740810000000  0.4372380000000  0.4510880000000 1.0
C      1  0.4938660000000  0.4447310000000  0.5274530000000 1.0
C      1  0.4657820000000  0.5266900000000  0.5230290000000 1.0
C      1  0.4509060000000  0.4969890000000  0.4856740000000 1.0
C      1  0.4119470000000  0.4691730000000  0.4940790000000 1.0
C      1  0.4856980000000  0.4870360000000  0.4168410000000 1.0
C      1  0.5102830000000  0.5393230000000  0.5908330000000 1.0
C      1  0.4569520000000  0.5262860000000  0.4965550000000 1.0
C      1  0.4558220000000  0.4800140000000  0.4320930000000 1.0
C      1  0.4949180000000  0.4419090000000  0.4993170000000 1.0
C      1  0.4690610000000  0.4556130000000  0.5379480000000 1.0
C      1  0.5056840000000  0.4887790000000  0.5088530000000 1.0
C      1  0.4735310000000  0.5073470000000  0.4656080000000 1.0
C      1  0.4682580000000  0.5451000000000  0.5671720000000 1.0
C      1  0.5555310000000  0.4823930000000  0.4740450000000 1.0
C      1  0.5568300000000  0.4756080000000  0.5239860000000 1.0
C      1  0.5292080000000  0.5614160000000  0.4741880000000 1.0
C      1  0.4974860000000  0.4753780000000  0.4664050000000 1.0
C      1  0.4673250000000  0.4429750000000  0.4839750000000 1.0
C      1  0.4783800000000  0.5362270000000  0.4483330000000 1.0
C      1  0.4746950000000  0.4755400000000  0.4909250000000 1.0
C      1  0.5266470000000  0.4704130000000  0.5670340000000 1.0
C      1  0.5461430000000  0.5273450000000  0.5650710000000 1.0
C      1  0.4604750000000  0.5473450000000  0.5411440000000 1.0
C      1  0.5159630000000  0.5388980000000  0.5177340000000 1.0
END
