TITL C-2778428-5639-1113 -0.00163626734780397 125000 -1098.52818525331 0 0 189 (C1) n - 1
REM
REM in /home/nfs/bkarasulu/CARBON/AIRSS/Generating-Clusters/REBO/Only-C1/SD-CG/HFTN-CG
REM
REM
REM
REM
REM
REM ./C.cell (11c1c37f851c82e70ff6c80c92926a4b)
REM
REM compiler GCC version 9.2.1 20190827 (Red Hat 9.2.1-1)
REM options -cpp -mtune=generic -march=x86-64 -g -O0 -fpre-include=/usr/include/finclude/math-vector-fortran.h
REM seed 468987994 -1056656225 -1145373349 1036026899 999444110 110056700 653927994 439334960 687538321 1629781836 915880959 -1531531623 -290275126 -1974001709 -1370968924 1265224805 -2025798886 -316295506 1965219380 185490850 930018985 -1417619088 1515302740 788475749 1414278957 -1876930952 1819534008 -1676113028 1914852851 -1948783761 -818194323 1639412971 -1648877239
REM
CELL 1.54180   50.00000   50.00000   50.00000   90.00000   90.00000   90.00000
LATT -1
SFAC C  
C      1  0.5506230000000  0.5508230000000  0.4339620000000 1.0
C      1  0.5532820000000  0.4566670000000  0.4822440000000 1.0
C      1  0.4889760000000  0.4148250000000  0.5835840000000 1.0
C      1  0.5134020000000  0.4962300000000  0.4065230000000 1.0
C      1  0.5715670000000  0.5426790000000  0.4595230000000 1.0
C      1  0.4983370000000  0.5161220000000  0.4608240000000 1.0
C      1  0.4390970000000  0.4164110000000  0.4772540000000 1.0
C      1  0.5332980000000  0.4202630000000  0.4805810000000 1.0
C      1  0.6069810000000  0.5315050000000  0.5260960000000 1.0
C      1  0.4338390000000  0.5569540000000  0.4619990000000 1.0
C      1  0.5187750000000  0.4705340000000  0.4178450000000 1.0
C      1  0.4068770000000  0.4279960000000  0.4794020000000 1.0
C      1  0.4817720000000  0.4634720000000  0.5602180000000 1.0
C      1  0.4919170000000  0.4216150000000  0.5158420000000 1.0
C      1  0.4728970000000  0.5211590000000  0.4328530000000 1.0
C      1  0.5202240000000  0.4508850000000  0.4757010000000 1.0
C      1  0.5189150000000  0.4764430000000  0.5666690000000 1.0
C      1  0.4875340000000  0.4505110000000  0.3995630000000 1.0
C      1  0.6058580000000  0.4530000000000  0.4846720000000 1.0
C      1  0.5492380000000  0.4816240000000  0.5676600000000 1.0
C      1  0.4486660000000  0.6015480000000  0.4446100000000 1.0
C      1  0.5677900000000  0.4037640000000  0.4920750000000 1.0
C      1  0.5158570000000  0.4273390000000  0.5363470000000 1.0
C      1  0.5834120000000  0.4932990000000  0.5112460000000 1.0
C      1  0.5799100000000  0.5182480000000  0.4407400000000 1.0
C      1  0.4122670000000  0.4930170000000  0.5633030000000 1.0
C      1  0.5164760000000  0.4705820000000  0.4510290000000 1.0
C      1  0.3842380000000  0.5036640000000  0.4867960000000 1.0
C      1  0.5528550000000  0.3975210000000  0.5157040000000 1.0
C      1  0.5622690000000  0.4233330000000  0.4382270000000 1.0
C      1  0.5359290000000  0.4332120000000  0.5094610000000 1.0
C      1  0.5078140000000  0.5757700000000  0.5387110000000 1.0
C      1  0.5518730000000  0.5244890000000  0.5269020000000 1.0
C      1  0.4305030000000  0.4574320000000  0.5513050000000 1.0
C      1  0.5763080000000  0.4496110000000  0.4383630000000 1.0
C      1  0.4490930000000  0.5799160000000  0.4781840000000 1.0
C      1  0.4940990000000  0.5551240000000  0.4044070000000 1.0
C      1  0.5604540000000  0.4160890000000  0.5431780000000 1.0
C      1  0.4831370000000  0.5355210000000  0.5083770000000 1.0
C      1  0.4192740000000  0.5776470000000  0.5192230000000 1.0
C      1  0.4201140000000  0.4260900000000  0.5109650000000 1.0
C      1  0.5494720000000  0.5126310000000  0.4738080000000 1.0
C      1  0.5467370000000  0.5520670000000  0.5088000000000 1.0
C      1  0.5680140000000  0.4630480000000  0.5887940000000 1.0
C      1  0.5320480000000  0.5181370000000  0.4129110000000 1.0
C      1  0.5230570000000  0.5574910000000  0.4889930000000 1.0
C      1  0.5465850000000  0.5126350000000  0.6019920000000 1.0
C      1  0.5200440000000  0.4600760000000  0.5145030000000 1.0
C      1  0.5586480000000  0.4678960000000  0.4237040000000 1.0
C      1  0.4434550000000  0.5544340000000  0.5649560000000 1.0
C      1  0.5046950000000  0.5744640000000  0.5727650000000 1.0
C      1  0.5938530000000  0.4621110000000  0.4563160000000 1.0
C      1  0.5646750000000  0.4456840000000  0.5596570000000 1.0
C      1  0.4956130000000  0.3927390000000  0.5007530000000 1.0
C      1  0.5783680000000  0.4355170000000  0.4856790000000 1.0
C      1  0.5666190000000  0.5345510000000  0.4905880000000 1.0
C      1  0.5852060000000  0.5644900000000  0.5200570000000 1.0
C      1  0.4950030000000  0.6132140000000  0.4998370000000 1.0
C      1  0.4243400000000  0.5099470000000  0.4358040000000 1.0
C      1  0.4437960000000  0.5363830000000  0.5366780000000 1.0
C      1  0.4728800000000  0.4625870000000  0.4657150000000 1.0
C      1  0.4702650000000  0.6216390000000  0.4849270000000 1.0
C      1  0.5441960000000  0.4872620000000  0.4435690000000 1.0
C      1  0.4536720000000  0.5782080000000  0.4289120000000 1.0
C      1  0.5149010000000  0.3968260000000  0.4758600000000 1.0
C      1  0.5723950000000  0.4968210000000  0.5871990000000 1.0
C      1  0.4388990000000  0.5235160000000  0.4832280000000 1.0
C      1  0.5395050000000  0.4240180000000  0.4192860000000 1.0
C      1  0.4580900000000  0.4517390000000  0.5796880000000 1.0
C      1  0.4624830000000  0.3981110000000  0.4941600000000 1.0
C      1  0.5059590000000  0.5312590000000  0.4893480000000 1.0
C      1  0.5565280000000  0.4956080000000  0.5407620000000 1.0
C      1  0.4383640000000  0.5149680000000  0.5624240000000 1.0
C      1  0.4798210000000  0.4750510000000  0.4109830000000 1.0
C      1  0.5322640000000  0.5162910000000  0.4995860000000 1.0
C      1  0.4340440000000  0.4743320000000  0.5812950000000 1.0
C      1  0.4107260000000  0.4791630000000  0.4409760000000 1.0
C      1  0.4806170000000  0.4033320000000  0.4411570000000 1.0
C      1  0.5150710000000  0.4100830000000  0.4228460000000 1.0
C      1  0.4808220000000  0.5686790000000  0.4730010000000 1.0
C      1  0.4524120000000  0.4249820000000  0.4234670000000 1.0
C      1  0.4105760000000  0.5367420000000  0.4516370000000 1.0
C      1  0.4966140000000  0.5308970000000  0.5587530000000 1.0
C      1  0.4943140000000  0.5482640000000  0.5354800000000 1.0
C      1  0.4907130000000  0.4886940000000  0.4414060000000 1.0
C      1  0.3896950000000  0.4841160000000  0.5113250000000 1.0
C      1  0.5258780000000  0.6059300000000  0.5036210000000 1.0
C      1  0.5671580000000  0.5856580000000  0.5086490000000 1.0
C      1  0.4697400000000  0.4900330000000  0.5309750000000 1.0
C      1  0.4161820000000  0.5372520000000  0.4919630000000 1.0
C      1  0.3917870000000  0.5291150000000  0.4777330000000 1.0
C      1  0.4420600000000  0.4706890000000  0.4709340000000 1.0
C      1  0.4681930000000  0.4131560000000  0.5344970000000 1.0
C      1  0.4847530000000  0.4219300000000  0.4127040000000 1.0
C      1  0.5398180000000  0.5772120000000  0.5273130000000 1.0
C      1  0.4702010000000  0.4646200000000  0.5088930000000 1.0
C      1  0.4970100000000  0.4800100000000  0.5037770000000 1.0
C      1  0.5729120000000  0.4669710000000  0.5391850000000 1.0
C      1  0.5223350000000  0.5088700000000  0.5565280000000 1.0
C      1  0.5023880000000  0.4960140000000  0.5335390000000 1.0
C      1  0.4072260000000  0.5216140000000  0.5365330000000 1.0
C      1  0.4388500000000  0.4469670000000  0.4928650000000 1.0
C      1  0.4606130000000  0.5419750000000  0.4761770000000 1.0
C      1  0.4847620000000  0.5720150000000  0.4299980000000 1.0
C      1  0.5092840000000  0.5470680000000  0.5930490000000 1.0
C      1  0.4609290000000  0.4719850000000  0.4358880000000 1.0
C      1  0.4970300000000  0.6072330000000  0.5310100000000 1.0
C      1  0.4760750000000  0.4067260000000  0.5606800000000 1.0
C      1  0.5701740000000  0.5473290000000  0.5444500000000 1.0
C      1  0.4787320000000  0.4155610000000  0.4728440000000 1.0
C      1  0.4194630000000  0.4496000000000  0.4571030000000 1.0
C      1  0.4324380000000  0.5530150000000  0.4296970000000 1.0
C      1  0.5466330000000  0.5212910000000  0.5696480000000 1.0
C      1  0.4807000000000  0.4846210000000  0.5804560000000 1.0
C      1  0.5036130000000  0.5831530000000  0.4888190000000 1.0
C      1  0.4964700000000  0.5963570000000  0.4488020000000 1.0
C      1  0.5107820000000  0.4615320000000  0.5944350000000 1.0
C      1  0.4731890000000  0.4360320000000  0.4481450000000 1.0
C      1  0.6170000000000  0.5318040000000  0.4839980000000 1.0
C      1  0.4114990000000  0.5439980000000  0.5585500000000 1.0
C      1  0.4509460000000  0.5305080000000  0.5883270000000 1.0
C      1  0.5662980000000  0.5193500000000  0.4150630000000 1.0
C      1  0.5002410000000  0.4928720000000  0.4799390000000 1.0
C      1  0.4535210000000  0.5121440000000  0.6128040000000 1.0
C      1  0.4695480000000  0.5930860000000  0.5387370000000 1.0
C      1  0.5553730000000  0.5477130000000  0.4015670000000 1.0
C      1  0.4460500000000  0.5277880000000  0.4165400000000 1.0
C      1  0.6085930000000  0.4826150000000  0.5303120000000 1.0
C      1  0.4433490000000  0.4074040000000  0.5189580000000 1.0
C      1  0.5270750000000  0.3882100000000  0.5128490000000 1.0
C      1  0.5304230000000  0.6083500000000  0.5373430000000 1.0
C      1  0.5431300000000  0.5855560000000  0.4837320000000 1.0
C      1  0.5863250000000  0.5206400000000  0.5070010000000 1.0
C      1  0.4001980000000  0.4564560000000  0.4945310000000 1.0
C      1  0.5675310000000  0.5746660000000  0.4626900000000 1.0
C      1  0.4780470000000  0.5467330000000  0.5825270000000 1.0
C      1  0.4895720000000  0.4435560000000  0.4893410000000 1.0
C      1  0.4878970000000  0.5456410000000  0.4487360000000 1.0
C      1  0.5376140000000  0.5781010000000  0.4364270000000 1.0
C      1  0.4137230000000  0.4635650000000  0.4135390000000 1.0
C      1  0.4180260000000  0.5480860000000  0.5194750000000 1.0
C      1  0.5096210000000  0.3928290000000  0.4483790000000 1.0
C      1  0.6183740000000  0.4806070000000  0.4976850000000 1.0
C      1  0.5941200000000  0.4551430000000  0.5163940000000 1.0
C      1  0.4837050000000  0.5057580000000  0.4051740000000 1.0
C      1  0.5523850000000  0.5674940000000  0.5639780000000 1.0
C      1  0.6089560000000  0.5533960000000  0.5036230000000 1.0
C      1  0.5597350000000  0.4736040000000  0.5076500000000 1.0
C      1  0.4385060000000  0.4764050000000  0.5100820000000 1.0
C      1  0.4574580000000  0.6122460000000  0.5129390000000 1.0
C      1  0.4104550000000  0.4538120000000  0.5270160000000 1.0
C      1  0.4299210000000  0.5019940000000  0.5220710000000 1.0
C      1  0.5337070000000  0.4212290000000  0.5616410000000 1.0
C      1  0.6050910000000  0.5106290000000  0.5463310000000 1.0
C      1  0.5163600000000  0.5165850000000  0.6071320000000 1.0
C      1  0.5389480000000  0.4461500000000  0.5829980000000 1.0
C      1  0.5326120000000  0.4906820000000  0.5181020000000 1.0
C      1  0.6128610000000  0.5037070000000  0.4800320000000 1.0
C      1  0.4727470000000  0.5356880000000  0.3963680000000 1.0
C      1  0.4601880000000  0.5175780000000  0.5174870000000 1.0
C      1  0.4863010000000  0.4409100000000  0.5924260000000 1.0
C      1  0.5666710000000  0.4348880000000  0.5168760000000 1.0
C      1  0.4412020000000  0.4294850000000  0.5617140000000 1.0
C      1  0.5387780000000  0.5483180000000  0.5806250000000 1.0
C      1  0.3996810000000  0.4826610000000  0.5400380000000 1.0
C      1  0.4038480000000  0.4818740000000  0.4742360000000 1.0
C      1  0.4466310000000  0.5828880000000  0.5079170000000 1.0
C      1  0.4687580000000  0.5639300000000  0.5210240000000 1.0
C      1  0.5582320000000  0.4102940000000  0.4626230000000 1.0
C      1  0.4012640000000  0.5950160000000  0.5268540000000 1.0
C      1  0.4726620000000  0.6116880000000  0.4576530000000 1.0
C      1  0.5387770000000  0.4511350000000  0.4080780000000 1.0
C      1  0.4252950000000  0.5994100000000  0.4632410000000 1.0
C      1  0.4711850000000  0.5745040000000  0.5645190000000 1.0
C      1  0.5633640000000  0.4843680000000  0.4693240000000 1.0
C      1  0.4325050000000  0.4996390000000  0.4671160000000 1.0
C      1  0.5240080000000  0.5921370000000  0.4557510000000 1.0
C      1  0.4384640000000  0.4527800000000  0.4296020000000 1.0
C      1  0.4938800000000  0.5106970000000  0.5838640000000 1.0
C      1  0.5338670000000  0.5903560000000  0.5645400000000 1.0
C      1  0.4497880000000  0.4855470000000  0.5526060000000 1.0
C      1  0.5927740000000  0.4947000000000  0.4581610000000 1.0
C      1  0.4719120000000  0.4905820000000  0.6110310000000 1.0
C      1  0.5798370000000  0.5194230000000  0.5624970000000 1.0
C      1  0.4422540000000  0.4107110000000  0.4487820000000 1.0
C      1  0.5068820000000  0.4577670000000  0.5442550000000 1.0
C      1  0.5214680000000  0.5475820000000  0.4011020000000 1.0
C      1  0.5026290000000  0.4861290000000  0.6136750000000 1.0
C      1  0.5401800000000  0.5210310000000  0.4451370000000 1.0
END
