TITL C-2778437-8639-750 0.00300734644382855 125000 -869.024132800171 0 0 149 (C1) n - 1
REM
REM in /home/nfs/bkarasulu/CARBON/AIRSS/Generating-Clusters/REBO/Only-C1/SD-CG/HFTN-CG
REM
REM
REM
REM
REM
REM ./C.cell (11c1c37f851c82e70ff6c80c92926a4b)
REM
REM compiler GCC version 9.2.1 20190827 (Red Hat 9.2.1-1)
REM options -cpp -mtune=generic -march=x86-64 -g -O0 -fpre-include=/usr/include/finclude/math-vector-fortran.h
REM seed 1749741252 618037768 1967597543 1442757363 -959405193 1614829448 59156322 1607249276 -1835756501 1344562190 1597635091 -616112932 1608912659 458764949 1923949565 187367135 -115462639 -479817694 1115875873 -332183960 1937603684 -1395796999 1076830819 1566470960 -736453786 2077035502 -59863565 1477278530 273826841 -1613849179 21590621 -455330326 99818844
REM
CELL 1.54180   50.00000   50.00000   50.00000   90.00000   90.00000   90.00000
LATT -1
SFAC C  
C      1  0.5725440000000  0.4894050000000  0.4664220000000 1.0
C      1  0.4122190000000  0.5280840000000  0.4934620000000 1.0
C      1  0.5483550000000  0.5961200000000  0.4900580000000 1.0
C      1  0.5640930000000  0.4531870000000  0.5305610000000 1.0
C      1  0.5397110000000  0.4262790000000  0.4292090000000 1.0
C      1  0.4927750000000  0.4759740000000  0.6006790000000 1.0
C      1  0.5244900000000  0.5239230000000  0.5568810000000 1.0
C      1  0.4454630000000  0.4159090000000  0.5133960000000 1.0
C      1  0.4866080000000  0.4493630000000  0.5810870000000 1.0
C      1  0.4401940000000  0.4585490000000  0.5384270000000 1.0
C      1  0.5954280000000  0.4627230000000  0.4969080000000 1.0
C      1  0.5444960000000  0.4760060000000  0.5757560000000 1.0
C      1  0.5793830000000  0.5207730000000  0.5447620000000 1.0
C      1  0.4467040000000  0.5305340000000  0.4979890000000 1.0
C      1  0.4920040000000  0.4246550000000  0.4663580000000 1.0
C      1  0.4231440000000  0.4356190000000  0.4204880000000 1.0
C      1  0.5545580000000  0.4670490000000  0.4584010000000 1.0
C      1  0.4936300000000  0.5748550000000  0.4889710000000 1.0
C      1  0.5942570000000  0.4806010000000  0.5194250000000 1.0
C      1  0.4308990000000  0.5920900000000  0.5025900000000 1.0
C      1  0.4929630000000  0.4784370000000  0.5080570000000 1.0
C      1  0.4434090000000  0.5378340000000  0.5649510000000 1.0
C      1  0.4942400000000  0.5934410000000  0.4606050000000 1.0
C      1  0.5407570000000  0.4470010000000  0.5727130000000 1.0
C      1  0.5230880000000  0.4673250000000  0.4715480000000 1.0
C      1  0.4863720000000  0.4326160000000  0.5392470000000 1.0
C      1  0.5611690000000  0.5623570000000  0.5807740000000 1.0
C      1  0.4288760000000  0.4599000000000  0.4327790000000 1.0
C      1  0.4723180000000  0.4592930000000  0.4691490000000 1.0
C      1  0.4653060000000  0.4517340000000  0.5542330000000 1.0
C      1  0.4155900000000  0.4631930000000  0.5583870000000 1.0
C      1  0.5613170000000  0.5040140000000  0.4309290000000 1.0
C      1  0.5551940000000  0.4353730000000  0.5517280000000 1.0
C      1  0.4740260000000  0.4983080000000  0.4992420000000 1.0
C      1  0.4121950000000  0.4757230000000  0.4982800000000 1.0
C      1  0.4924940000000  0.5068260000000  0.6148240000000 1.0
C      1  0.5599410000000  0.4998300000000  0.4937440000000 1.0
C      1  0.4537470000000  0.4137140000000  0.4649460000000 1.0
C      1  0.5632690000000  0.4487170000000  0.4325230000000 1.0
C      1  0.4836150000000  0.5214400000000  0.4767820000000 1.0
C      1  0.5569810000000  0.4776400000000  0.4201170000000 1.0
C      1  0.4177420000000  0.4127390000000  0.4089050000000 1.0
C      1  0.5499120000000  0.5329280000000  0.5935990000000 1.0
C      1  0.5239910000000  0.5505790000000  0.4331750000000 1.0
C      1  0.5403300000000  0.4105390000000  0.5407520000000 1.0
C      1  0.5675530000000  0.4360730000000  0.5072350000000 1.0
C      1  0.5860500000000  0.5452390000000  0.5283690000000 1.0
C      1  0.5141680000000  0.5710750000000  0.4176750000000 1.0
C      1  0.4439110000000  0.5523560000000  0.4445740000000 1.0
C      1  0.4260040000000  0.4221380000000  0.4693940000000 1.0
C      1  0.4350100000000  0.4431110000000  0.5121500000000 1.0
C      1  0.5236810000000  0.5509300000000  0.5879090000000 1.0
C      1  0.5465260000000  0.5421560000000  0.5080380000000 1.0
C      1  0.5112510000000  0.4379060000000  0.5700630000000 1.0
C      1  0.4915640000000  0.5820520000000  0.4291510000000 1.0
C      1  0.5142520000000  0.4372170000000  0.4226520000000 1.0
C      1  0.5293800000000  0.4451760000000  0.5124110000000 1.0
C      1  0.4317050000000  0.5217710000000  0.4465500000000 1.0
C      1  0.4219140000000  0.4630140000000  0.4618680000000 1.0
C      1  0.4444900000000  0.4853280000000  0.5046750000000 1.0
C      1  0.4974090000000  0.5831930000000  0.5274130000000 1.0
C      1  0.4754380000000  0.5085010000000  0.5854010000000 1.0
C      1  0.4118260000000  0.5079930000000  0.5410990000000 1.0
C      1  0.4727560000000  0.5501830000000  0.4888330000000 1.0
C      1  0.5398320000000  0.4086420000000  0.4545060000000 1.0
C      1  0.5086660000000  0.4104390000000  0.5529830000000 1.0
C      1  0.4995060000000  0.4484210000000  0.4853420000000 1.0
C      1  0.5211770000000  0.4889020000000  0.5939810000000 1.0
C      1  0.5253130000000  0.5634240000000  0.5630960000000 1.0
C      1  0.4980940000000  0.5370560000000  0.6017200000000 1.0
C      1  0.4396760000000  0.4924700000000  0.5358820000000 1.0
C      1  0.4365010000000  0.5799310000000  0.4776480000000 1.0
C      1  0.5438670000000  0.4147930000000  0.5074830000000 1.0
C      1  0.4618980000000  0.5841840000000  0.4670400000000 1.0
C      1  0.5758750000000  0.5808010000000  0.4766850000000 1.0
C      1  0.5902080000000  0.4779070000000  0.5479480000000 1.0
C      1  0.4903910000000  0.4260940000000  0.5062880000000 1.0
C      1  0.4553440000000  0.5807020000000  0.5466590000000 1.0
C      1  0.4035980000000  0.5046580000000  0.5113020000000 1.0
C      1  0.5828100000000  0.5087880000000  0.5128890000000 1.0
C      1  0.5130460000000  0.5100630000000  0.5212750000000 1.0
C      1  0.4619050000000  0.5151860000000  0.5245710000000 1.0
C      1  0.5114980000000  0.4639790000000  0.4401430000000 1.0
C      1  0.4672890000000  0.4099720000000  0.4954380000000 1.0
C      1  0.5476190000000  0.5921520000000  0.5227540000000 1.0
C      1  0.4438120000000  0.4797600000000  0.4187850000000 1.0
C      1  0.4542810000000  0.5355980000000  0.4171500000000 1.0
C      1  0.5141290000000  0.4006200000000  0.4634820000000 1.0
C      1  0.5541190000000  0.4844090000000  0.5294350000000 1.0
C      1  0.4757920000000  0.5599750000000  0.4498170000000 1.0
C      1  0.4924290000000  0.4854480000000  0.4271290000000 1.0
C      1  0.4302130000000  0.5494130000000  0.5220220000000 1.0
C      1  0.4873000000000  0.5130370000000  0.4436960000000 1.0
C      1  0.5156860000000  0.5040560000000  0.4118280000000 1.0
C      1  0.5222360000000  0.5565010000000  0.4890540000000 1.0
C      1  0.5972420000000  0.5626500000000  0.4797470000000 1.0
C      1  0.4696730000000  0.5510840000000  0.5543120000000 1.0
C      1  0.4715290000000  0.4713310000000  0.4085880000000 1.0
C      1  0.5338080000000  0.5209850000000  0.4303510000000 1.0
C      1  0.4937460000000  0.5321990000000  0.5691400000000 1.0
C      1  0.5054810000000  0.5502260000000  0.4599640000000 1.0
C      1  0.5997000000000  0.5072790000000  0.4594530000000 1.0
C      1  0.5623390000000  0.5632770000000  0.5253720000000 1.0
C      1  0.5985820000000  0.5366390000000  0.5013480000000 1.0
C      1  0.5526580000000  0.5659980000000  0.4645790000000 1.0
C      1  0.5515020000000  0.5770880000000  0.5530250000000 1.0
C      1  0.4923990000000  0.5296000000000  0.5295390000000 1.0
C      1  0.5256350000000  0.5838920000000  0.4677200000000 1.0
C      1  0.4464190000000  0.5081450000000  0.4720550000000 1.0
C      1  0.5081280000000  0.5572310000000  0.5419840000000 1.0
C      1  0.4754160000000  0.5994380000000  0.5423240000000 1.0
C      1  0.5218640000000  0.5224160000000  0.4612250000000 1.0
C      1  0.5063130000000  0.4957850000000  0.4740150000000 1.0
C      1  0.4700870000000  0.4361670000000  0.4459710000000 1.0
C      1  0.6047520000000  0.5319620000000  0.4696170000000 1.0
C      1  0.5297110000000  0.5098220000000  0.4920070000000 1.0
C      1  0.5249830000000  0.5169920000000  0.6086300000000 1.0
C      1  0.5616530000000  0.5192390000000  0.4588590000000 1.0
C      1  0.4750030000000  0.4745430000000  0.3809310000000 1.0
C      1  0.5568590000000  0.5173150000000  0.5664070000000 1.0
C      1  0.5127640000000  0.4097060000000  0.5198220000000 1.0
C      1  0.4464450000000  0.4601100000000  0.4848290000000 1.0
C      1  0.4817070000000  0.5329020000000  0.4209810000000 1.0
C      1  0.5408990000000  0.4720970000000  0.5005080000000 1.0
C      1  0.5141710000000  0.4495100000000  0.5378140000000 1.0
C      1  0.4112490000000  0.4892270000000  0.5658750000000 1.0
C      1  0.4394660000000  0.5074050000000  0.4194800000000 1.0
C      1  0.5793650000000  0.4413030000000  0.4812450000000 1.0
C      1  0.4360860000000  0.5768950000000  0.5258020000000 1.0
C      1  0.4833140000000  0.4438160000000  0.4204150000000 1.0
C      1  0.5551820000000  0.5393380000000  0.4753590000000 1.0
C      1  0.4812730000000  0.3930470000000  0.4696110000000 1.0
C      1  0.5180670000000  0.5921740000000  0.5060490000000 1.0
C      1  0.4238170000000  0.5354350000000  0.5453930000000 1.0
C      1  0.4167250000000  0.4940520000000  0.4708620000000 1.0
C      1  0.4711250000000  0.4890680000000  0.4607740000000 1.0
C      1  0.5657340000000  0.4289590000000  0.4592680000000 1.0
C      1  0.5086220000000  0.4795770000000  0.5351050000000 1.0
C      1  0.4465450000000  0.5184330000000  0.5847000000000 1.0
C      1  0.5288680000000  0.4761540000000  0.4141660000000 1.0
C      1  0.5202520000000  0.4927060000000  0.5608030000000 1.0
C      1  0.4108310000000  0.4433750000000  0.4878290000000 1.0
C      1  0.4217480000000  0.5519490000000  0.4705250000000 1.0
C      1  0.4752740000000  0.5576840000000  0.5208810000000 1.0
C      1  0.5431930000000  0.5166890000000  0.5289090000000 1.0
C      1  0.4032500000000  0.5240700000000  0.4621080000000 1.0
C      1  0.5715570000000  0.4873860000000  0.5652930000000 1.0
C      1  0.4247160000000  0.5006110000000  0.5882690000000 1.0
C      1  0.4734730000000  0.4790280000000  0.5728480000000 1.0
END
