TITL C-2778428-5639-500 -0.015691776549276 125000 -893.706664104573 0 0 154 (C1) n - 1
REM
REM in /home/nfs/bkarasulu/CARBON/AIRSS/Generating-Clusters/REBO/Only-C1/SD-CG/HFTN-CG
REM
REM
REM
REM
REM
REM ./C.cell (11c1c37f851c82e70ff6c80c92926a4b)
REM
REM compiler GCC version 9.2.1 20190827 (Red Hat 9.2.1-1)
REM options -cpp -mtune=generic -march=x86-64 -g -O0 -fpre-include=/usr/include/finclude/math-vector-fortran.h
REM seed 846899512 -1066437155 -140184413 -247810963 -2081594039 391484249 95646898 310062185 -1889321348 -1659115788 -341216715 2002806275 -29030061 -869638952 -93868865 1137992336 716079503 -80946936 -1823829352 1696450993 1990169859 -1322880144 1642971327 -126064082 753107141 -1846725804 -1822983255 1426525867 338131774 1885442856 -238606683 -935603080 -1631953012
REM
CELL 1.54180   50.00000   50.00000   50.00000   90.00000   90.00000   90.00000
LATT -1
SFAC C  
C      1  0.5137730000000  0.4419940000000  0.5327130000000 1.0
C      1  0.5188970000000  0.4417890000000  0.4737420000000 1.0
C      1  0.5515270000000  0.4190540000000  0.4759010000000 1.0
C      1  0.4174990000000  0.4615820000000  0.5436250000000 1.0
C      1  0.5421020000000  0.5175280000000  0.4231140000000 1.0
C      1  0.4770430000000  0.5363210000000  0.3976810000000 1.0
C      1  0.3946980000000  0.5057290000000  0.4791000000000 1.0
C      1  0.5147150000000  0.4882790000000  0.4542720000000 1.0
C      1  0.4150650000000  0.4561330000000  0.4848840000000 1.0
C      1  0.4836420000000  0.4698970000000  0.5810170000000 1.0
C      1  0.5295380000000  0.5166890000000  0.4522750000000 1.0
C      1  0.4659750000000  0.4688180000000  0.5395950000000 1.0
C      1  0.5521850000000  0.5464790000000  0.4381650000000 1.0
C      1  0.4389370000000  0.5715670000000  0.5282640000000 1.0
C      1  0.4933350000000  0.4140100000000  0.4596510000000 1.0
C      1  0.5412400000000  0.4567440000000  0.4867880000000 1.0
C      1  0.5002120000000  0.5630310000000  0.4322710000000 1.0
C      1  0.5861280000000  0.4360710000000  0.5047440000000 1.0
C      1  0.4017180000000  0.4784760000000  0.5273120000000 1.0
C      1  0.4549510000000  0.4888000000000  0.5182380000000 1.0
C      1  0.4687150000000  0.5160970000000  0.5273110000000 1.0
C      1  0.5312870000000  0.4869410000000  0.5904390000000 1.0
C      1  0.4726880000000  0.5569000000000  0.4163990000000 1.0
C      1  0.5747980000000  0.5112700000000  0.5680540000000 1.0
C      1  0.5403950000000  0.4863030000000  0.4822450000000 1.0
C      1  0.4255370000000  0.4066060000000  0.4751380000000 1.0
C      1  0.4233160000000  0.5240660000000  0.5185950000000 1.0
C      1  0.5020800000000  0.4644220000000  0.5557880000000 1.0
C      1  0.5376310000000  0.4977900000000  0.5103820000000 1.0
C      1  0.4771530000000  0.5753120000000  0.5546860000000 1.0
C      1  0.5576410000000  0.4488070000000  0.5634120000000 1.0
C      1  0.5039470000000  0.4360300000000  0.5838240000000 1.0
C      1  0.5015290000000  0.5614280000000  0.5183430000000 1.0
C      1  0.4459020000000  0.4622160000000  0.5624730000000 1.0
C      1  0.5437030000000  0.5747030000000  0.4557680000000 1.0
C      1  0.4963330000000  0.5873850000000  0.4509860000000 1.0
C      1  0.5505930000000  0.4772940000000  0.5316900000000 1.0
C      1  0.5279010000000  0.5556100000000  0.5293180000000 1.0
C      1  0.5493640000000  0.5875050000000  0.5389290000000 1.0
C      1  0.4728970000000  0.5075750000000  0.5550380000000 1.0
C      1  0.5268950000000  0.4077500000000  0.4585770000000 1.0
C      1  0.4193330000000  0.4981630000000  0.5596990000000 1.0
C      1  0.4244450000000  0.5460810000000  0.4467850000000 1.0
C      1  0.5714460000000  0.5479120000000  0.4662080000000 1.0
C      1  0.4486610000000  0.5637710000000  0.4378140000000 1.0
C      1  0.4930570000000  0.5994930000000  0.5141510000000 1.0
C      1  0.4039910000000  0.5202200000000  0.4578010000000 1.0
C      1  0.4564010000000  0.4644000000000  0.4594560000000 1.0
C      1  0.5752130000000  0.5652630000000  0.5392020000000 1.0
C      1  0.4984510000000  0.3923610000000  0.5330270000000 1.0
C      1  0.5196060000000  0.5335700000000  0.4970430000000 1.0
C      1  0.4306100000000  0.5200610000000  0.5474100000000 1.0
C      1  0.4720250000000  0.5287020000000  0.4445100000000 1.0
C      1  0.4912960000000  0.5167600000000  0.4687730000000 1.0
C      1  0.5418020000000  0.5972020000000  0.5125730000000 1.0
C      1  0.4806350000000  0.4439170000000  0.5251830000000 1.0
C      1  0.5033380000000  0.5295220000000  0.5417410000000 1.0
C      1  0.4721020000000  0.3925370000000  0.4687710000000 1.0
C      1  0.5173040000000  0.5982510000000  0.4966320000000 1.0
C      1  0.4412040000000  0.5274620000000  0.4698950000000 1.0
C      1  0.4992250000000  0.5929480000000  0.5430730000000 1.0
C      1  0.5595990000000  0.4632360000000  0.4399220000000 1.0
C      1  0.5861550000000  0.5112540000000  0.5935260000000 1.0
C      1  0.5128640000000  0.4655240000000  0.5941320000000 1.0
C      1  0.4830850000000  0.4210750000000  0.5712500000000 1.0
C      1  0.4965410000000  0.4801570000000  0.5280380000000 1.0
C      1  0.5317530000000  0.5508760000000  0.4725280000000 1.0
C      1  0.5592310000000  0.4258770000000  0.5044900000000 1.0
C      1  0.4619390000000  0.4427430000000  0.4968020000000 1.0
C      1  0.5861600000000  0.4627310000000  0.4930800000000 1.0
C      1  0.5280770000000  0.4436460000000  0.5630370000000 1.0
C      1  0.5149830000000  0.4573850000000  0.4042960000000 1.0
C      1  0.4735090000000  0.5562900000000  0.4611130000000 1.0
C      1  0.5037550000000  0.5172610000000  0.4043110000000 1.0
C      1  0.5707820000000  0.5666580000000  0.4870440000000 1.0
C      1  0.4272990000000  0.4953600000000  0.5867540000000 1.0
C      1  0.4632950000000  0.5334080000000  0.4918350000000 1.0
C      1  0.5433660000000  0.4691660000000  0.3993750000000 1.0
C      1  0.4550990000000  0.4777080000000  0.5899350000000 1.0
C      1  0.3975640000000  0.5078420000000  0.5119750000000 1.0
C      1  0.5201370000000  0.5621550000000  0.5764420000000 1.0
C      1  0.4392510000000  0.4939490000000  0.4638990000000 1.0
C      1  0.5036690000000  0.4277620000000  0.4968410000000 1.0
C      1  0.5192490000000  0.5910250000000  0.4677850000000 1.0
C      1  0.4754220000000  0.4891460000000  0.4477740000000 1.0
C      1  0.5559210000000  0.4995920000000  0.3995470000000 1.0
C      1  0.4323290000000  0.5572410000000  0.4841070000000 1.0
C      1  0.4420410000000  0.4659190000000  0.4966390000000 1.0
C      1  0.4344650000000  0.5244000000000  0.5958610000000 1.0
C      1  0.4250770000000  0.5529590000000  0.5111210000000 1.0
C      1  0.5572820000000  0.5597100000000  0.5115050000000 1.0
C      1  0.5751370000000  0.5138550000000  0.5257340000000 1.0
C      1  0.5353000000000  0.4843240000000  0.4297340000000 1.0
C      1  0.5773900000000  0.4622910000000  0.5573090000000 1.0
C      1  0.4782060000000  0.4422420000000  0.4698710000000 1.0
C      1  0.4930980000000  0.4779990000000  0.4037210000000 1.0
C      1  0.5679230000000  0.5385970000000  0.5564790000000 1.0
C      1  0.4904140000000  0.4267490000000  0.4309700000000 1.0
C      1  0.5656340000000  0.4965420000000  0.4659250000000 1.0
C      1  0.5090480000000  0.5408590000000  0.4525460000000 1.0
C      1  0.4641470000000  0.5883820000000  0.4557100000000 1.0
C      1  0.4531910000000  0.5084610000000  0.4294280000000 1.0
C      1  0.4502900000000  0.5802360000000  0.4829830000000 1.0
C      1  0.4659750000000  0.5819750000000  0.5101970000000 1.0
C      1  0.5249160000000  0.5114780000000  0.6016770000000 1.0
C      1  0.4708540000000  0.5493540000000  0.5204350000000 1.0
C      1  0.5058860000000  0.5368660000000  0.5924220000000 1.0
C      1  0.6157940000000  0.5019010000000  0.4675050000000 1.0
C      1  0.4334630000000  0.4994770000000  0.4969680000000 1.0
C      1  0.5956590000000  0.4896930000000  0.4542240000000 1.0
C      1  0.5509810000000  0.5235800000000  0.4746110000000 1.0
C      1  0.4504730000000  0.5665410000000  0.5538470000000 1.0
C      1  0.4232200000000  0.5167580000000  0.4316750000000 1.0
C      1  0.4192730000000  0.4331570000000  0.5350490000000 1.0
C      1  0.4922780000000  0.5517550000000  0.4871620000000 1.0
C      1  0.5488290000000  0.5276280000000  0.5140600000000 1.0
C      1  0.6205560000000  0.5210870000000  0.4863510000000 1.0
C      1  0.4964260000000  0.5081960000000  0.4318980000000 1.0
C      1  0.4591410000000  0.4133930000000  0.5109190000000 1.0
C      1  0.5362500000000  0.4386370000000  0.4446700000000 1.0
C      1  0.5756180000000  0.5220140000000  0.4437450000000 1.0
C      1  0.4823020000000  0.5080920000000  0.4965310000000 1.0
C      1  0.6127000000000  0.5373660000000  0.5068690000000 1.0
C      1  0.4726070000000  0.5309600000000  0.5873930000000 1.0
C      1  0.4681840000000  0.4395090000000  0.4194880000000 1.0
C      1  0.4403700000000  0.4784180000000  0.4329210000000 1.0
C      1  0.3951320000000  0.4753770000000  0.4943620000000 1.0
C      1  0.4134750000000  0.4309670000000  0.4753420000000 1.0
C      1  0.5255680000000  0.5850790000000  0.5560660000000 1.0
C      1  0.5923740000000  0.5395570000000  0.5248650000000 1.0
C      1  0.4595020000000  0.4321430000000  0.5596380000000 1.0
C      1  0.4449070000000  0.4201750000000  0.5374420000000 1.0
C      1  0.5400150000000  0.4493060000000  0.5184190000000 1.0
C      1  0.4936310000000  0.4724200000000  0.4711170000000 1.0
C      1  0.5249000000000  0.5120370000000  0.5601520000000 1.0
C      1  0.5777460000000  0.4835760000000  0.5117130000000 1.0
C      1  0.5483560000000  0.4903280000000  0.5616610000000 1.0
C      1  0.5667620000000  0.4489650000000  0.4686950000000 1.0
C      1  0.5854810000000  0.4890240000000  0.5471950000000 1.0
C      1  0.5067560000000  0.5084300000000  0.5176200000000 1.0
C      1  0.4460300000000  0.5403120000000  0.5681030000000 1.0
C      1  0.5147660000000  0.4370170000000  0.4226010000000 1.0
C      1  0.5139870000000  0.5485330000000  0.4063800000000 1.0
C      1  0.4505420000000  0.3982940000000  0.4850880000000 1.0
C      1  0.5741590000000  0.4918600000000  0.4274850000000 1.0
C      1  0.4674120000000  0.4683470000000  0.4145910000000 1.0
C      1  0.5405220000000  0.5384010000000  0.5516360000000 1.0
C      1  0.4954810000000  0.5091150000000  0.5748130000000 1.0
C      1  0.4899750000000  0.4078240000000  0.5111610000000 1.0
C      1  0.4969920000000  0.5534300000000  0.5572430000000 1.0
C      1  0.4971400000000  0.4611650000000  0.5005970000000 1.0
C      1  0.4919840000000  0.3966700000000  0.5593220000000 1.0
C      1  0.4595140000000  0.5064610000000  0.6064360000000 1.0
C      1  0.5218280000000  0.4951660000000  0.3937700000000 1.0
END
