TITL C-2778426-5645-168 0.00313072393745592 125000 -1026.501481076 0 0 176 (C1) n - 1
REM
REM in /home/nfs/bkarasulu/CARBON/AIRSS/Generating-Clusters/REBO/Only-C1/SD-CG/HFTN-CG
REM
REM
REM
REM
REM
REM ./C.cell (11c1c37f851c82e70ff6c80c92926a4b)
REM
REM compiler GCC version 9.2.1 20190827 (Red Hat 9.2.1-1)
REM options -cpp -mtune=generic -march=x86-64 -g -O0 -fpre-include=/usr/include/finclude/math-vector-fortran.h
REM seed 1961172376 522993345 -1368536973 -1366953716 1250340727 455050133 171033749 1350137069 196588238 -1536226406 1952251087 1756416945 -2107795697 -809453402 1817245875 -257588976 -1219998645 2109600589 321637507 -232978738 -261575261 -1221662395 247833155 1968726167 -2009511237 -697519724 -975476580 -520886552 1399683589 620707557 -2078965986 1922358825 -1774664734
REM
CELL 1.54180   50.00000   50.00000   50.00000   90.00000   90.00000   90.00000
LATT -1
SFAC C  
C      1  0.3970270000000  0.4961570000000  0.5353430000000 1.0
C      1  0.5443410000000  0.5306380000000  0.4180030000000 1.0
C      1  0.4119720000000  0.5447290000000  0.5251550000000 1.0
C      1  0.5544990000000  0.4218050000000  0.5237540000000 1.0
C      1  0.4958230000000  0.5619880000000  0.5899640000000 1.0
C      1  0.4819970000000  0.4646890000000  0.4913550000000 1.0
C      1  0.5526560000000  0.4254270000000  0.5693290000000 1.0
C      1  0.4893750000000  0.4530900000000  0.5223930000000 1.0
C      1  0.5448630000000  0.4849430000000  0.4039360000000 1.0
C      1  0.4821160000000  0.5668840000000  0.4220340000000 1.0
C      1  0.5172670000000  0.4467090000000  0.5994260000000 1.0
C      1  0.5801540000000  0.5822500000000  0.5194450000000 1.0
C      1  0.5144320000000  0.3863620000000  0.4762590000000 1.0
C      1  0.4278720000000  0.4642860000000  0.5688760000000 1.0
C      1  0.4721570000000  0.3976180000000  0.4429310000000 1.0
C      1  0.4481690000000  0.4959320000000  0.5344520000000 1.0
C      1  0.4656360000000  0.4043100000000  0.4734660000000 1.0
C      1  0.5704200000000  0.4634450000000  0.4840550000000 1.0
C      1  0.4449110000000  0.5040220000000  0.5958700000000 1.0
C      1  0.5154940000000  0.4405650000000  0.4730920000000 1.0
C      1  0.4059190000000  0.5008550000000  0.4530560000000 1.0
C      1  0.6024220000000  0.4733140000000  0.5243660000000 1.0
C      1  0.4949950000000  0.5248680000000  0.5390520000000 1.0
C      1  0.5718310000000  0.4847160000000  0.4172480000000 1.0
C      1  0.5815790000000  0.4973350000000  0.5818450000000 1.0
C      1  0.5765680000000  0.5504750000000  0.4525630000000 1.0
C      1  0.5514340000000  0.4580550000000  0.4386870000000 1.0
C      1  0.5304190000000  0.5621080000000  0.4778920000000 1.0
C      1  0.5472950000000  0.4530480000000  0.5886980000000 1.0
C      1  0.5029570000000  0.4973930000000  0.5262190000000 1.0
C      1  0.5539730000000  0.5589460000000  0.4332340000000 1.0
C      1  0.4806680000000  0.5664310000000  0.5598360000000 1.0
C      1  0.5870230000000  0.5290380000000  0.4924120000000 1.0
C      1  0.4520670000000  0.5814770000000  0.4899430000000 1.0
C      1  0.4689530000000  0.4595220000000  0.6048180000000 1.0
C      1  0.4217900000000  0.4863470000000  0.5178440000000 1.0
C      1  0.5329780000000  0.5851380000000  0.4545480000000 1.0
C      1  0.5764980000000  0.4169660000000  0.5003290000000 1.0
C      1  0.4832010000000  0.4923220000000  0.4276520000000 1.0
C      1  0.5739130000000  0.4376750000000  0.5455910000000 1.0
C      1  0.5398020000000  0.4852240000000  0.4483090000000 1.0
C      1  0.4302220000000  0.4910100000000  0.4105700000000 1.0
C      1  0.4762180000000  0.6022650000000  0.5205080000000 1.0
C      1  0.4862490000000  0.4504100000000  0.4610390000000 1.0
C      1  0.4962130000000  0.4593600000000  0.3982180000000 1.0
C      1  0.5070470000000  0.4823800000000  0.4428090000000 1.0
C      1  0.5246760000000  0.4648770000000  0.4083860000000 1.0
C      1  0.4976540000000  0.5434040000000  0.4388580000000 1.0
C      1  0.4568130000000  0.4396960000000  0.4174640000000 1.0
C      1  0.5268620000000  0.5411120000000  0.4441780000000 1.0
C      1  0.4537840000000  0.4760560000000  0.4961570000000 1.0
C      1  0.4723090000000  0.4947850000000  0.5157790000000 1.0
C      1  0.5139580000000  0.5331760000000  0.3923540000000 1.0
C      1  0.4954640000000  0.5285360000000  0.5884670000000 1.0
C      1  0.5751750000000  0.5172510000000  0.5200390000000 1.0
C      1  0.5016870000000  0.5140220000000  0.4799280000000 1.0
C      1  0.5919050000000  0.5029230000000  0.4711580000000 1.0
C      1  0.4486500000000  0.4185140000000  0.4986500000000 1.0
C      1  0.4629780000000  0.5544440000000  0.5932520000000 1.0
C      1  0.5528270000000  0.4343890000000  0.4860190000000 1.0
C      1  0.4248420000000  0.4933760000000  0.5794890000000 1.0
C      1  0.5100350000000  0.5623170000000  0.4052060000000 1.0
C      1  0.5088100000000  0.4507140000000  0.4351350000000 1.0
C      1  0.5205350000000  0.4800570000000  0.6008430000000 1.0
C      1  0.4559980000000  0.5273860000000  0.4564360000000 1.0
C      1  0.4812850000000  0.5723970000000  0.5048280000000 1.0
C      1  0.5497440000000  0.4288490000000  0.4561100000000 1.0
C      1  0.4684140000000  0.5156870000000  0.6013780000000 1.0
C      1  0.4500300000000  0.5185290000000  0.5545780000000 1.0
C      1  0.5508620000000  0.5886860000000  0.4814970000000 1.0
C      1  0.5501280000000  0.5581620000000  0.5801300000000 1.0
C      1  0.4606170000000  0.5234090000000  0.3928300000000 1.0
C      1  0.5475730000000  0.4877470000000  0.5262200000000 1.0
C      1  0.5701540000000  0.5836950000000  0.5794490000000 1.0
C      1  0.5757640000000  0.5219920000000  0.4523550000000 1.0
C      1  0.5058730000000  0.3960240000000  0.4475850000000 1.0
C      1  0.5155480000000  0.5963690000000  0.5170720000000 1.0
C      1  0.4959880000000  0.6041450000000  0.4688920000000 1.0
C      1  0.5259480000000  0.5377170000000  0.5126030000000 1.0
C      1  0.4688340000000  0.4198500000000  0.5329440000000 1.0
C      1  0.4882900000000  0.5294870000000  0.4098970000000 1.0
C      1  0.5209930000000  0.4230890000000  0.4461690000000 1.0
C      1  0.4301770000000  0.4646110000000  0.4766460000000 1.0
C      1  0.4620590000000  0.4331030000000  0.4580690000000 1.0
C      1  0.4721790000000  0.6073160000000  0.4883590000000 1.0
C      1  0.5835480000000  0.4895820000000  0.5011340000000 1.0
C      1  0.4039170000000  0.5178530000000  0.4821030000000 1.0
C      1  0.4789690000000  0.5973710000000  0.5533450000000 1.0
C      1  0.5534860000000  0.5758580000000  0.5343470000000 1.0
C      1  0.5179400000000  0.5055440000000  0.5784860000000 1.0
C      1  0.4347630000000  0.4952120000000  0.4669860000000 1.0
C      1  0.5258380000000  0.5691840000000  0.5252340000000 1.0
C      1  0.5046730000000  0.6066550000000  0.5682330000000 1.0
C      1  0.4032820000000  0.4642530000000  0.5455020000000 1.0
C      1  0.4802270000000  0.5131490000000  0.5633010000000 1.0
C      1  0.4165860000000  0.4629050000000  0.5027310000000 1.0
C      1  0.5410940000000  0.5094150000000  0.5006740000000 1.0
C      1  0.4772140000000  0.5444060000000  0.5204860000000 1.0
C      1  0.5359090000000  0.5486520000000  0.5577080000000 1.0
C      1  0.5441190000000  0.4544020000000  0.5193220000000 1.0
C      1  0.4177980000000  0.4719220000000  0.4394160000000 1.0
C      1  0.5246490000000  0.3903870000000  0.5495850000000 1.0
C      1  0.5870340000000  0.4851070000000  0.4424050000000 1.0
C      1  0.5022010000000  0.4253790000000  0.5282290000000 1.0
C      1  0.5229680000000  0.4329540000000  0.5029130000000 1.0
C      1  0.5304260000000  0.5284670000000  0.4742700000000 1.0
C      1  0.5352180000000  0.5117250000000  0.3958590000000 1.0
C      1  0.4489190000000  0.4675510000000  0.4264150000000 1.0
C      1  0.4837550000000  0.4355640000000  0.4079370000000 1.0
C      1  0.4364970000000  0.5339700000000  0.5038380000000 1.0
C      1  0.4443580000000  0.4247560000000  0.5564500000000 1.0
C      1  0.5516050000000  0.4868370000000  0.5887930000000 1.0
C      1  0.4932740000000  0.4115720000000  0.4198960000000 1.0
C      1  0.6009740000000  0.4273830000000  0.5075220000000 1.0
C      1  0.5001360000000  0.4861950000000  0.4721150000000 1.0
C      1  0.5125810000000  0.5888750000000  0.5891160000000 1.0
C      1  0.5497700000000  0.5271510000000  0.5352980000000 1.0
C      1  0.5469680000000  0.4838720000000  0.4799910000000 1.0
C      1  0.5104890000000  0.6021140000000  0.4381240000000 1.0
C      1  0.5483520000000  0.5127110000000  0.5663320000000 1.0
C      1  0.4412100000000  0.5653590000000  0.4656960000000 1.0
C      1  0.5061680000000  0.5528290000000  0.5467210000000 1.0
C      1  0.4788240000000  0.5932330000000  0.4413260000000 1.0
C      1  0.5866520000000  0.4601390000000  0.4573800000000 1.0
C      1  0.4892740000000  0.4746500000000  0.5939270000000 1.0
C      1  0.4787260000000  0.4823210000000  0.4012300000000 1.0
C      1  0.4754580000000  0.4608880000000  0.5477760000000 1.0
C      1  0.4442370000000  0.4401300000000  0.5203470000000 1.0
C      1  0.4472780000000  0.4433800000000  0.5848550000000 1.0
C      1  0.5587340000000  0.4623950000000  0.5578340000000 1.0
C      1  0.4493660000000  0.5583860000000  0.5244080000000 1.0
C      1  0.4525710000000  0.5718360000000  0.4367460000000 1.0
C      1  0.4098170000000  0.5101590000000  0.5615740000000 1.0
C      1  0.5018970000000  0.4306130000000  0.5811010000000 1.0
C      1  0.4221800000000  0.5383130000000  0.5531570000000 1.0
C      1  0.4298280000000  0.5462540000000  0.4331230000000 1.0
C      1  0.5988020000000  0.4460530000000  0.5293040000000 1.0
C      1  0.4511580000000  0.5503540000000  0.5651390000000 1.0
C      1  0.5771380000000  0.5795650000000  0.4917590000000 1.0
C      1  0.4842740000000  0.5377950000000  0.4662080000000 1.0
C      1  0.5402040000000  0.5849360000000  0.5938390000000 1.0
C      1  0.5313080000000  0.3989450000000  0.5221120000000 1.0
C      1  0.5128340000000  0.6135480000000  0.5397070000000 1.0
C      1  0.5780140000000  0.5859990000000  0.5520590000000 1.0
C      1  0.4177720000000  0.5151020000000  0.4267400000000 1.0
C      1  0.4529930000000  0.5846900000000  0.5375060000000 1.0
C      1  0.5297070000000  0.5791230000000  0.4218780000000 1.0
C      1  0.4456260000000  0.4657300000000  0.5423030000000 1.0
C      1  0.6005140000000  0.5012510000000  0.5351050000000 1.0
C      1  0.5029740000000  0.5521000000000  0.4911750000000 1.0
C      1  0.4178060000000  0.4373670000000  0.5410690000000 1.0
C      1  0.4844120000000  0.4835070000000  0.5669120000000 1.0
C      1  0.4811610000000  0.5203660000000  0.5019330000000 1.0
C      1  0.5774510000000  0.4368310000000  0.4404770000000 1.0
C      1  0.5221990000000  0.4880100000000  0.5496640000000 1.0
C      1  0.5212300000000  0.4689870000000  0.4858830000000 1.0
C      1  0.4543580000000  0.4956500000000  0.3915590000000 1.0
C      1  0.4000200000000  0.5187370000000  0.5098670000000 1.0
C      1  0.4391600000000  0.5069810000000  0.4972110000000 1.0
C      1  0.4571090000000  0.4958200000000  0.4443980000000 1.0
C      1  0.5139460000000  0.4698750000000  0.5151220000000 1.0
C      1  0.5204020000000  0.6009460000000  0.4889940000000 1.0
C      1  0.4245910000000  0.5369010000000  0.4657690000000 1.0
C      1  0.5849530000000  0.5550330000000  0.4797740000000 1.0
C      1  0.5094890000000  0.3953260000000  0.5020940000000 1.0
C      1  0.5267100000000  0.4571110000000  0.5547820000000 1.0
C      1  0.4585920000000  0.5346390000000  0.4235860000000 1.0
C      1  0.5682790000000  0.4907200000000  0.5526860000000 1.0
C      1  0.5209670000000  0.4235320000000  0.5565480000000 1.0
C      1  0.4288270000000  0.4196520000000  0.4756330000000 1.0
C      1  0.4770400000000  0.4395550000000  0.5712810000000 1.0
C      1  0.4252330000000  0.5661600000000  0.5021320000000 1.0
C      1  0.5531480000000  0.5112540000000  0.4403410000000 1.0
C      1  0.4789470000000  0.4032940000000  0.5047450000000 1.0
C      1  0.4315810000000  0.4441490000000  0.4537140000000 1.0
C      1  0.4484740000000  0.4141640000000  0.4258630000000 1.0
END
