TITL C-2778432-5617-752 0.000648163177074654 125000 -153.15857044094 0 0 28 (C1) n - 1
REM
REM in /home/nfs/bkarasulu/CARBON/AIRSS/Generating-Clusters/REBO/Only-C1/SD-CG/HFTN-CG
REM
REM
REM
REM
REM
REM ./C.cell (11c1c37f851c82e70ff6c80c92926a4b)
REM
REM compiler GCC version 9.2.1 20190827 (Red Hat 9.2.1-1)
REM options -cpp -mtune=generic -march=x86-64 -g -O0 -fpre-include=/usr/include/finclude/math-vector-fortran.h
REM seed 586037578 -754238623 -958151987 -31819858 2040292443 1752064997 1462047033 1229748331 780843922 -1169842056 -1877202979 2140114610 956461786 184538071 634335810 -490888929 -1929966915 -1106899091 -2073883724 1548691711 -308899333 710769428 445538217 456770336 1377921094 1989128011 -831704492 510264534 -1072279656 2068560709 -129760413 -1102037331 1941397682
REM
CELL 1.54180   50.00000   50.00000   50.00000   90.00000   90.00000   90.00000
LATT -1
SFAC C  
C      1  0.5073590000000  0.4897440000000  0.5010110000000 1.0
C      1  0.4816750000000  0.5760660000000  0.5134120000000 1.0
C      1  0.4852030000000  0.5047400000000  0.4502280000000 1.0
C      1  0.5371510000000  0.4830450000000  0.4969450000000 1.0
C      1  0.5472510000000  0.4994600000000  0.5404570000000 1.0
C      1  0.4381840000000  0.4885150000000  0.4857880000000 1.0
C      1  0.5248770000000  0.4504810000000  0.4599740000000 1.0
C      1  0.4542290000000  0.4635600000000  0.4722640000000 1.0
C      1  0.5531270000000  0.5020460000000  0.5121530000000 1.0
C      1  0.4992300000000  0.4465550000000  0.4523240000000 1.0
C      1  0.4953900000000  0.4978450000000  0.4735770000000 1.0
C      1  0.5042440000000  0.5147990000000  0.5210760000000 1.0
C      1  0.4938940000000  0.4585630000000  0.5397850000000 1.0
C      1  0.5109860000000  0.5636030000000  0.5072050000000 1.0
C      1  0.4728890000000  0.5188180000000  0.5216950000000 1.0
C      1  0.5210300000000  0.5382480000000  0.5101560000000 1.0
C      1  0.4728680000000  0.4513550000000  0.4560710000000 1.0
C      1  0.4897320000000  0.4674120000000  0.5131950000000 1.0
C      1  0.5244900000000  0.5910420000000  0.4963540000000 1.0
C      1  0.5475900000000  0.5293430000000  0.5039560000000 1.0
C      1  0.5063010000000  0.4780910000000  0.5562930000000 1.0
C      1  0.5413680000000  0.4637330000000  0.4770980000000 1.0
C      1  0.4619740000000  0.4715370000000  0.5038390000000 1.0
C      1  0.4750880000000  0.5115860000000  0.4270420000000 1.0
C      1  0.4847250000000  0.4348270000000  0.5492590000000 1.0
C      1  0.4537500000000  0.5035530000000  0.5101880000000 1.0
C      1  0.5189970000000  0.5010150000000  0.5457360000000 1.0
C      1  0.4964010000000  0.6004200000000  0.5029200000000 1.0
END
