TITL C-2778435-5768-827 -0.000979424227614279 125000 -304.705460126676 0 0 53 (C1) n - 1
REM
REM in /home/nfs/bkarasulu/CARBON/AIRSS/Generating-Clusters/REBO/Only-C1/SD-CG/HFTN-CG
REM
REM
REM
REM
REM
REM ./C.cell (11c1c37f851c82e70ff6c80c92926a4b)
REM
REM compiler GCC version 9.2.1 20190827 (Red Hat 9.2.1-1)
REM options -cpp -mtune=generic -march=x86-64 -g -O0 -fpre-include=/usr/include/finclude/math-vector-fortran.h
REM seed 1409301744 -1797002922 1787978887 -81875604 -1259160938 1227017015 -1844288376 1264044974 1896957154 987339297 1129478401 405285618 -901593544 -1064450689 -377475619 -184696843 -197630742 1584563857 -1816514746 889973187 2074723072 2120968382 1956037546 1126606928 -209924748 696216069 -972208919 -1174237052 -905603081 -1976352075 411441432 303368433 2130002416
REM
CELL 1.54180   50.00000   50.00000   50.00000   90.00000   90.00000   90.00000
LATT -1
SFAC C  
C      1  0.5770940000000  0.5172300000000  0.4488180000000 1.0
C      1  0.4901030000000  0.6063460000000  0.4868830000000 1.0
C      1  0.4662840000000  0.4814270000000  0.4759780000000 1.0
C      1  0.4909510000000  0.4283900000000  0.4854100000000 1.0
C      1  0.5181030000000  0.4936350000000  0.5015390000000 1.0
C      1  0.4866560000000  0.4723110000000  0.5336580000000 1.0
C      1  0.5300640000000  0.5042260000000  0.4649070000000 1.0
C      1  0.5033390000000  0.5176960000000  0.4703940000000 1.0
C      1  0.5601470000000  0.4932180000000  0.4516680000000 1.0
C      1  0.5713500000000  0.4540210000000  0.4897950000000 1.0
C      1  0.5564690000000  0.4498840000000  0.5140220000000 1.0
C      1  0.5554500000000  0.5258520000000  0.4735870000000 1.0
C      1  0.5020120000000  0.4714180000000  0.5062200000000 1.0
C      1  0.4388810000000  0.4790870000000  0.4831870000000 1.0
C      1  0.5015720000000  0.5423040000000  0.5685110000000 1.0
C      1  0.4337850000000  0.5246550000000  0.4708850000000 1.0
C      1  0.5735330000000  0.5368400000000  0.4983780000000 1.0
C      1  0.4895550000000  0.5865270000000  0.5030630000000 1.0
C      1  0.5289420000000  0.5480220000000  0.5182970000000 1.0
C      1  0.4412810000000  0.5039580000000  0.5292380000000 1.0
C      1  0.5453550000000  0.4958170000000  0.5166820000000 1.0
C      1  0.4690770000000  0.4923200000000  0.5148230000000 1.0
C      1  0.5358550000000  0.5226740000000  0.4997290000000 1.0
C      1  0.3957030000000  0.4935660000000  0.4626850000000 1.0
C      1  0.5328200000000  0.4343610000000  0.5100430000000 1.0
C      1  0.4788100000000  0.5086720000000  0.4867280000000 1.0
C      1  0.4524240000000  0.5457340000000  0.5108200000000 1.0
C      1  0.5619030000000  0.5434450000000  0.5217920000000 1.0
C      1  0.4566970000000  0.5315850000000  0.4864210000000 1.0
C      1  0.3712410000000  0.4886350000000  0.4546770000000 1.0
C      1  0.4664810000000  0.4488640000000  0.5390240000000 1.0
C      1  0.5184540000000  0.4021310000000  0.4457730000000 1.0
C      1  0.5083600000000  0.4441110000000  0.4991450000000 1.0
C      1  0.4375930000000  0.5306030000000  0.5295750000000 1.0
C      1  0.4431470000000  0.4506170000000  0.5292160000000 1.0
C      1  0.5425790000000  0.5348930000000  0.5458130000000 1.0
C      1  0.5254330000000  0.5266430000000  0.5662880000000 1.0
C      1  0.5140580000000  0.4269940000000  0.4527970000000 1.0
C      1  0.4216510000000  0.4987960000000  0.4711790000000 1.0
C      1  0.5093770000000  0.4534640000000  0.4602760000000 1.0
C      1  0.5525410000000  0.4730880000000  0.5314030000000 1.0
C      1  0.5005540000000  0.5420620000000  0.4588410000000 1.0
C      1  0.4891010000000  0.5565950000000  0.5495440000000 1.0
C      1  0.5380000000000  0.4722700000000  0.5563780000000 1.0
C      1  0.5609930000000  0.4655180000000  0.4661310000000 1.0
C      1  0.5241870000000  0.4985350000000  0.5706540000000 1.0
C      1  0.4835220000000  0.4630630000000  0.4647050000000 1.0
C      1  0.5058070000000  0.5635970000000  0.5213940000000 1.0
C      1  0.5056670000000  0.4769940000000  0.5557720000000 1.0
C      1  0.4368480000000  0.4759280000000  0.5135140000000 1.0
C      1  0.5302290000000  0.4711990000000  0.4646840000000 1.0
C      1  0.4721010000000  0.5645630000000  0.5213830000000 1.0
C      1  0.4978620000000  0.5656170000000  0.4476730000000 1.0
END
