TITL C-2778422-5617-1029 0.0745911535107689 125000 -393.81903636976 0 0 68 (C1) n - 1
REM
REM in /home/nfs/bkarasulu/CARBON/AIRSS/Generating-Clusters/REBO/Only-C1/SD-CG/HFTN-CG
REM
REM
REM
REM
REM
REM ./C.cell (11c1c37f851c82e70ff6c80c92926a4b)
REM
REM compiler GCC version 9.2.1 20190827 (Red Hat 9.2.1-1)
REM options -cpp -mtune=generic -march=x86-64 -g -O0 -fpre-include=/usr/include/finclude/math-vector-fortran.h
REM seed 28296766 1122536405 27872425 -1988142037 1219339964 1040116265 -1184599898 -82992439 421241554 1236333782 554493820 739959636 -1130109557 -1786540299 -1144066277 1360134162 -1967639751 1392113749 -1894022165 -125916442 -219118642 1275630212 2053061981 679926678 -152728239 161649195 -6579370 -1319125393 24022517 -1313547019 579960572 -302870833 217221733
REM
CELL 1.54180   50.00000   50.00000   50.00000   90.00000   90.00000   90.00000
LATT -1
SFAC C  
C      1  0.4799340000000  0.4835010000000  0.5278560000000 1.0
C      1  0.4596820000000  0.5146930000000  0.5908860000000 1.0
C      1  0.4487700000000  0.4753800000000  0.4551530000000 1.0
C      1  0.4712870000000  0.5342040000000  0.5387390000000 1.0
C      1  0.5455940000000  0.5323300000000  0.5249280000000 1.0
C      1  0.4480410000000  0.4770530000000  0.5312390000000 1.0
C      1  0.4558720000000  0.5169940000000  0.5571830000000 1.0
C      1  0.5575620000000  0.4857690000000  0.4942870000000 1.0
C      1  0.5715640000000  0.4823430000000  0.5460600000000 1.0
C      1  0.4869600000000  0.5572400000000  0.4468990000000 1.0
C      1  0.5169140000000  0.5089570000000  0.4239920000000 1.0
C      1  0.4716360000000  0.4319200000000  0.5215900000000 1.0
C      1  0.4563660000000  0.5192790000000  0.4861800000000 1.0
C      1  0.5587410000000  0.5585250000000  0.4835020000000 1.0
C      1  0.4743610000000  0.4931570000000  0.5729590000000 1.0
C      1  0.5636590000000  0.4506150000000  0.5350400000000 1.0
C      1  0.5033200000000  0.5030590000000  0.5187600000000 1.0
C      1  0.5074440000000  0.4555010000000  0.5485780000000 1.0
C      1  0.5247690000000  0.4957410000000  0.4541020000000 1.0
C      1  0.5137850000000  0.5601020000000  0.4664420000000 1.0
C      1  0.4350270000000  0.5025900000000  0.5408840000000 1.0
C      1  0.5283350000000  0.4647990000000  0.5236280000000 1.0
C      1  0.4889810000000  0.4506850000000  0.4624530000000 1.0
C      1  0.4201540000000  0.5154380000000  0.5218830000000 1.0
C      1  0.4549400000000  0.4508150000000  0.5007320000000 1.0
C      1  0.4756630000000  0.5198200000000  0.5122640000000 1.0
C      1  0.5159900000000  0.4756290000000  0.4289730000000 1.0
C      1  0.5350290000000  0.4378500000000  0.4607710000000 1.0
C      1  0.5099200000000  0.4354970000000  0.4743870000000 1.0
C      1  0.5096740000000  0.4997030000000  0.4794550000000 1.0
C      1  0.5399390000000  0.5670220000000  0.4653890000000 1.0
C      1  0.5047260000000  0.5497970000000  0.4971830000000 1.0
C      1  0.5274690000000  0.4888010000000  0.5043690000000 1.0
C      1  0.4662730000000  0.4797200000000  0.4323860000000 1.0
C      1  0.5601770000000  0.5346720000000  0.4985380000000 1.0
C      1  0.4882650000000  0.4722690000000  0.5652850000000 1.0
C      1  0.4779950000000  0.4936550000000  0.4893450000000 1.0
C      1  0.4870150000000  0.5763260000000  0.4945410000000 1.0
C      1  0.5005910000000  0.5479520000000  0.5482000000000 1.0
C      1  0.5157410000000  0.4333390000000  0.5026240000000 1.0
C      1  0.5466280000000  0.4434220000000  0.5064490000000 1.0
C      1  0.5485150000000  0.4881230000000  0.5703990000000 1.0
C      1  0.4678430000000  0.4663380000000  0.4793680000000 1.0
C      1  0.5678110000000  0.5119270000000  0.4843330000000 1.0
C      1  0.5241610000000  0.5531900000000  0.5668170000000 1.0
C      1  0.4217820000000  0.4784150000000  0.4624950000000 1.0
C      1  0.4687000000000  0.5058930000000  0.4209360000000 1.0
C      1  0.5564880000000  0.4578030000000  0.4776480000000 1.0
C      1  0.4268380000000  0.4639290000000  0.5082300000000 1.0
C      1  0.4803220000000  0.5816680000000  0.4683530000000 1.0
C      1  0.4730450000000  0.5307570000000  0.4303830000000 1.0
C      1  0.5581330000000  0.5127430000000  0.5497680000000 1.0
C      1  0.5390760000000  0.4614150000000  0.5558230000000 1.0
C      1  0.5766640000000  0.4741780000000  0.5151340000000 1.0
C      1  0.4749300000000  0.5673350000000  0.5399800000000 1.0
C      1  0.4462860000000  0.4443040000000  0.5354420000000 1.0
C      1  0.4988520000000  0.4359040000000  0.5247060000000 1.0
C      1  0.5481060000000  0.5431500000000  0.5569730000000 1.0
C      1  0.4945700000000  0.5277130000000  0.4779620000000 1.0
C      1  0.5826450000000  0.5127610000000  0.4610150000000 1.0
C      1  0.4116590000000  0.4727160000000  0.4875320000000 1.0
C      1  0.5416800000000  0.4672380000000  0.4486660000000 1.0
C      1  0.5139020000000  0.5292580000000  0.4087250000000 1.0
C      1  0.5135670000000  0.5343860000000  0.5221010000000 1.0
C      1  0.4272260000000  0.5207430000000  0.4959210000000 1.0
C      1  0.4897320000000  0.4631740000000  0.4362420000000 1.0
C      1  0.4673770000000  0.5346170000000  0.4620410000000 1.0
C      1  0.4752970000000  0.5841610000000  0.5188920000000 1.0
END
