TITL C-2778437-8639-1205 -0.457454538285945 125000 -634.095302829094 0 0 110 (C1) n - 1
REM
REM in /home/nfs/bkarasulu/CARBON/AIRSS/Generating-Clusters/REBO/Only-C1/SD-CG/HFTN-CG
REM
REM
REM
REM
REM
REM ./C.cell (11c1c37f851c82e70ff6c80c92926a4b)
REM
REM compiler GCC version 9.2.1 20190827 (Red Hat 9.2.1-1)
REM options -cpp -mtune=generic -march=x86-64 -g -O0 -fpre-include=/usr/include/finclude/math-vector-fortran.h
REM seed 1383355261 -239438485 -1989939506 1412057585 -1457402361 1647357783 536028535 -733327352 1376605150 866334020 1113717543 -563276488 1263176452 2074318201 -326730035 1736231732 -1747183424 -1420894901 1010374218 -468662809 68359212 -1049086079 762473720 -1342903215 2017499538 38433927 1290214200 -1032511906 98922998 1185416979 2137615203 -771815557 1623656531
REM
CELL 1.54180   50.00000   50.00000   50.00000   90.00000   90.00000   90.00000
LATT -1
SFAC C  
C      1  0.4544680000000  0.4628580000000  0.5736220000000 1.0
C      1  0.4691850000000  0.4056350000000  0.4796030000000 1.0
C      1  0.5044270000000  0.5730890000000  0.4509870000000 1.0
C      1  0.4462630000000  0.4287720000000  0.5183570000000 1.0
C      1  0.4565570000000  0.5314120000000  0.4845830000000 1.0
C      1  0.5167240000000  0.5199860000000  0.4401470000000 1.0
C      1  0.5329140000000  0.4321160000000  0.4370290000000 1.0
C      1  0.4649550000000  0.4730640000000  0.4601330000000 1.0
C      1  0.4107740000000  0.4990440000000  0.4935730000000 1.0
C      1  0.5170770000000  0.5710020000000  0.5394110000000 1.0
C      1  0.5178630000000  0.5007910000000  0.4657210000000 1.0
C      1  0.4848620000000  0.5042410000000  0.5530730000000 1.0
C      1  0.4183890000000  0.5259620000000  0.4741220000000 1.0
C      1  0.5168960000000  0.5033140000000  0.5619160000000 1.0
C      1  0.5496160000000  0.4500620000000  0.4396950000000 1.0
C      1  0.5427980000000  0.4878410000000  0.4764350000000 1.0
C      1  0.4528640000000  0.4646240000000  0.4170080000000 1.0
C      1  0.4916550000000  0.4298860000000  0.5535170000000 1.0
C      1  0.4585060000000  0.5767880000000  0.5170020000000 1.0
C      1  0.5866240000000  0.4483680000000  0.4959380000000 1.0
C      1  0.5554040000000  0.5087030000000  0.4984670000000 1.0
C      1  0.5623550000000  0.5825120000000  0.5105600000000 1.0
C      1  0.4830330000000  0.4988550000000  0.5825030000000 1.0
C      1  0.5636200000000  0.5029070000000  0.4458420000000 1.0
C      1  0.5911060000000  0.4950050000000  0.4871990000000 1.0
C      1  0.4894330000000  0.5180160000000  0.4260630000000 1.0
C      1  0.4658600000000  0.4688670000000  0.4930530000000 1.0
C      1  0.4712350000000  0.5798800000000  0.5672720000000 1.0
C      1  0.5702860000000  0.4957280000000  0.5339160000000 1.0
C      1  0.5735390000000  0.5171580000000  0.4715810000000 1.0
C      1  0.4704480000000  0.4933770000000  0.4122670000000 1.0
C      1  0.5416240000000  0.5583790000000  0.5213840000000 1.0
C      1  0.4581070000000  0.5079480000000  0.5048580000000 1.0
C      1  0.4120410000000  0.4825880000000  0.4460840000000 1.0
C      1  0.4854440000000  0.4080930000000  0.4515200000000 1.0
C      1  0.5715530000000  0.5473990000000  0.4742170000000 1.0
C      1  0.4862640000000  0.5527780000000  0.5803380000000 1.0
C      1  0.5390960000000  0.5260640000000  0.5647010000000 1.0
C      1  0.5905330000000  0.4970700000000  0.5153000000000 1.0
C      1  0.4735630000000  0.4176620000000  0.4292910000000 1.0
C      1  0.5543440000000  0.5220850000000  0.5360640000000 1.0
C      1  0.4670770000000  0.5718800000000  0.5987450000000 1.0
C      1  0.5438540000000  0.5559350000000  0.5543170000000 1.0
C      1  0.4903210000000  0.4573340000000  0.5022950000000 1.0
C      1  0.4368400000000  0.4844960000000  0.5031850000000 1.0
C      1  0.5623840000000  0.4721740000000  0.4559190000000 1.0
C      1  0.4230830000000  0.5242070000000  0.5729100000000 1.0
C      1  0.5415500000000  0.5814720000000  0.4889660000000 1.0
C      1  0.4548640000000  0.5742560000000  0.4640510000000 1.0
C      1  0.5176690000000  0.4453100000000  0.5585890000000 1.0
C      1  0.5853120000000  0.4690090000000  0.4768970000000 1.0
C      1  0.4909050000000  0.5605480000000  0.5478330000000 1.0
C      1  0.4692760000000  0.4400970000000  0.5677090000000 1.0
C      1  0.4988250000000  0.4193630000000  0.4891760000000 1.0
C      1  0.4960590000000  0.4782620000000  0.4688830000000 1.0
C      1  0.4617960000000  0.5174340000000  0.5355890000000 1.0
C      1  0.5746010000000  0.5485240000000  0.5412860000000 1.0
C      1  0.5035770000000  0.5881040000000  0.4800150000000 1.0
C      1  0.5177660000000  0.5878560000000  0.4310390000000 1.0
C      1  0.5357510000000  0.4273700000000  0.4765460000000 1.0
C      1  0.5418290000000  0.4813600000000  0.5098190000000 1.0
C      1  0.4349460000000  0.5549120000000  0.4728560000000 1.0
C      1  0.5462310000000  0.5598170000000  0.4711440000000 1.0
C      1  0.5160430000000  0.5874840000000  0.5096430000000 1.0
C      1  0.4173830000000  0.5123150000000  0.5242980000000 1.0
C      1  0.4894760000000  0.4916220000000  0.5227520000000 1.0
C      1  0.5293050000000  0.4241610000000  0.5214510000000 1.0
C      1  0.4515220000000  0.4460260000000  0.4532370000000 1.0
C      1  0.4834130000000  0.5875450000000  0.5193320000000 1.0
C      1  0.5891430000000  0.5579110000000  0.4939780000000 1.0
C      1  0.4495670000000  0.4227660000000  0.4611840000000 1.0
C      1  0.5872400000000  0.4625020000000  0.5680260000000 1.0
C      1  0.5657180000000  0.4645760000000  0.5467770000000 1.0
C      1  0.4557600000000  0.4950420000000  0.4425090000000 1.0
C      1  0.5418300000000  0.4142580000000  0.4993400000000 1.0
C      1  0.4963280000000  0.4179350000000  0.5233330000000 1.0
C      1  0.4665790000000  0.4124500000000  0.5106570000000 1.0
C      1  0.4894520000000  0.5010770000000  0.4933600000000 1.0
C      1  0.4505270000000  0.4840390000000  0.5561980000000 1.0
C      1  0.5371830000000  0.4782700000000  0.5886040000000 1.0
C      1  0.4230050000000  0.5356510000000  0.5057540000000 1.0
C      1  0.5093530000000  0.5282690000000  0.4868430000000 1.0
C      1  0.5101400000000  0.4955420000000  0.5968810000000 1.0
C      1  0.4783950000000  0.5729890000000  0.4825280000000 1.0
C      1  0.4720540000000  0.4970850000000  0.3842200000000 1.0
C      1  0.4777850000000  0.5433730000000  0.5273000000000 1.0
C      1  0.4648500000000  0.4394630000000  0.4161060000000 1.0
C      1  0.5404760000000  0.5101990000000  0.5922500000000 1.0
C      1  0.4534880000000  0.5247770000000  0.4545520000000 1.0
C      1  0.5815970000000  0.4466120000000  0.5224860000000 1.0
C      1  0.4253050000000  0.5100370000000  0.4468670000000 1.0
C      1  0.5199940000000  0.5469240000000  0.4602150000000 1.0
C      1  0.5192570000000  0.4869660000000  0.5346350000000 1.0
C      1  0.4265850000000  0.4664550000000  0.4279950000000 1.0
C      1  0.5394660000000  0.4600780000000  0.5680990000000 1.0
C      1  0.4721430000000  0.5389430000000  0.4360850000000 1.0
C      1  0.4819240000000  0.5458620000000  0.4967390000000 1.0
C      1  0.5447650000000  0.5130470000000  0.4282990000000 1.0
C      1  0.4757340000000  0.5653760000000  0.4434680000000 1.0
C      1  0.5354240000000  0.5306010000000  0.5085880000000 1.0
C      1  0.5907260000000  0.5565210000000  0.5213010000000 1.0
C      1  0.4402850000000  0.4549220000000  0.5200380000000 1.0
C      1  0.4336520000000  0.5111100000000  0.5509290000000 1.0
C      1  0.5064260000000  0.4561670000000  0.5279360000000 1.0
C      1  0.5137300000000  0.4156330000000  0.4560540000000 1.0
C      1  0.4625260000000  0.4766300000000  0.5301990000000 1.0
C      1  0.5096950000000  0.4493070000000  0.4771210000000 1.0
C      1  0.3990240000000  0.4798100000000  0.4705830000000 1.0
C      1  0.4389650000000  0.5582100000000  0.5124780000000 1.0
C      1  0.5399410000000  0.4538100000000  0.5266520000000 1.0
END
