TITL C-2778432-5617-882 -0.0343196349543108 125000 -95.5767156610438 0 0 19 (C1) n - 1
REM
REM in /home/nfs/bkarasulu/CARBON/AIRSS/Generating-Clusters/REBO/Only-C1/SD-CG/HFTN-CG
REM
REM
REM
REM
REM
REM ./C.cell (11c1c37f851c82e70ff6c80c92926a4b)
REM
REM compiler GCC version 9.2.1 20190827 (Red Hat 9.2.1-1)
REM options -cpp -mtune=generic -march=x86-64 -g -O0 -fpre-include=/usr/include/finclude/math-vector-fortran.h
REM seed 306831235 -1090060993 -1672983289 -201791938 13390534 600864161 436334187 -735946467 1495152444 1502262083 610218132 823358857 -623522414 1887761089 1929576824 -665746249 1752956128 1936062070 634049310 -139579670 -1192960846 1593694611 -110613267 1354720871 -1134672731 -616505716 854163924 -1890426737 1127201373 -1825458039 455125756 -526731344 608049690
REM
CELL 1.54180   50.00000   50.00000   50.00000   90.00000   90.00000   90.00000
LATT -1
SFAC C  
C      1  0.4971390000000  0.4892480000000  0.4668220000000 1.0
C      1  0.4975600000000  0.4944360000000  0.5248810000000 1.0
C      1  0.5166820000000  0.5347440000000  0.5404370000000 1.0
C      1  0.4678970000000  0.5010510000000  0.4796800000000 1.0
C      1  0.5443810000000  0.4962280000000  0.5189960000000 1.0
C      1  0.4449080000000  0.5508140000000  0.5176690000000 1.0
C      1  0.5140080000000  0.4722560000000  0.4843920000000 1.0
C      1  0.5452140000000  0.5200970000000  0.5337940000000 1.0
C      1  0.4661450000000  0.4783310000000  0.4579330000000 1.0
C      1  0.4302230000000  0.5383940000000  0.4940670000000 1.0
C      1  0.5377470000000  0.4530690000000  0.4700020000000 1.0
C      1  0.4564490000000  0.5197090000000  0.4957240000000 1.0
C      1  0.5108950000000  0.5052200000000  0.4485500000000 1.0
C      1  0.5199200000000  0.4844020000000  0.5108570000000 1.0
C      1  0.5445630000000  0.5480490000000  0.5505140000000 1.0
C      1  0.4933900000000  0.5217970000000  0.5317200000000 1.0
C      1  0.5334340000000  0.4206430000000  0.4686670000000 1.0
C      1  0.4693540000000  0.5327310000000  0.5225580000000 1.0
C      1  0.5100910000000  0.4387800000000  0.4827370000000 1.0
END
