TITL C-2778428-5639-733 6.66493453553186e-05 125000 -188.270062751133 0 0 34 (C1) n - 1
REM
REM in /home/nfs/bkarasulu/CARBON/AIRSS/Generating-Clusters/REBO/Only-C1/SD-CG/HFTN-CG
REM
REM
REM
REM
REM
REM ./C.cell (11c1c37f851c82e70ff6c80c92926a4b)
REM
REM compiler GCC version 9.2.1 20190827 (Red Hat 9.2.1-1)
REM options -cpp -mtune=generic -march=x86-64 -g -O0 -fpre-include=/usr/include/finclude/math-vector-fortran.h
REM seed 2114711563 41300166 -1395649764 -504538768 -823289185 -1354382975 -830953088 181957953 -1153703526 1836480076 -541529284 -188881890 -49242345 -874114730 165122046 187544233 -1576247832 -1054024780 -318239779 1388265244 -2147202615 -1765278770 883343526 1839277317 -1968729718 -868493456 -817133424 212150536 -1108532940 -1812135278 -1900183830 1488709504 1649879717
REM
CELL 1.54180   50.00000   50.00000   50.00000   90.00000   90.00000   90.00000
LATT -1
SFAC C  
C      1  0.5251490000000  0.5851980000000  0.4970460000000 1.0
C      1  0.4667420000000  0.3972760000000  0.5364210000000 1.0
C      1  0.5187810000000  0.5534000000000  0.4972460000000 1.0
C      1  0.5093990000000  0.4515910000000  0.5134220000000 1.0
C      1  0.4572120000000  0.5819380000000  0.4487520000000 1.0
C      1  0.4889250000000  0.5144910000000  0.4076420000000 1.0
C      1  0.4647640000000  0.5102400000000  0.5507490000000 1.0
C      1  0.4364720000000  0.5859880000000  0.4332520000000 1.0
C      1  0.5320260000000  0.4615330000000  0.4394410000000 1.0
C      1  0.5142480000000  0.4958480000000  0.5657570000000 1.0
C      1  0.4997300000000  0.5736360000000  0.4805290000000 1.0
C      1  0.5372230000000  0.4519280000000  0.4641270000000 1.0
C      1  0.4486620000000  0.5304500000000  0.5592610000000 1.0
C      1  0.5733430000000  0.4780130000000  0.5248630000000 1.0
C      1  0.4782880000000  0.5778220000000  0.4645030000000 1.0
C      1  0.4618090000000  0.4931210000000  0.4949500000000 1.0
C      1  0.5249530000000  0.5280790000000  0.5054780000000 1.0
C      1  0.4591030000000  0.4953140000000  0.5281210000000 1.0
C      1  0.5108070000000  0.5044260000000  0.4989930000000 1.0
C      1  0.4897470000000  0.5052290000000  0.4552110000000 1.0
C      1  0.5569840000000  0.4748400000000  0.5773340000000 1.0
C      1  0.5255520000000  0.4805580000000  0.5109010000000 1.0
C      1  0.4878110000000  0.5022550000000  0.4828950000000 1.0
C      1  0.5310660000000  0.4547600000000  0.4905260000000 1.0
C      1  0.4828470000000  0.4459570000000  0.5192410000000 1.0
C      1  0.5396370000000  0.4865800000000  0.5592970000000 1.0
C      1  0.4650330000000  0.4669600000000  0.5154500000000 1.0
C      1  0.4745470000000  0.4208680000000  0.5280950000000 1.0
C      1  0.4390320000000  0.4962120000000  0.4793360000000 1.0
C      1  0.4983570000000  0.5003500000000  0.4288660000000 1.0
C      1  0.5174370000000  0.4798020000000  0.4259380000000 1.0
C      1  0.5469480000000  0.5210140000000  0.5224590000000 1.0
C      1  0.5483280000000  0.4898510000000  0.5303260000000 1.0
C      1  0.4890390000000  0.5044750000000  0.5635710000000 1.0
END
