TITL C-2778434-4341-423 -0.00309169655296556 125000 -665.918605023202 0 0 116 (C1) n - 1
REM
REM in /home/nfs/bkarasulu/CARBON/AIRSS/Generating-Clusters/REBO/Only-C1/SD-CG/HFTN-CG
REM
REM
REM
REM
REM
REM ./C.cell (11c1c37f851c82e70ff6c80c92926a4b)
REM
REM compiler GCC version 9.2.1 20190827 (Red Hat 9.2.1-1)
REM options -cpp -mtune=generic -march=x86-64 -g -O0 -fpre-include=/usr/include/finclude/math-vector-fortran.h
REM seed 2029331966 96901558 -348136218 -723468789 -1310907729 199285835 -1631804378 -1423409714 -806203751 -1168857196 -1241877650 1290162577 -655505998 205462910 63160449 745995542 158647919 -1436974990 1191612849 -635330479 239532459 -1072118285 418979811 -1147337780 1426595554 1934286806 -697242617 -614340811 -770119740 338606607 836239271 -313671257 1443443580
REM
CELL 1.54180   50.00000   50.00000   50.00000   90.00000   90.00000   90.00000
LATT -1
SFAC C  
C      1  0.4062780000000  0.5371440000000  0.4933150000000 1.0
C      1  0.5051070000000  0.5739520000000  0.5459380000000 1.0
C      1  0.4811610000000  0.4480010000000  0.5104120000000 1.0
C      1  0.4671430000000  0.5148760000000  0.5145900000000 1.0
C      1  0.5941780000000  0.4785980000000  0.4826000000000 1.0
C      1  0.5132710000000  0.4000190000000  0.4650120000000 1.0
C      1  0.4788800000000  0.4702620000000  0.5434880000000 1.0
C      1  0.5488380000000  0.4496730000000  0.5691460000000 1.0
C      1  0.5263710000000  0.5479590000000  0.4712560000000 1.0
C      1  0.4709300000000  0.4935600000000  0.5933900000000 1.0
C      1  0.5109950000000  0.4203350000000  0.5548630000000 1.0
C      1  0.5351900000000  0.4635860000000  0.5899350000000 1.0
C      1  0.5154370000000  0.5502400000000  0.5042660000000 1.0
C      1  0.4261610000000  0.4788660000000  0.5085980000000 1.0
C      1  0.5247990000000  0.4858250000000  0.5373060000000 1.0
C      1  0.5003190000000  0.4640040000000  0.4663490000000 1.0
C      1  0.5039140000000  0.5242450000000  0.4002340000000 1.0
C      1  0.5023540000000  0.5926040000000  0.4829910000000 1.0
C      1  0.5524730000000  0.5194460000000  0.4817680000000 1.0
C      1  0.4225400000000  0.4883150000000  0.5372470000000 1.0
C      1  0.4857550000000  0.4361160000000  0.4532400000000 1.0
C      1  0.4823880000000  0.4096030000000  0.4716180000000 1.0
C      1  0.5282300000000  0.5123110000000  0.4041470000000 1.0
C      1  0.4213220000000  0.5590520000000  0.5487300000000 1.0
C      1  0.5731370000000  0.4996340000000  0.5542800000000 1.0
C      1  0.5525860000000  0.4291510000000  0.5256700000000 1.0
C      1  0.4196320000000  0.4916560000000  0.4504720000000 1.0
C      1  0.4652050000000  0.4419930000000  0.5535510000000 1.0
C      1  0.4691170000000  0.5938410000000  0.4815250000000 1.0
C      1  0.4406590000000  0.4658600000000  0.5528750000000 1.0
C      1  0.4121190000000  0.5396100000000  0.5261500000000 1.0
C      1  0.5529400000000  0.5505910000000  0.5427620000000 1.0
C      1  0.4851580000000  0.5383280000000  0.4250530000000 1.0
C      1  0.5143370000000  0.4114940000000  0.4951410000000 1.0
C      1  0.5531480000000  0.5197430000000  0.4344880000000 1.0
C      1  0.5288070000000  0.5822650000000  0.4663410000000 1.0
C      1  0.4561640000000  0.4909830000000  0.5330950000000 1.0
C      1  0.4742410000000  0.4640350000000  0.4053360000000 1.0
C      1  0.5709350000000  0.4656320000000  0.5535770000000 1.0
C      1  0.5571590000000  0.5499650000000  0.4864430000000 1.0
C      1  0.5023410000000  0.5305150000000  0.5685570000000 1.0
C      1  0.5388630000000  0.4915730000000  0.4273290000000 1.0
C      1  0.4827810000000  0.4161380000000  0.5049620000000 1.0
C      1  0.5081530000000  0.4446340000000  0.4931710000000 1.0
C      1  0.5388410000000  0.5427480000000  0.4397530000000 1.0
C      1  0.5036800000000  0.4617530000000  0.4139080000000 1.0
C      1  0.5044040000000  0.4650600000000  0.5273550000000 1.0
C      1  0.5433560000000  0.4431720000000  0.4471070000000 1.0
C      1  0.5446180000000  0.4878560000000  0.4749960000000 1.0
C      1  0.5608030000000  0.5662160000000  0.5155530000000 1.0
C      1  0.4559020000000  0.4442330000000  0.4434690000000 1.0
C      1  0.5867600000000  0.5501030000000  0.5005910000000 1.0
C      1  0.5433490000000  0.4215490000000  0.4998450000000 1.0
C      1  0.4947950000000  0.5618770000000  0.4702720000000 1.0
C      1  0.4518050000000  0.4216240000000  0.4944420000000 1.0
C      1  0.5567140000000  0.5253670000000  0.5652540000000 1.0
C      1  0.4704320000000  0.5251630000000  0.5919360000000 1.0
C      1  0.4537140000000  0.4943930000000  0.4480340000000 1.0
C      1  0.5301410000000  0.5433830000000  0.5744620000000 1.0
C      1  0.4517140000000  0.4169740000000  0.4618460000000 1.0
C      1  0.4438450000000  0.5794180000000  0.5143620000000 1.0
C      1  0.5407320000000  0.5317570000000  0.5179650000000 1.0
C      1  0.4167670000000  0.5390730000000  0.5926470000000 1.0
C      1  0.5534090000000  0.4302480000000  0.4757780000000 1.0
C      1  0.5224910000000  0.5121750000000  0.4967630000000 1.0
C      1  0.4338310000000  0.4454610000000  0.4679770000000 1.0
C      1  0.5118490000000  0.4433550000000  0.4343280000000 1.0
C      1  0.5315480000000  0.4114050000000  0.4476660000000 1.0
C      1  0.5309540000000  0.4583990000000  0.5090600000000 1.0
C      1  0.4603290000000  0.4606400000000  0.4936380000000 1.0
C      1  0.5511870000000  0.4687140000000  0.4939010000000 1.0
C      1  0.4608620000000  0.5434980000000  0.5734680000000 1.0
C      1  0.4080360000000  0.5124010000000  0.5390570000000 1.0
C      1  0.4554460000000  0.5192290000000  0.4720150000000 1.0
C      1  0.5088440000000  0.5135770000000  0.5421560000000 1.0
C      1  0.4315230000000  0.5417150000000  0.4709490000000 1.0
C      1  0.5161910000000  0.5154060000000  0.4656500000000 1.0
C      1  0.4994210000000  0.4905420000000  0.4211940000000 1.0
C      1  0.5375200000000  0.4298010000000  0.5510070000000 1.0
C      1  0.5012020000000  0.5137840000000  0.4386110000000 1.0
C      1  0.5321830000000  0.5043280000000  0.5644080000000 1.0
C      1  0.4684190000000  0.5469120000000  0.4853340000000 1.0
C      1  0.5407340000000  0.5905610000000  0.5151070000000 1.0
C      1  0.5245660000000  0.4885780000000  0.5899080000000 1.0
C      1  0.5917430000000  0.5226840000000  0.5084060000000 1.0
C      1  0.4475590000000  0.4984490000000  0.4940880000000 1.0
C      1  0.4327610000000  0.5830100000000  0.5389810000000 1.0
C      1  0.4988540000000  0.5227570000000  0.5160190000000 1.0
C      1  0.5087250000000  0.5806980000000  0.5144750000000 1.0
C      1  0.4774010000000  0.5059000000000  0.4036220000000 1.0
C      1  0.4567180000000  0.5718120000000  0.4644630000000 1.0
C      1  0.5001590000000  0.5083480000000  0.5922660000000 1.0
C      1  0.4837560000000  0.4226130000000  0.5567180000000 1.0
C      1  0.4570950000000  0.5188470000000  0.4257280000000 1.0
C      1  0.5749350000000  0.4484680000000  0.5262900000000 1.0
C      1  0.5545220000000  0.4839730000000  0.5307220000000 1.0
C      1  0.4800150000000  0.5628520000000  0.4417150000000 1.0
C      1  0.4302680000000  0.5585790000000  0.5003930000000 1.0
C      1  0.5781560000000  0.4627190000000  0.5011960000000 1.0
C      1  0.5302020000000  0.5690350000000  0.5588350000000 1.0
C      1  0.4819780000000  0.5514710000000  0.5506560000000 1.0
C      1  0.5673900000000  0.5135990000000  0.5237190000000 1.0
C      1  0.4329020000000  0.5477480000000  0.5724420000000 1.0
C      1  0.4646050000000  0.4752670000000  0.5741560000000 1.0
C      1  0.5705920000000  0.5115380000000  0.4562570000000 1.0
C      1  0.6057800000000  0.5021530000000  0.4946610000000 1.0
C      1  0.5581660000000  0.4692100000000  0.4418650000000 1.0
C      1  0.4288210000000  0.4768870000000  0.4751770000000 1.0
C      1  0.4698200000000  0.4746990000000  0.4709760000000 1.0
C      1  0.5798110000000  0.4835910000000  0.4568290000000 1.0
C      1  0.4688140000000  0.5485170000000  0.5194280000000 1.0
C      1  0.5207630000000  0.4832380000000  0.4549860000000 1.0
C      1  0.4569570000000  0.4682480000000  0.4263830000000 1.0
C      1  0.4501560000000  0.5459920000000  0.4428050000000 1.0
C      1  0.4751010000000  0.5808960000000  0.5108450000000 1.0
C      1  0.4310420000000  0.4475230000000  0.5019100000000 1.0
END
