TITL C-2778422-5617-217 -0.0022647871340577 125000 -920.419144688101 0 0 161 (C1) n - 1
REM
REM in /home/nfs/bkarasulu/CARBON/AIRSS/Generating-Clusters/REBO/Only-C1/SD-CG/HFTN-CG
REM
REM
REM
REM
REM
REM ./C.cell (11c1c37f851c82e70ff6c80c92926a4b)
REM
REM compiler GCC version 9.2.1 20190827 (Red Hat 9.2.1-1)
REM options -cpp -mtune=generic -march=x86-64 -g -O0 -fpre-include=/usr/include/finclude/math-vector-fortran.h
REM seed -98089763 -1505213840 1190035795 1481439222 -62056032 377984622 -363988431 -1333465189 2101595025 -1162408425 946090512 -1267606419 -117208524 2089677330 -1433583053 402395016 2029793429 -62350355 176761408 1142323570 -21148612 -41900366 -1634412934 -570555956 1040287584 -1970143819 -528978109 -1811580957 188844047 -521907212 -520507046 -423970922 -1450912090
REM
CELL 1.54180   50.00000   50.00000   50.00000   90.00000   90.00000   90.00000
LATT -1
SFAC C  
C      1  0.4054960000000  0.4427300000000  0.5036460000000 1.0
C      1  0.5281980000000  0.5609080000000  0.4766720000000 1.0
C      1  0.5257470000000  0.5295690000000  0.4905180000000 1.0
C      1  0.5284950000000  0.3977180000000  0.4873860000000 1.0
C      1  0.5611290000000  0.4674000000000  0.4452070000000 1.0
C      1  0.5643620000000  0.4281450000000  0.4501530000000 1.0
C      1  0.5048160000000  0.4809990000000  0.5933400000000 1.0
C      1  0.5526760000000  0.4959700000000  0.5340750000000 1.0
C      1  0.4064520000000  0.4844530000000  0.4549480000000 1.0
C      1  0.4916890000000  0.4685960000000  0.5192520000000 1.0
C      1  0.5492660000000  0.4158980000000  0.4723710000000 1.0
C      1  0.4397840000000  0.5675500000000  0.5156930000000 1.0
C      1  0.5232170000000  0.5211650000000  0.5407640000000 1.0
C      1  0.5123040000000  0.5494660000000  0.5487330000000 1.0
C      1  0.3905510000000  0.5291980000000  0.4843120000000 1.0
C      1  0.5175180000000  0.5574740000000  0.4136510000000 1.0
C      1  0.4894450000000  0.5655730000000  0.4153980000000 1.0
C      1  0.4749760000000  0.4703840000000  0.6058220000000 1.0
C      1  0.5733390000000  0.4731850000000  0.5671280000000 1.0
C      1  0.5424810000000  0.4928690000000  0.4539620000000 1.0
C      1  0.4496450000000  0.4767800000000  0.5974270000000 1.0
C      1  0.5241960000000  0.5300070000000  0.4072470000000 1.0
C      1  0.4926190000000  0.4813770000000  0.4877300000000 1.0
C      1  0.5810130000000  0.4929340000000  0.4399280000000 1.0
C      1  0.4853880000000  0.4311450000000  0.5770340000000 1.0
C      1  0.5024600000000  0.4166530000000  0.4984740000000 1.0
C      1  0.4144390000000  0.5495300000000  0.5275770000000 1.0
C      1  0.5057100000000  0.5072690000000  0.4152140000000 1.0
C      1  0.5290680000000  0.4283960000000  0.5135500000000 1.0
C      1  0.4481820000000  0.5270380000000  0.5503590000000 1.0
C      1  0.5655190000000  0.5285560000000  0.4928190000000 1.0
C      1  0.5467070000000  0.4522350000000  0.5608440000000 1.0
C      1  0.4363560000000  0.5152300000000  0.5088580000000 1.0
C      1  0.4970670000000  0.5148090000000  0.6093700000000 1.0
C      1  0.4671980000000  0.5766220000000  0.5432230000000 1.0
C      1  0.5874750000000  0.5295640000000  0.5506970000000 1.0
C      1  0.5226240000000  0.4753700000000  0.4946330000000 1.0
C      1  0.5164400000000  0.3990390000000  0.4572690000000 1.0
C      1  0.5645570000000  0.5794240000000  0.5068760000000 1.0
C      1  0.5371300000000  0.5025650000000  0.5036950000000 1.0
C      1  0.4324330000000  0.5241140000000  0.4772040000000 1.0
C      1  0.5113410000000  0.4485920000000  0.4761840000000 1.0
C      1  0.4322660000000  0.4366430000000  0.5667130000000 1.0
C      1  0.5070680000000  0.5309400000000  0.5831030000000 1.0
C      1  0.4714570000000  0.4769130000000  0.4621410000000 1.0
C      1  0.4459830000000  0.4509720000000  0.4431110000000 1.0
C      1  0.5393460000000  0.3907450000000  0.5176890000000 1.0
C      1  0.5133910000000  0.5978860000000  0.5398680000000 1.0
C      1  0.5305950000000  0.5088460000000  0.6058560000000 1.0
C      1  0.4206770000000  0.4784320000000  0.4955490000000 1.0
C      1  0.4019920000000  0.4616190000000  0.4751460000000 1.0
C      1  0.4802650000000  0.5766210000000  0.5729830000000 1.0
C      1  0.4580450000000  0.4439680000000  0.5701840000000 1.0
C      1  0.4669230000000  0.4154440000000  0.4774280000000 1.0
C      1  0.5632480000000  0.4984810000000  0.4165260000000 1.0
C      1  0.5562970000000  0.5819200000000  0.4579560000000 1.0
C      1  0.4809030000000  0.4793380000000  0.4295090000000 1.0
C      1  0.5599770000000  0.4595480000000  0.4926380000000 1.0
C      1  0.5369760000000  0.5379200000000  0.5931080000000 1.0
C      1  0.4376810000000  0.4391200000000  0.4939430000000 1.0
C      1  0.5848720000000  0.4482240000000  0.4604940000000 1.0
C      1  0.4598520000000  0.4264370000000  0.5283110000000 1.0
C      1  0.5417430000000  0.4439950000000  0.4790270000000 1.0
C      1  0.5051000000000  0.5627860000000  0.4534620000000 1.0
C      1  0.5225320000000  0.4593080000000  0.4063690000000 1.0
C      1  0.4482600000000  0.5063110000000  0.5843580000000 1.0
C      1  0.4957820000000  0.4481620000000  0.5978280000000 1.0
C      1  0.5868340000000  0.4538180000000  0.5412670000000 1.0
C      1  0.4848180000000  0.5933840000000  0.5231350000000 1.0
C      1  0.4879140000000  0.5986320000000  0.4511220000000 1.0
C      1  0.5608370000000  0.4166880000000  0.5130230000000 1.0
C      1  0.4911250000000  0.5097050000000  0.4723630000000 1.0
C      1  0.5022490000000  0.5003660000000  0.5236950000000 1.0
C      1  0.5178730000000  0.4072550000000  0.5369310000000 1.0
C      1  0.5128390000000  0.4566860000000  0.5628550000000 1.0
C      1  0.4575940000000  0.5512570000000  0.5725420000000 1.0
C      1  0.4731240000000  0.5796010000000  0.4363020000000 1.0
C      1  0.4948610000000  0.4325860000000  0.4542850000000 1.0
C      1  0.4519020000000  0.4959970000000  0.5401480000000 1.0
C      1  0.5389870000000  0.5692860000000  0.4332780000000 1.0
C      1  0.4691720000000  0.5460400000000  0.5347110000000 1.0
C      1  0.4993820000000  0.4788090000000  0.4016330000000 1.0
C      1  0.4718600000000  0.4088120000000  0.5090730000000 1.0
C      1  0.4570880000000  0.5070580000000  0.4708720000000 1.0
C      1  0.4294800000000  0.4295780000000  0.5245280000000 1.0
C      1  0.4874260000000  0.5174170000000  0.5039320000000 1.0
C      1  0.4874120000000  0.5274970000000  0.5568570000000 1.0
C      1  0.4189890000000  0.5069610000000  0.5680070000000 1.0
C      1  0.4054550000000  0.5102270000000  0.4669630000000 1.0
C      1  0.4772030000000  0.5359790000000  0.4098410000000 1.0
C      1  0.4885530000000  0.5650260000000  0.4794770000000 1.0
C      1  0.3646060000000  0.5255530000000  0.4913370000000 1.0
C      1  0.4179390000000  0.4676500000000  0.5235030000000 1.0
C      1  0.5500690000000  0.4763530000000  0.4046510000000 1.0
C      1  0.4322560000000  0.5579920000000  0.4726210000000 1.0
C      1  0.5296690000000  0.4566420000000  0.5184730000000 1.0
C      1  0.4712720000000  0.5085670000000  0.4379210000000 1.0
C      1  0.5570990000000  0.4641960000000  0.5321460000000 1.0
C      1  0.5084320000000  0.6017380000000  0.4783590000000 1.0
C      1  0.4500890000000  0.5405210000000  0.4270010000000 1.0
C      1  0.4750660000000  0.4487820000000  0.4339540000000 1.0
C      1  0.5561500000000  0.5416820000000  0.4382200000000 1.0
C      1  0.4124380000000  0.5281800000000  0.4320430000000 1.0
C      1  0.5909000000000  0.4865940000000  0.5410810000000 1.0
C      1  0.4798290000000  0.5932680000000  0.4928580000000 1.0
C      1  0.4408220000000  0.4283810000000  0.4647180000000 1.0
C      1  0.4933270000000  0.5350950000000  0.4405920000000 1.0
C      1  0.4738770000000  0.4993310000000  0.5630860000000 1.0
C      1  0.5989410000000  0.4976460000000  0.4611130000000 1.0
C      1  0.5086000000000  0.5772360000000  0.5635750000000 1.0
C      1  0.6023950000000  0.4842390000000  0.4863070000000 1.0
C      1  0.5054960000000  0.4376160000000  0.4228100000000 1.0
C      1  0.5905160000000  0.5000760000000  0.5125190000000 1.0
C      1  0.5443600000000  0.4445270000000  0.4280290000000 1.0
C      1  0.5155120000000  0.5015100000000  0.5681810000000 1.0
C      1  0.5561490000000  0.5612850000000  0.5311640000000 1.0
C      1  0.5223560000000  0.4812770000000  0.5415290000000 1.0
C      1  0.5967420000000  0.5398320000000  0.4847110000000 1.0
C      1  0.5547650000000  0.5220710000000  0.4640780000000 1.0
C      1  0.5892570000000  0.5560540000000  0.5094920000000 1.0
C      1  0.4815200000000  0.4427100000000  0.4905670000000 1.0
C      1  0.5275590000000  0.4166420000000  0.4379700000000 1.0
C      1  0.4499980000000  0.4911400000000  0.4064860000000 1.0
C      1  0.5347870000000  0.4709360000000  0.5852050000000 1.0
C      1  0.4825930000000  0.4460320000000  0.5389560000000 1.0
C      1  0.5922130000000  0.5298540000000  0.5235980000000 1.0
C      1  0.4405430000000  0.4708180000000  0.4701790000000 1.0
C      1  0.5513970000000  0.5244150000000  0.4153070000000 1.0
C      1  0.5985620000000  0.4555600000000  0.4846550000000 1.0
C      1  0.4626700000000  0.4946220000000  0.5106660000000 1.0
C      1  0.4506300000000  0.5810080000000  0.4888050000000 1.0
C      1  0.4312520000000  0.4789030000000  0.4323530000000 1.0
C      1  0.4550040000000  0.5406650000000  0.5057690000000 1.0
C      1  0.5617040000000  0.5586520000000  0.4808490000000 1.0
C      1  0.5554300000000  0.4945090000000  0.5871360000000 1.0
C      1  0.4254990000000  0.4748810000000  0.5762020000000 1.0
C      1  0.5067850000000  0.5675180000000  0.5248690000000 1.0
C      1  0.5210440000000  0.5927070000000  0.4480040000000 1.0
C      1  0.5227390000000  0.5273720000000  0.4565790000000 1.0
C      1  0.4077440000000  0.5499540000000  0.4947790000000 1.0
C      1  0.5630330000000  0.5110370000000  0.5595150000000 1.0
C      1  0.5565170000000  0.5398370000000  0.5736610000000 1.0
C      1  0.4682550000000  0.5438460000000  0.4810700000000 1.0
C      1  0.5398480000000  0.5913470000000  0.4864660000000 1.0
C      1  0.4759690000000  0.5039090000000  0.3985700000000 1.0
C      1  0.4998370000000  0.4202500000000  0.5528380000000 1.0
C      1  0.4360110000000  0.5648480000000  0.5493400000000 1.0
C      1  0.5477890000000  0.5345520000000  0.5212940000000 1.0
C      1  0.5105860000000  0.4997430000000  0.4460750000000 1.0
C      1  0.4809760000000  0.4685250000000  0.5638250000000 1.0
C      1  0.5607060000000  0.5626430000000  0.5579060000000 1.0
C      1  0.4864070000000  0.4007780000000  0.4583290000000 1.0
C      1  0.5818750000000  0.4413190000000  0.5107440000000 1.0
C      1  0.4694170000000  0.5282590000000  0.5947620000000 1.0
C      1  0.4582300000000  0.4650540000000  0.4979770000000 1.0
C      1  0.4372910000000  0.5122080000000  0.4355950000000 1.0
C      1  0.4503220000000  0.5631980000000  0.4444750000000 1.0
C      1  0.4187190000000  0.5187220000000  0.5372720000000 1.0
C      1  0.5640930000000  0.4873840000000  0.4969880000000 1.0
C      1  0.5012640000000  0.5479610000000  0.5030110000000 1.0
C      1  0.4305340000000  0.4760430000000  0.5458980000000 1.0
END
