TITL C-2778431-5191-892 0.00404583924386098 125000 -624.92344721126 0 0 106 (C1) n - 1
REM
REM in /home/nfs/bkarasulu/CARBON/AIRSS/Generating-Clusters/REBO/Only-C1/SD-CG/HFTN-CG
REM
REM
REM
REM
REM
REM ./C.cell (11c1c37f851c82e70ff6c80c92926a4b)
REM
REM compiler GCC version 9.2.1 20190827 (Red Hat 9.2.1-1)
REM options -cpp -mtune=generic -march=x86-64 -g -O0 -fpre-include=/usr/include/finclude/math-vector-fortran.h
REM seed 942897524 -1328769879 371087817 -1997602917 816823747 725954813 2147284285 -2084282161 -1158471080 -2015630343 604480544 1372126093 511705846 200043007 856633954 -1651515875 -1798438351 -1308391458 1119915060 -793013715 -1395899366 -545610967 -21515570 2088487557 -776368259 1006309885 -1541007979 -540615857 1149606610 1705816006 414570009 -1614103436 -1096899647
REM
CELL 1.54180   50.00000   50.00000   50.00000   90.00000   90.00000   90.00000
LATT -1
SFAC C  
C      1  0.4761730000000  0.5662820000000  0.5626000000000 1.0
C      1  0.5549930000000  0.4956420000000  0.5595770000000 1.0
C      1  0.4268070000000  0.4744250000000  0.5416310000000 1.0
C      1  0.4792660000000  0.4281780000000  0.5498790000000 1.0
C      1  0.5220150000000  0.5333020000000  0.5475820000000 1.0
C      1  0.5061780000000  0.5523070000000  0.4965350000000 1.0
C      1  0.5510170000000  0.5356060000000  0.5207310000000 1.0
C      1  0.4991500000000  0.5514160000000  0.4573440000000 1.0
C      1  0.4903540000000  0.4458200000000  0.5242340000000 1.0
C      1  0.5378290000000  0.5613110000000  0.4573380000000 1.0
C      1  0.5000480000000  0.5016840000000  0.5834760000000 1.0
C      1  0.4066250000000  0.4721840000000  0.4641580000000 1.0
C      1  0.5582040000000  0.4352780000000  0.5127380000000 1.0
C      1  0.4744690000000  0.5071200000000  0.4784170000000 1.0
C      1  0.5621230000000  0.5088300000000  0.4424170000000 1.0
C      1  0.4878830000000  0.5920500000000  0.5212980000000 1.0
C      1  0.4523050000000  0.4772240000000  0.4975520000000 1.0
C      1  0.4795640000000  0.5840310000000  0.4688800000000 1.0
C      1  0.4422330000000  0.4431800000000  0.4487010000000 1.0
C      1  0.5710410000000  0.5518890000000  0.5600520000000 1.0
C      1  0.4090800000000  0.4864160000000  0.4919890000000 1.0
C      1  0.4538400000000  0.4280970000000  0.5272930000000 1.0
C      1  0.4730670000000  0.4843320000000  0.5727900000000 1.0
C      1  0.5322410000000  0.4211230000000  0.5049420000000 1.0
C      1  0.5863260000000  0.5052170000000  0.4838530000000 1.0
C      1  0.5700510000000  0.5672010000000  0.5357890000000 1.0
C      1  0.4783770000000  0.5485870000000  0.5832550000000 1.0
C      1  0.5833500000000  0.5128340000000  0.5148690000000 1.0
C      1  0.5206250000000  0.5498960000000  0.4321590000000 1.0
C      1  0.5192520000000  0.4542620000000  0.4356270000000 1.0
C      1  0.5922450000000  0.4788910000000  0.4748280000000 1.0
C      1  0.4695730000000  0.4949860000000  0.5160610000000 1.0
C      1  0.4578270000000  0.4810900000000  0.4648950000000 1.0
C      1  0.4643640000000  0.4522910000000  0.4806730000000 1.0
C      1  0.5655130000000  0.5496960000000  0.4734590000000 1.0
C      1  0.4804310000000  0.4338230000000  0.4980110000000 1.0
C      1  0.5551340000000  0.4674680000000  0.5510880000000 1.0
C      1  0.4667950000000  0.5601290000000  0.4511680000000 1.0
C      1  0.4381420000000  0.5341500000000  0.5491820000000 1.0
C      1  0.5141630000000  0.5806600000000  0.4695220000000 1.0
C      1  0.5308240000000  0.5092110000000  0.4821700000000 1.0
C      1  0.5431000000000  0.4600270000000  0.4472070000000 1.0
C      1  0.4411150000000  0.5188950000000  0.4375370000000 1.0
C      1  0.4404620000000  0.5546880000000  0.4681590000000 1.0
C      1  0.5104740000000  0.4729470000000  0.4944110000000 1.0
C      1  0.4408590000000  0.5636260000000  0.4947920000000 1.0
C      1  0.5574900000000  0.4665650000000  0.4991890000000 1.0
C      1  0.5276610000000  0.4848370000000  0.5757380000000 1.0
C      1  0.4729060000000  0.5187310000000  0.5822540000000 1.0
C      1  0.4285850000000  0.5289480000000  0.4614560000000 1.0
C      1  0.4564970000000  0.5794290000000  0.5190640000000 1.0
C      1  0.5314860000000  0.5742880000000  0.5024820000000 1.0
C      1  0.4888120000000  0.4081650000000  0.4929140000000 1.0
C      1  0.5290910000000  0.4320680000000  0.5578880000000 1.0
C      1  0.5130440000000  0.4499330000000  0.4814410000000 1.0
C      1  0.5203430000000  0.4447760000000  0.5209910000000 1.0
C      1  0.4521720000000  0.5629940000000  0.5452960000000 1.0
C      1  0.5214910000000  0.5623330000000  0.5461330000000 1.0
C      1  0.5104420000000  0.3912500000000  0.5330670000000 1.0
C      1  0.5005210000000  0.5243790000000  0.4779860000000 1.0
C      1  0.4877410000000  0.4577000000000  0.5622890000000 1.0
C      1  0.4458660000000  0.4887120000000  0.4361590000000 1.0
C      1  0.4676040000000  0.4766900000000  0.4144050000000 1.0
C      1  0.5674180000000  0.5547090000000  0.5052010000000 1.0
C      1  0.4641170000000  0.5349460000000  0.4317000000000 1.0
C      1  0.5031400000000  0.4950240000000  0.5154630000000 1.0
C      1  0.3841470000000  0.4936720000000  0.5031080000000 1.0
C      1  0.4959320000000  0.4315950000000  0.4368630000000 1.0
C      1  0.5266670000000  0.5190220000000  0.5750490000000 1.0
C      1  0.5413470000000  0.5739530000000  0.5286120000000 1.0
C      1  0.5180320000000  0.4564860000000  0.5690150000000 1.0
C      1  0.5535070000000  0.4989850000000  0.5058420000000 1.0
C      1  0.5262600000000  0.5122590000000  0.5217510000000 1.0
C      1  0.4378470000000  0.4377080000000  0.5067400000000 1.0
C      1  0.5375950000000  0.4670350000000  0.5249100000000 1.0
C      1  0.4468770000000  0.5135770000000  0.5659050000000 1.0
C      1  0.4687230000000  0.4492510000000  0.4345580000000 1.0
C      1  0.4807060000000  0.5682650000000  0.4981030000000 1.0
C      1  0.4452080000000  0.5412260000000  0.5178130000000 1.0
C      1  0.4851440000000  0.4756890000000  0.5355360000000 1.0
C      1  0.6082490000000  0.5224280000000  0.5238130000000 1.0
C      1  0.4910820000000  0.4930820000000  0.4103790000000 1.0
C      1  0.4941940000000  0.4706240000000  0.4433250000000 1.0
C      1  0.4426420000000  0.4852340000000  0.5601560000000 1.0
C      1  0.5197190000000  0.5342500000000  0.4105720000000 1.0
C      1  0.4873390000000  0.5191920000000  0.4285400000000 1.0
C      1  0.5426030000000  0.4810220000000  0.4722050000000 1.0
C      1  0.4260210000000  0.4675220000000  0.5115500000000 1.0
C      1  0.5131580000000  0.3995490000000  0.5055740000000 1.0
C      1  0.5439210000000  0.4971780000000  0.4254780000000 1.0
C      1  0.4973540000000  0.5774190000000  0.5477830000000 1.0
C      1  0.5709340000000  0.4663970000000  0.4614550000000 1.0
C      1  0.4258380000000  0.4662580000000  0.4461070000000 1.0
C      1  0.5358530000000  0.5409960000000  0.4841380000000 1.0
C      1  0.4984750000000  0.6027030000000  0.4907440000000 1.0
C      1  0.5077640000000  0.4127760000000  0.5517040000000 1.0
C      1  0.5559350000000  0.4366690000000  0.5429720000000 1.0
C      1  0.5749960000000  0.5217900000000  0.4642320000000 1.0
C      1  0.4267810000000  0.5110270000000  0.4840460000000 1.0
C      1  0.5542190000000  0.5358910000000  0.5743130000000 1.0
C      1  0.5074340000000  0.4293650000000  0.4645750000000 1.0
C      1  0.4907360000000  0.4978260000000  0.4500410000000 1.0
C      1  0.4516980000000  0.5169300000000  0.5017260000000 1.0
C      1  0.5204830000000  0.5054320000000  0.4110930000000 1.0
C      1  0.5621320000000  0.5145740000000  0.5414130000000 1.0
C      1  0.4405130000000  0.4303610000000  0.4762740000000 1.0
END
