TITL C-2778423-5760-512 -0.00910120807051146 125000 -1085.26425565804 0 0 187 (C1) n - 1
REM
REM in /home/nfs/bkarasulu/CARBON/AIRSS/Generating-Clusters/REBO/Only-C1/SD-CG/HFTN-CG
REM
REM
REM
REM
REM
REM ./C.cell (11c1c37f851c82e70ff6c80c92926a4b)
REM
REM compiler GCC version 9.2.1 20190827 (Red Hat 9.2.1-1)
REM options -cpp -mtune=generic -march=x86-64 -g -O0 -fpre-include=/usr/include/finclude/math-vector-fortran.h
REM seed -375251223 -340261074 1783518694 808549754 1543861463 1050177386 1880846487 1633322356 1777157770 1621963729 -1471986767 69138165 634759996 -1559358169 1678840423 1470480576 366638842 1555181057 -477571786 11045711 -1246275500 -1254510045 1245730687 2139096001 -652631153 530170511 1860358521 2043933628 -1040879804 1162820778 157577988 1596782673 -572980411
REM
CELL 1.54180   50.00000   50.00000   50.00000   90.00000   90.00000   90.00000
LATT -1
SFAC C  
C      1  0.4689100000000  0.5751270000000  0.5002230000000 1.0
C      1  0.5233990000000  0.4715920000000  0.4423180000000 1.0
C      1  0.5353660000000  0.3934770000000  0.4753700000000 1.0
C      1  0.5169210000000  0.5506210000000  0.5882250000000 1.0
C      1  0.4159320000000  0.5654360000000  0.5399100000000 1.0
C      1  0.5076480000000  0.4974690000000  0.4441400000000 1.0
C      1  0.4952870000000  0.5789400000000  0.4190630000000 1.0
C      1  0.6155710000000  0.4763190000000  0.4873660000000 1.0
C      1  0.3912470000000  0.4705970000000  0.4425640000000 1.0
C      1  0.4838200000000  0.5412370000000  0.5144860000000 1.0
C      1  0.5353570000000  0.4625290000000  0.5056110000000 1.0
C      1  0.5068580000000  0.4408680000000  0.5245310000000 1.0
C      1  0.5561770000000  0.4331660000000  0.4313270000000 1.0
C      1  0.5110100000000  0.4001760000000  0.4525500000000 1.0
C      1  0.4860150000000  0.4134050000000  0.5009600000000 1.0
C      1  0.5196150000000  0.5285340000000  0.4748750000000 1.0
C      1  0.5329210000000  0.5929910000000  0.4582490000000 1.0
C      1  0.5763610000000  0.5112110000000  0.5139310000000 1.0
C      1  0.3545550000000  0.4220880000000  0.5699000000000 1.0
C      1  0.5340370000000  0.4333020000000  0.4784540000000 1.0
C      1  0.5880160000000  0.5550900000000  0.5128770000000 1.0
C      1  0.5890640000000  0.4617710000000  0.5009900000000 1.0
C      1  0.5671380000000  0.5928910000000  0.4189260000000 1.0
C      1  0.5660630000000  0.5393070000000  0.5302750000000 1.0
C      1  0.4830870000000  0.5741980000000  0.5494120000000 1.0
C      1  0.5210280000000  0.3922600000000  0.4269990000000 1.0
C      1  0.6292040000000  0.4560800000000  0.4681930000000 1.0
C      1  0.5879450000000  0.5833230000000  0.5125390000000 1.0
C      1  0.5599380000000  0.5324130000000  0.4046550000000 1.0
C      1  0.5646120000000  0.4895360000000  0.5708540000000 1.0
C      1  0.5310550000000  0.5685560000000  0.5063630000000 1.0
C      1  0.4051980000000  0.5350030000000  0.5286660000000 1.0
C      1  0.5222880000000  0.5287530000000  0.4989790000000 1.0
C      1  0.4880900000000  0.6135990000000  0.5529520000000 1.0
C      1  0.4590660000000  0.4895370000000  0.4680570000000 1.0
C      1  0.4616890000000  0.6077740000000  0.5532020000000 1.0
C      1  0.4459800000000  0.4739150000000  0.4207540000000 1.0
C      1  0.5767860000000  0.5943070000000  0.4476350000000 1.0
C      1  0.5646190000000  0.5690520000000  0.4626630000000 1.0
C      1  0.5691000000000  0.5525260000000  0.5856570000000 1.0
C      1  0.4961950000000  0.5999420000000  0.4360360000000 1.0
C      1  0.5644990000000  0.4675300000000  0.5551240000000 1.0
C      1  0.4940980000000  0.5748350000000  0.5915460000000 1.0
C      1  0.4192230000000  0.5959780000000  0.4696660000000 1.0
C      1  0.4787480000000  0.4048910000000  0.5497820000000 1.0
C      1  0.5366520000000  0.5872530000000  0.4305460000000 1.0
C      1  0.4052440000000  0.5851420000000  0.5185240000000 1.0
C      1  0.5000520000000  0.5384320000000  0.5397300000000 1.0
C      1  0.5536770000000  0.4357840000000  0.5061580000000 1.0
C      1  0.5250030000000  0.5390320000000  0.4475280000000 1.0
C      1  0.4463260000000  0.4841090000000  0.4966300000000 1.0
C      1  0.5652010000000  0.4793950000000  0.5088060000000 1.0
C      1  0.4823810000000  0.4241150000000  0.4144360000000 1.0
C      1  0.5144900000000  0.4527060000000  0.4630180000000 1.0
C      1  0.4963300000000  0.4310520000000  0.4521140000000 1.0
C      1  0.4672490000000  0.4077550000000  0.4318640000000 1.0
C      1  0.3951380000000  0.4393190000000  0.4393580000000 1.0
C      1  0.5118180000000  0.5626370000000  0.5583390000000 1.0
C      1  0.4866570000000  0.4772380000000  0.4119110000000 1.0
C      1  0.4876670000000  0.4503920000000  0.4101660000000 1.0
C      1  0.5366360000000  0.5427410000000  0.5243290000000 1.0
C      1  0.5331640000000  0.4771820000000  0.5322930000000 1.0
C      1  0.4885660000000  0.5295610000000  0.5696150000000 1.0
C      1  0.4372460000000  0.5514310000000  0.5629090000000 1.0
C      1  0.6048900000000  0.5352610000000  0.4998600000000 1.0
C      1  0.4791660000000  0.3953510000000  0.4544250000000 1.0
C      1  0.4438140000000  0.4418670000000  0.5011250000000 1.0
C      1  0.5158780000000  0.5974860000000  0.5138910000000 1.0
C      1  0.6111080000000  0.5042540000000  0.5460280000000 1.0
C      1  0.3680680000000  0.4357500000000  0.5437000000000 1.0
C      1  0.5413620000000  0.4982050000000  0.5882830000000 1.0
C      1  0.4197950000000  0.4643570000000  0.4601040000000 1.0
C      1  0.5686250000000  0.4010530000000  0.4719130000000 1.0
C      1  0.5056630000000  0.4080230000000  0.5635340000000 1.0
C      1  0.4188430000000  0.4856920000000  0.4039350000000 1.0
C      1  0.5946480000000  0.4195860000000  0.4644050000000 1.0
C      1  0.5816890000000  0.5363720000000  0.4249180000000 1.0
C      1  0.4332920000000  0.5295090000000  0.5415910000000 1.0
C      1  0.3920440000000  0.4874850000000  0.4181230000000 1.0
C      1  0.5179600000000  0.4185450000000  0.5011380000000 1.0
C      1  0.4886350000000  0.4619970000000  0.6171610000000 1.0
C      1  0.4662190000000  0.5276100000000  0.4161460000000 1.0
C      1  0.5470790000000  0.4172730000000  0.4536730000000 1.0
C      1  0.4359290000000  0.5865460000000  0.4509370000000 1.0
C      1  0.4438670000000  0.5390980000000  0.4695840000000 1.0
C      1  0.4553320000000  0.5265250000000  0.5184420000000 1.0
C      1  0.5940290000000  0.5389180000000  0.4488980000000 1.0
C      1  0.5545230000000  0.4648170000000  0.4354600000000 1.0
C      1  0.4875650000000  0.5592040000000  0.3957610000000 1.0
C      1  0.4826900000000  0.3936390000000  0.5241050000000 1.0
C      1  0.5945930000000  0.4087940000000  0.5251700000000 1.0
C      1  0.6039070000000  0.4310200000000  0.5015570000000 1.0
C      1  0.3811660000000  0.4404870000000  0.5728490000000 1.0
C      1  0.3939220000000  0.4586750000000  0.5035390000000 1.0
C      1  0.5430420000000  0.4042960000000  0.5307920000000 1.0
C      1  0.4970700000000  0.6104840000000  0.4604160000000 1.0
C      1  0.5077970000000  0.4786810000000  0.6264160000000 1.0
C      1  0.5578000000000  0.6078770000000  0.4693740000000 1.0
C      1  0.4773220000000  0.4359410000000  0.5640790000000 1.0
C      1  0.5149790000000  0.6139000000000  0.5366600000000 1.0
C      1  0.5749470000000  0.4155360000000  0.4986880000000 1.0
C      1  0.4421900000000  0.5337610000000  0.6062230000000 1.0
C      1  0.4157700000000  0.4466700000000  0.4867940000000 1.0
C      1  0.6089500000000  0.4996070000000  0.4690920000000 1.0
C      1  0.4682250000000  0.5454990000000  0.4385150000000 1.0
C      1  0.4827970000000  0.5357830000000  0.4610240000000 1.0
C      1  0.4394030000000  0.4871030000000  0.5920190000000 1.0
C      1  0.5567500000000  0.5736840000000  0.4895910000000 1.0
C      1  0.4079060000000  0.5951420000000  0.4939730000000 1.0
C      1  0.5047880000000  0.5474160000000  0.4225610000000 1.0
C      1  0.4473750000000  0.5174740000000  0.4579810000000 1.0
C      1  0.5379720000000  0.4863550000000  0.3939570000000 1.0
C      1  0.5727440000000  0.5375530000000  0.5601910000000 1.0
C      1  0.4268130000000  0.5104650000000  0.6031770000000 1.0
C      1  0.4752000000000  0.5825120000000  0.5253030000000 1.0
C      1  0.5181140000000  0.5181520000000  0.4236680000000 1.0
C      1  0.3967760000000  0.4916790000000  0.5031930000000 1.0
C      1  0.4533550000000  0.5690860000000  0.4405120000000 1.0
C      1  0.5456550000000  0.5214130000000  0.6124740000000 1.0
C      1  0.4500200000000  0.5007680000000  0.5377230000000 1.0
C      1  0.5297230000000  0.3878480000000  0.5066790000000 1.0
C      1  0.4248960000000  0.4815650000000  0.5135570000000 1.0
C      1  0.5209270000000  0.5148380000000  0.5364190000000 1.0
C      1  0.4941890000000  0.6048450000000  0.4915530000000 1.0
C      1  0.5898350000000  0.4503420000000  0.4695320000000 1.0
C      1  0.4150220000000  0.4247150000000  0.4609180000000 1.0
C      1  0.4532470000000  0.5481790000000  0.4955840000000 1.0
C      1  0.5048040000000  0.4555890000000  0.4939420000000 1.0
C      1  0.4875170000000  0.5087230000000  0.6095500000000 1.0
C      1  0.6045700000000  0.4720690000000  0.4495370000000 1.0
C      1  0.4653780000000  0.4398230000000  0.4557560000000 1.0
C      1  0.5628630000000  0.4467720000000  0.5372710000000 1.0
C      1  0.4739090000000  0.4864870000000  0.5452050000000 1.0
C      1  0.4741640000000  0.4416250000000  0.4885530000000 1.0
C      1  0.3950480000000  0.4841340000000  0.4727340000000 1.0
C      1  0.5928910000000  0.5461770000000  0.6013420000000 1.0
C      1  0.6073440000000  0.5116380000000  0.5199860000000 1.0
C      1  0.4807020000000  0.5032840000000  0.4151750000000 1.0
C      1  0.6041160000000  0.5265750000000  0.4721980000000 1.0
C      1  0.5367110000000  0.6119060000000  0.5589620000000 1.0
C      1  0.4279510000000  0.4532600000000  0.4049040000000 1.0
C      1  0.4874960000000  0.4561540000000  0.5436770000000 1.0
C      1  0.4685300000000  0.4886920000000  0.5952400000000 1.0
C      1  0.5031460000000  0.3745600000000  0.5193410000000 1.0
C      1  0.3628540000000  0.5275120000000  0.5069700000000 1.0
C      1  0.5286000000000  0.4952250000000  0.6198180000000 1.0
C      1  0.4265030000000  0.5114990000000  0.3894010000000 1.0
C      1  0.4723740000000  0.5324930000000  0.6162790000000 1.0
C      1  0.5537540000000  0.5626510000000  0.4136030000000 1.0
C      1  0.4828870000000  0.4986730000000  0.5713130000000 1.0
C      1  0.4419270000000  0.4173000000000  0.4804590000000 1.0
C      1  0.5519350000000  0.5019570000000  0.5322810000000 1.0
C      1  0.4665710000000  0.4038220000000  0.4781580000000 1.0
C      1  0.5251620000000  0.4668630000000  0.4088780000000 1.0
C      1  0.5885710000000  0.5099400000000  0.5676010000000 1.0
C      1  0.4646370000000  0.5748340000000  0.5756240000000 1.0
C      1  0.5449140000000  0.5468980000000  0.6002640000000 1.0
C      1  0.4241290000000  0.4731150000000  0.5708360000000 1.0
C      1  0.5055900000000  0.4850390000000  0.5414200000000 1.0
C      1  0.4670040000000  0.5456860000000  0.5861310000000 1.0
C      1  0.5128530000000  0.5169150000000  0.5901870000000 1.0
C      1  0.5802770000000  0.4428970000000  0.4147490000000 1.0
C      1  0.5509280000000  0.5527490000000  0.4445400000000 1.0
C      1  0.4414020000000  0.4211530000000  0.4407850000000 1.0
C      1  0.5399100000000  0.5127480000000  0.4040080000000 1.0
C      1  0.4384230000000  0.5846160000000  0.5571610000000 1.0
C      1  0.3882190000000  0.5185330000000  0.5138540000000 1.0
C      1  0.4907950000000  0.5547010000000  0.4839130000000 1.0
C      1  0.4033010000000  0.4557040000000  0.5780190000000 1.0
C      1  0.5220140000000  0.4191340000000  0.5426220000000 1.0
C      1  0.6229670000000  0.4292260000000  0.4760330000000 1.0
C      1  0.5012040000000  0.4230440000000  0.5882080000000 1.0
C      1  0.4706910000000  0.6150140000000  0.5022010000000 1.0
C      1  0.5100050000000  0.5944650000000  0.5708580000000 1.0
C      1  0.6023940000000  0.5208860000000  0.5945220000000 1.0
C      1  0.4488530000000  0.4669210000000  0.4501790000000 1.0
C      1  0.5687980000000  0.6018680000000  0.4983510000000 1.0
C      1  0.4277520000000  0.4794040000000  0.5436000000000 1.0
C      1  0.4815900000000  0.4451630000000  0.5965440000000 1.0
C      1  0.3774960000000  0.4457780000000  0.5201000000000 1.0
C      1  0.5132270000000  0.5790850000000  0.4791310000000 1.0
C      1  0.5679690000000  0.4162350000000  0.5379320000000 1.0
C      1  0.4861130000000  0.5068980000000  0.4605690000000 1.0
C      1  0.5848640000000  0.4713520000000  0.4266950000000 1.0
C      1  0.4451320000000  0.5296280000000  0.3973140000000 1.0
C      1  0.3720420000000  0.5023250000000  0.4095690000000 1.0
C      1  0.4191000000000  0.4325870000000  0.4219230000000 1.0
END
