TITL C-2778429-3646-647 0.0037317683348794 125000 -518.645353278453 0 0 91 (C1) n - 1
REM
REM in /home/nfs/bkarasulu/CARBON/AIRSS/Generating-Clusters/REBO/Only-C1/SD-CG/HFTN-CG
REM
REM
REM
REM
REM
REM ./C.cell (11c1c37f851c82e70ff6c80c92926a4b)
REM
REM compiler GCC version 9.2.1 20190827 (Red Hat 9.2.1-1)
REM options -cpp -mtune=generic -march=x86-64 -g -O0 -fpre-include=/usr/include/finclude/math-vector-fortran.h
REM seed 1860864779 -861328890 -1138234868 511126363 -2109108084 -99868047 358622225 1737017869 -693137272 125693205 -525922211 135974391 872778942 -922307234 -1845341095 -1893462046 641382573 2112979517 -1240720625 -614279554 1631307169 902856145 -1279585545 -1052111255 -1458707507 42913340 -1999256572 -44027509 -1037651298 -1298267423 1758957848 1081308401 612369858
REM
CELL 1.54180   50.00000   50.00000   50.00000   90.00000   90.00000   90.00000
LATT -1
SFAC C  
C      1  0.4378410000000  0.4683600000000  0.5387580000000 1.0
C      1  0.5288990000000  0.5060660000000  0.5857070000000 1.0
C      1  0.5675170000000  0.5144730000000  0.5512970000000 1.0
C      1  0.4652470000000  0.4593760000000  0.5570820000000 1.0
C      1  0.4414350000000  0.5549730000000  0.4741070000000 1.0
C      1  0.4930890000000  0.5916020000000  0.4709660000000 1.0
C      1  0.5984710000000  0.5454800000000  0.4965570000000 1.0
C      1  0.5468700000000  0.5423850000000  0.4652810000000 1.0
C      1  0.5127670000000  0.5050280000000  0.5254970000000 1.0
C      1  0.4726040000000  0.5489220000000  0.4499760000000 1.0
C      1  0.5541330000000  0.5167870000000  0.4951300000000 1.0
C      1  0.4456490000000  0.4937190000000  0.5561780000000 1.0
C      1  0.4652690000000  0.5201300000000  0.4348900000000 1.0
C      1  0.4360510000000  0.5216650000000  0.4791510000000 1.0
C      1  0.5559710000000  0.4797120000000  0.5353330000000 1.0
C      1  0.4477380000000  0.4279050000000  0.4741880000000 1.0
C      1  0.5539900000000  0.4500550000000  0.5429340000000 1.0
C      1  0.4689260000000  0.4161230000000  0.5231200000000 1.0
C      1  0.5046050000000  0.4475030000000  0.5285590000000 1.0
C      1  0.4219550000000  0.4831120000000  0.5152850000000 1.0
C      1  0.4615360000000  0.4648740000000  0.5067590000000 1.0
C      1  0.6146340000000  0.5237340000000  0.5009930000000 1.0
C      1  0.4606660000000  0.4865850000000  0.4014530000000 1.0
C      1  0.4978080000000  0.5286960000000  0.4871400000000 1.0
C      1  0.5893190000000  0.4898430000000  0.4721840000000 1.0
C      1  0.5337340000000  0.4332170000000  0.5293650000000 1.0
C      1  0.4488450000000  0.5220040000000  0.5729550000000 1.0
C      1  0.4993600000000  0.5300570000000  0.4531420000000 1.0
C      1  0.5290910000000  0.5228110000000  0.4635340000000 1.0
C      1  0.5320000000000  0.4942670000000  0.5476150000000 1.0
C      1  0.5165050000000  0.4479830000000  0.4816450000000 1.0
C      1  0.5611210000000  0.4633900000000  0.5059490000000 1.0
C      1  0.5302500000000  0.5280220000000  0.5526670000000 1.0
C      1  0.5747280000000  0.4941180000000  0.5943530000000 1.0
C      1  0.4349630000000  0.4835020000000  0.4111650000000 1.0
C      1  0.4833890000000  0.5053920000000  0.5351370000000 1.0
C      1  0.5225820000000  0.5355720000000  0.4009180000000 1.0
C      1  0.5121640000000  0.4279100000000  0.5035580000000 1.0
C      1  0.5567530000000  0.5054400000000  0.5769400000000 1.0
C      1  0.4841200000000  0.5567630000000  0.5320400000000 1.0
C      1  0.5116940000000  0.5928840000000  0.4917070000000 1.0
C      1  0.4856560000000  0.4128210000000  0.4997240000000 1.0
C      1  0.5354160000000  0.4721080000000  0.4431250000000 1.0
C      1  0.5509430000000  0.4982510000000  0.4364580000000 1.0
C      1  0.4871860000000  0.4991930000000  0.4954260000000 1.0
C      1  0.6031050000000  0.5018200000000  0.5128510000000 1.0
C      1  0.3919320000000  0.4640150000000  0.4795610000000 1.0
C      1  0.4744050000000  0.4172640000000  0.4733360000000 1.0
C      1  0.5171600000000  0.4737090000000  0.5656010000000 1.0
C      1  0.4203840000000  0.5142670000000  0.4495640000000 1.0
C      1  0.4788690000000  0.4900590000000  0.5634620000000 1.0
C      1  0.5642090000000  0.4326070000000  0.5085240000000 1.0
C      1  0.4348670000000  0.5125870000000  0.5083360000000 1.0
C      1  0.4860600000000  0.5547280000000  0.4987420000000 1.0
C      1  0.5862780000000  0.4731970000000  0.4906270000000 1.0
C      1  0.5389570000000  0.5856150000000  0.4953030000000 1.0
C      1  0.4399470000000  0.5401850000000  0.4441610000000 1.0
C      1  0.5728450000000  0.5026610000000  0.5198170000000 1.0
C      1  0.4195690000000  0.5732750000000  0.4841380000000 1.0
C      1  0.4196800000000  0.4948870000000  0.4308530000000 1.0
C      1  0.4780230000000  0.5042200000000  0.4123490000000 1.0
C      1  0.4793400000000  0.5273430000000  0.5778930000000 1.0
C      1  0.5329800000000  0.4928040000000  0.4712290000000 1.0
C      1  0.5361490000000  0.5588870000000  0.5422400000000 1.0
C      1  0.4977760000000  0.4551370000000  0.5672020000000 1.0
C      1  0.4612600000000  0.4959880000000  0.5151890000000 1.0
C      1  0.4772590000000  0.4859040000000  0.4702180000000 1.0
C      1  0.4398190000000  0.4511860000000  0.4878390000000 1.0
C      1  0.5008170000000  0.5062240000000  0.5825120000000 1.0
C      1  0.4826690000000  0.4330260000000  0.5468320000000 1.0
C      1  0.5373390000000  0.5152900000000  0.4197720000000 1.0
C      1  0.4502150000000  0.4399360000000  0.5247770000000 1.0
C      1  0.5657990000000  0.5072030000000  0.4646240000000 1.0
C      1  0.5226470000000  0.5159890000000  0.5027180000000 1.0
C      1  0.5693480000000  0.5430150000000  0.5058710000000 1.0
C      1  0.4741330000000  0.5343690000000  0.5453590000000 1.0
C      1  0.5037200000000  0.5189570000000  0.4239440000000 1.0
C      1  0.4429380000000  0.5223740000000  0.5389600000000 1.0
C      1  0.4160830000000  0.4658000000000  0.4930100000000 1.0
C      1  0.4967920000000  0.5826470000000  0.5158230000000 1.0
C      1  0.5495940000000  0.5671720000000  0.5124060000000 1.0
C      1  0.3690840000000  0.4623270000000  0.4668370000000 1.0
C      1  0.5644730000000  0.5413250000000  0.5379470000000 1.0
C      1  0.5104050000000  0.5737810000000  0.5444520000000 1.0
C      1  0.4919890000000  0.4322570000000  0.4545880000000 1.0
C      1  0.5352280000000  0.4701960000000  0.4905960000000 1.0
C      1  0.4714760000000  0.5680090000000  0.4744710000000 1.0
C      1  0.5216590000000  0.4477580000000  0.4484830000000 1.0
C      1  0.4929050000000  0.4719830000000  0.5151120000000 1.0
C      1  0.4569990000000  0.5030250000000  0.4598930000000 1.0
C      1  0.4893250000000  0.4621770000000  0.4660320000000 1.0
END
