TITL C-2778431-5191-447 1.22094942127027e-05 125000 -64.6338434526362 0 0 13 (C1) n - 1
REM
REM in /home/nfs/bkarasulu/CARBON/AIRSS/Generating-Clusters/REBO/Only-C1/SD-CG/HFTN-CG
REM
REM
REM
REM
REM
REM ./C.cell (11c1c37f851c82e70ff6c80c92926a4b)
REM
REM compiler GCC version 9.2.1 20190827 (Red Hat 9.2.1-1)
REM options -cpp -mtune=generic -march=x86-64 -g -O0 -fpre-include=/usr/include/finclude/math-vector-fortran.h
REM seed 1507325113 -812059848 32503783 2037232405 396537901 -42543418 -217136499 -979716765 -1079433192 -1794543738 1504018421 244804334 80482461 1942904989 -1834213601 862451818 -71315755 1232795715 -1046887907 -1676812542 -1471326179 2016754016 -914270136 1232461902 -1724158228 -283175848 2100388740 1641314013 736383943 -264913475 -940134627 424279066 2075661575
REM
CELL 1.54180   50.00000   50.00000   50.00000   90.00000   90.00000   90.00000
LATT -1
SFAC C  
C      1  0.5055470000000  0.4829130000000  0.5394060000000 1.0
C      1  0.4500820000000  0.5099030000000  0.4694150000000 1.0
C      1  0.5103400000000  0.4960340000000  0.4890250000000 1.0
C      1  0.5227240000000  0.4823270000000  0.5670050000000 1.0
C      1  0.4963890000000  0.4932560000000  0.4603310000000 1.0
C      1  0.5271490000000  0.4846910000000  0.4643500000000 1.0
C      1  0.4514900000000  0.5160590000000  0.4960120000000 1.0
C      1  0.5497080000000  0.4752220000000  0.4544430000000 1.0
C      1  0.5234830000000  0.5091270000000  0.5484440000000 1.0
C      1  0.5010350000000  0.5055160000000  0.5156030000000 1.0
C      1  0.5204510000000  0.5307320000000  0.5277150000000 1.0
C      1  0.4713010000000  0.5144270000000  0.5142680000000 1.0
C      1  0.4703000000000  0.4997920000000  0.4539840000000 1.0
END
