TITL C-2778437-8639-817 -0.000473186499194115 125000 -143.627992526597 0 0 26 (C1) n - 1
REM
REM in /home/nfs/bkarasulu/CARBON/AIRSS/Generating-Clusters/REBO/Only-C1/SD-CG/HFTN-CG
REM
REM
REM
REM
REM
REM ./C.cell (11c1c37f851c82e70ff6c80c92926a4b)
REM
REM compiler GCC version 9.2.1 20190827 (Red Hat 9.2.1-1)
REM options -cpp -mtune=generic -march=x86-64 -g -O0 -fpre-include=/usr/include/finclude/math-vector-fortran.h
REM seed 1128231762 2076507125 1470086864 1633107793 956861373 -546450917 720152337 -279713629 1571013835 -462419471 1723962163 1484923949 -1419494703 -1361397661 -712244740 1250109380 -1790458690 -482604871 -1712847466 -862955931 1536801360 -300059696 -1510423708 -1806696037 1479083828 -1009243230 -1859880860 1803641279 -305735290 -121382501 -738398421 -614080718 115921740
REM
CELL 1.54180   50.00000   50.00000   50.00000   90.00000   90.00000   90.00000
LATT -1
SFAC C  
C      1  0.5285270000000  0.4451860000000  0.5120970000000 1.0
C      1  0.4686290000000  0.4677090000000  0.4368400000000 1.0
C      1  0.4754660000000  0.5288150000000  0.5447590000000 1.0
C      1  0.4847940000000  0.4824790000000  0.4519970000000 1.0
C      1  0.5019910000000  0.5145650000000  0.5508650000000 1.0
C      1  0.5486860000000  0.5273930000000  0.4780830000000 1.0
C      1  0.5128720000000  0.4686590000000  0.5094800000000 1.0
C      1  0.4870120000000  0.5586160000000  0.5046820000000 1.0
C      1  0.4946620000000  0.4820150000000  0.5551500000000 1.0
C      1  0.5389260000000  0.5382730000000  0.5227270000000 1.0
C      1  0.5341830000000  0.5475670000000  0.4942760000000 1.0
C      1  0.5440790000000  0.5022040000000  0.4921570000000 1.0
C      1  0.5413190000000  0.5089520000000  0.5206530000000 1.0
C      1  0.5060670000000  0.5484330000000  0.4864590000000 1.0
C      1  0.4524640000000  0.4529390000000  0.4216830000000 1.0
C      1  0.4705060000000  0.4488310000000  0.4896800000000 1.0
C      1  0.5195940000000  0.4910090000000  0.5336600000000 1.0
C      1  0.4365560000000  0.4384050000000  0.4067660000000 1.0
C      1  0.5378100000000  0.5534290000000  0.5450400000000 1.0
C      1  0.4712510000000  0.4716690000000  0.5337600000000 1.0
C      1  0.4827940000000  0.4625520000000  0.5101530000000 1.0
C      1  0.4986630000000  0.5262230000000  0.4700110000000 1.0
C      1  0.5017230000000  0.4979470000000  0.4678710000000 1.0
C      1  0.4654550000000  0.4995640000000  0.5487790000000 1.0
C      1  0.4745340000000  0.5505830000000  0.5274440000000 1.0
C      1  0.5214380000000  0.4859820000000  0.4849290000000 1.0
END
