TITL C-2778422-5617-649 -0.000223891619864436 125000 -325.601727495893 0 0 58 (C1) n - 1
REM
REM in /home/nfs/bkarasulu/CARBON/AIRSS/Generating-Clusters/REBO/Only-C1/SD-CG/HFTN-CG
REM
REM
REM
REM
REM
REM ./C.cell (11c1c37f851c82e70ff6c80c92926a4b)
REM
REM compiler GCC version 9.2.1 20190827 (Red Hat 9.2.1-1)
REM options -cpp -mtune=generic -march=x86-64 -g -O0 -fpre-include=/usr/include/finclude/math-vector-fortran.h
REM seed -537726948 -990885349 1388885885 -1799007001 746668932 1494067243 144909728 1562844278 -73048011 -231728096 1238384819 -1165891093 1322885843 -757061817 -1470519943 540504954 -1376189137 20970512 1825267389 1954807749 -1855968751 -737785698 87798110 -255439516 387751442 400054106 -1030908679 -130343782 -1361481900 -1591645903 823081053 1100558541 502805551
REM
CELL 1.54180   50.00000   50.00000   50.00000   90.00000   90.00000   90.00000
LATT -1
SFAC C  
C      1  0.5570670000000  0.5543440000000  0.5483710000000 1.0
C      1  0.5282220000000  0.4673550000000  0.4890420000000 1.0
C      1  0.4425520000000  0.5008400000000  0.5437050000000 1.0
C      1  0.5179200000000  0.4737720000000  0.5502720000000 1.0
C      1  0.4761850000000  0.5264810000000  0.4418880000000 1.0
C      1  0.5478610000000  0.4529940000000  0.4647830000000 1.0
C      1  0.4666700000000  0.4819380000000  0.5298530000000 1.0
C      1  0.4279090000000  0.4710290000000  0.5024830000000 1.0
C      1  0.5471300000000  0.5012970000000  0.4614550000000 1.0
C      1  0.4459370000000  0.5325800000000  0.5383540000000 1.0
C      1  0.5091480000000  0.5649000000000  0.4707330000000 1.0
C      1  0.5436950000000  0.5264290000000  0.4741570000000 1.0
C      1  0.5145300000000  0.5307910000000  0.5548370000000 1.0
C      1  0.4523320000000  0.5454850000000  0.4886220000000 1.0
C      1  0.4976410000000  0.4459470000000  0.5032790000000 1.0
C      1  0.5731750000000  0.4765050000000  0.4997340000000 1.0
C      1  0.5139070000000  0.5349650000000  0.4699440000000 1.0
C      1  0.4772850000000  0.4279160000000  0.4549230000000 1.0
C      1  0.4728540000000  0.5650510000000  0.5027570000000 1.0
C      1  0.5185820000000  0.4941500000000  0.4443990000000 1.0
C      1  0.4491360000000  0.4648050000000  0.4874040000000 1.0
C      1  0.4809140000000  0.4599550000000  0.5507440000000 1.0
C      1  0.5053630000000  0.4468180000000  0.5355600000000 1.0
C      1  0.5030180000000  0.5214660000000  0.4455150000000 1.0
C      1  0.5077990000000  0.4716850000000  0.4664370000000 1.0
C      1  0.4201400000000  0.5119520000000  0.4295180000000 1.0
C      1  0.4348870000000  0.5357680000000  0.5076100000000 1.0
C      1  0.5321740000000  0.4964690000000  0.4996720000000 1.0
C      1  0.4665760000000  0.4887890000000  0.4332290000000 1.0
C      1  0.4927140000000  0.5790660000000  0.4829770000000 1.0
C      1  0.4928230000000  0.4729100000000  0.4371260000000 1.0
C      1  0.5094410000000  0.5137260000000  0.4944350000000 1.0
C      1  0.5443740000000  0.4807900000000  0.5423450000000 1.0
C      1  0.4907310000000  0.4894030000000  0.5634580000000 1.0
C      1  0.4961720000000  0.5282460000000  0.5290290000000 1.0
C      1  0.4874430000000  0.4423470000000  0.4339700000000 1.0
C      1  0.4811230000000  0.4739730000000  0.4935920000000 1.0
C      1  0.5540160000000  0.4656030000000  0.5195170000000 1.0
C      1  0.5623380000000  0.4788190000000  0.4718770000000 1.0
C      1  0.4545730000000  0.5629190000000  0.5292670000000 1.0
C      1  0.4852870000000  0.5008510000000  0.5116270000000 1.0
C      1  0.5742060000000  0.5346940000000  0.5126450000000 1.0
C      1  0.5039390000000  0.5157830000000  0.5753480000000 1.0
C      1  0.5273180000000  0.5579520000000  0.5056760000000 1.0
C      1  0.5299640000000  0.4455030000000  0.5125480000000 1.0
C      1  0.5011560000000  0.5521960000000  0.5113620000000 1.0
C      1  0.4483230000000  0.4567260000000  0.5458150000000 1.0
C      1  0.5429820000000  0.5314110000000  0.5519240000000 1.0
C      1  0.4729790000000  0.5153360000000  0.5501450000000 1.0
C      1  0.5861420000000  0.5033430000000  0.5104990000000 1.0
C      1  0.5546640000000  0.5055450000000  0.5513480000000 1.0
C      1  0.5509750000000  0.5451590000000  0.4951660000000 1.0
C      1  0.4275050000000  0.4747360000000  0.5305960000000 1.0
C      1  0.4548230000000  0.5342700000000  0.4640740000000 1.0
C      1  0.4741070000000  0.4430310000000  0.4799700000000 1.0
C      1  0.4702340000000  0.4012470000000  0.4537840000000 1.0
C      1  0.5534120000000  0.5088980000000  0.5115570000000 1.0
C      1  0.4456260000000  0.5130370000000  0.4390390000000 1.0
END
