TITL C-2778432-5617-15 -0.00176959105922169 125000 -692.900074669067 0 0 120 (C1) n - 1
REM
REM in /home/nfs/bkarasulu/CARBON/AIRSS/Generating-Clusters/REBO/Only-C1/SD-CG/HFTN-CG
REM
REM
REM
REM
REM
REM ./C.cell (11c1c37f851c82e70ff6c80c92926a4b)
REM
REM compiler GCC version 9.2.1 20190827 (Red Hat 9.2.1-1)
REM options -cpp -mtune=generic -march=x86-64 -g -O0 -fpre-include=/usr/include/finclude/math-vector-fortran.h
REM seed -203004800 1303468300 1855094772 391192194 1830149958 1702844744 146797004 1923317345 1717389968 -1443799556 -1348170372 238341983 -1842037518 -1693088413 -1864875829 -749049751 1170098585 -1609487242 -651276670 975036120 2060164256 -1152177369 581702716 420284926 2073182610 -784080542 -1531869012 -259060383 -1855189053 810297175 2017288717 -2041374058 -568422469
REM
CELL 1.54180   50.00000   50.00000   50.00000   90.00000   90.00000   90.00000
LATT -1
SFAC C  
C      1  0.4614670000000  0.5161450000000  0.4665230000000 1.0
C      1  0.5735340000000  0.4499130000000  0.4737370000000 1.0
C      1  0.5520450000000  0.5138630000000  0.5537550000000 1.0
C      1  0.5018320000000  0.4897880000000  0.4749460000000 1.0
C      1  0.4855860000000  0.5065440000000  0.5106800000000 1.0
C      1  0.4095910000000  0.5325760000000  0.5291550000000 1.0
C      1  0.4871840000000  0.5949420000000  0.5125430000000 1.0
C      1  0.5459890000000  0.5119920000000  0.4506610000000 1.0
C      1  0.5820500000000  0.5156230000000  0.5397680000000 1.0
C      1  0.4429360000000  0.5690970000000  0.5069700000000 1.0
C      1  0.4701420000000  0.4991430000000  0.5402780000000 1.0
C      1  0.5363040000000  0.5625260000000  0.4588410000000 1.0
C      1  0.4347810000000  0.4978160000000  0.4618750000000 1.0
C      1  0.4367720000000  0.5316470000000  0.5702950000000 1.0
C      1  0.4246210000000  0.4723460000000  0.5194550000000 1.0
C      1  0.4370610000000  0.5227150000000  0.5132240000000 1.0
C      1  0.5119410000000  0.4699650000000  0.5732580000000 1.0
C      1  0.4456680000000  0.4249810000000  0.4814850000000 1.0
C      1  0.4682110000000  0.5808760000000  0.4974420000000 1.0
C      1  0.5021750000000  0.4400380000000  0.5698840000000 1.0
C      1  0.5163540000000  0.5054220000000  0.5083290000000 1.0
C      1  0.4330830000000  0.5560980000000  0.4808660000000 1.0
C      1  0.4439210000000  0.4608360000000  0.5558760000000 1.0
C      1  0.5506010000000  0.4389250000000  0.5441930000000 1.0
C      1  0.4364150000000  0.5332030000000  0.4290130000000 1.0
C      1  0.5185870000000  0.4337990000000  0.4750850000000 1.0
C      1  0.5851660000000  0.5182740000000  0.4495710000000 1.0
C      1  0.5241310000000  0.5642700000000  0.4864750000000 1.0
C      1  0.5517750000000  0.5470450000000  0.5560940000000 1.0
C      1  0.5383230000000  0.4499490000000  0.4298760000000 1.0
C      1  0.4395960000000  0.5369990000000  0.4556630000000 1.0
C      1  0.5119000000000  0.5191280000000  0.4702010000000 1.0
C      1  0.4468930000000  0.4775000000000  0.4414420000000 1.0
C      1  0.4955190000000  0.5620730000000  0.5590790000000 1.0
C      1  0.5054000000000  0.5471230000000  0.5814240000000 1.0
C      1  0.4926250000000  0.4507370000000  0.4311370000000 1.0
C      1  0.5896210000000  0.5010920000000  0.4935280000000 1.0
C      1  0.4271670000000  0.4862370000000  0.5505430000000 1.0
C      1  0.5059960000000  0.4871040000000  0.4435470000000 1.0
C      1  0.4193590000000  0.4892600000000  0.4909800000000 1.0
C      1  0.5320600000000  0.5406810000000  0.5831420000000 1.0
C      1  0.4593550000000  0.5205040000000  0.4180740000000 1.0
C      1  0.4862110000000  0.4553460000000  0.4574040000000 1.0
C      1  0.4333540000000  0.4392000000000  0.5398520000000 1.0
C      1  0.5132430000000  0.5286330000000  0.4166100000000 1.0
C      1  0.5465170000000  0.5017060000000  0.5810940000000 1.0
C      1  0.4471510000000  0.4471200000000  0.4556690000000 1.0
C      1  0.4466440000000  0.5539960000000  0.5538410000000 1.0
C      1  0.4726130000000  0.4550880000000  0.5618540000000 1.0
C      1  0.5145710000000  0.5821370000000  0.5502480000000 1.0
C      1  0.5785180000000  0.5213130000000  0.5089300000000 1.0
C      1  0.5096500000000  0.5414180000000  0.5239450000000 1.0
C      1  0.4041770000000  0.5457930000000  0.4710360000000 1.0
C      1  0.5142750000000  0.4987650000000  0.4132550000000 1.0
C      1  0.4760890000000  0.4090190000000  0.4853400000000 1.0
C      1  0.4788880000000  0.5696640000000  0.4691300000000 1.0
C      1  0.5118730000000  0.4866890000000  0.5433660000000 1.0
C      1  0.5340690000000  0.5825300000000  0.5058870000000 1.0
C      1  0.4619750000000  0.4912740000000  0.4201300000000 1.0
C      1  0.5212370000000  0.4256760000000  0.4431650000000 1.0
C      1  0.5652480000000  0.4244190000000  0.4827430000000 1.0
C      1  0.4062080000000  0.5179690000000  0.4995050000000 1.0
C      1  0.5253530000000  0.4625680000000  0.4580210000000 1.0
C      1  0.5642420000000  0.4610670000000  0.4488260000000 1.0
C      1  0.4822470000000  0.4581790000000  0.4887200000000 1.0
C      1  0.5775530000000  0.4702070000000  0.4962510000000 1.0
C      1  0.4857840000000  0.4820010000000  0.4081050000000 1.0
C      1  0.4662940000000  0.4235910000000  0.4437250000000 1.0
C      1  0.4945040000000  0.5509460000000  0.4947950000000 1.0
C      1  0.5361760000000  0.4149970000000  0.5248170000000 1.0
C      1  0.5617590000000  0.5821010000000  0.5122800000000 1.0
C      1  0.4891350000000  0.5649160000000  0.4427860000000 1.0
C      1  0.4484370000000  0.4942920000000  0.5178210000000 1.0
C      1  0.4913830000000  0.4911250000000  0.5841740000000 1.0
C      1  0.5311830000000  0.4670120000000  0.5232030000000 1.0
C      1  0.5129040000000  0.5917790000000  0.5235030000000 1.0
C      1  0.4445150000000  0.5267470000000  0.5957830000000 1.0
C      1  0.5411930000000  0.5785720000000  0.5604220000000 1.0
C      1  0.4687140000000  0.5331360000000  0.5194270000000 1.0
C      1  0.5625800000000  0.5415860000000  0.4535670000000 1.0
C      1  0.4750150000000  0.4305350000000  0.4163720000000 1.0
C      1  0.5412180000000  0.4748830000000  0.5803710000000 1.0
C      1  0.5151790000000  0.4391530000000  0.5172480000000 1.0
C      1  0.5147580000000  0.5748830000000  0.4388410000000 1.0
C      1  0.5773600000000  0.4835950000000  0.5474380000000 1.0
C      1  0.5828370000000  0.5698410000000  0.5249810000000 1.0
C      1  0.4828310000000  0.5094690000000  0.5644430000000 1.0
C      1  0.5453710000000  0.5042170000000  0.5235640000000 1.0
C      1  0.5413200000000  0.4870400000000  0.4696700000000 1.0
C      1  0.6113250000000  0.5221860000000  0.4490720000000 1.0
C      1  0.5152330000000  0.4647160000000  0.4120240000000 1.0
C      1  0.5701480000000  0.4903820000000  0.4467150000000 1.0
C      1  0.4414760000000  0.4645510000000  0.4840390000000 1.0
C      1  0.4739360000000  0.5507640000000  0.5441370000000 1.0
C      1  0.4668950000000  0.4851730000000  0.4935350000000 1.0
C      1  0.4213940000000  0.5134870000000  0.5535540000000 1.0
C      1  0.5073700000000  0.4744460000000  0.5012560000000 1.0
C      1  0.5604750000000  0.4622290000000  0.5641490000000 1.0
C      1  0.4860720000000  0.5146580000000  0.4489780000000 1.0
C      1  0.5339400000000  0.5246780000000  0.4877060000000 1.0
C      1  0.4290740000000  0.4418730000000  0.5062270000000 1.0
C      1  0.5515030000000  0.4901840000000  0.4976780000000 1.0
C      1  0.4841300000000  0.4259060000000  0.5371430000000 1.0
C      1  0.5546370000000  0.5373620000000  0.5033360000000 1.0
C      1  0.4932810000000  0.4161730000000  0.4603210000000 1.0
C      1  0.4626490000000  0.5399730000000  0.4880330000000 1.0
C      1  0.5822010000000  0.5494940000000  0.5433170000000 1.0
C      1  0.4064350000000  0.5163620000000  0.4654990000000 1.0
C      1  0.5211700000000  0.4249850000000  0.5540640000000 1.0
C      1  0.4682040000000  0.4357960000000  0.5020060000000 1.0
C      1  0.4972330000000  0.4106950000000  0.5119750000000 1.0
C      1  0.5341010000000  0.5379390000000  0.4351780000000 1.0
C      1  0.5379990000000  0.5478460000000  0.5253830000000 1.0
C      1  0.5041020000000  0.5199280000000  0.5433360000000 1.0
C      1  0.4555850000000  0.4238040000000  0.5299430000000 1.0
C      1  0.5635900000000  0.4636760000000  0.5246790000000 1.0
C      1  0.4943860000000  0.4586740000000  0.5358800000000 1.0
C      1  0.5399860000000  0.4203780000000  0.4926220000000 1.0
C      1  0.4300400000000  0.5587670000000  0.5302710000000 1.0
C      1  0.4853320000000  0.5379230000000  0.4268750000000 1.0
END
