TITL C-2778425-5191-273 -0.00227286985372981 125000 -869.173395025366 0 0 146 (C1) n - 1
REM
REM in /home/nfs/bkarasulu/CARBON/AIRSS/Generating-Clusters/REBO/Only-C1/SD-CG/HFTN-CG
REM
REM
REM
REM
REM
REM ./C.cell (11c1c37f851c82e70ff6c80c92926a4b)
REM
REM compiler GCC version 9.2.1 20190827 (Red Hat 9.2.1-1)
REM options -cpp -mtune=generic -march=x86-64 -g -O0 -fpre-include=/usr/include/finclude/math-vector-fortran.h
REM seed -309671577 -1920686838 550988046 -920016116 20087724 1349285037 1516279496 -1730920353 430305001 -269254557 265784822 -305788246 199675633 -568288456 -2011638719 1729016916 -109459417 -342676886 273688843 -455355841 -539882901 -1989754056 -401605265 -1589752755 976653878 -1086471045 1156832528 1074587804 -938863237 888437825 140249898 692355167 -2144292651
REM
CELL 1.54180   50.00000   50.00000   50.00000   90.00000   90.00000   90.00000
LATT -1
SFAC C  
C      1  0.4200950000000  0.5119740000000  0.5366980000000 1.0
C      1  0.5067580000000  0.5912900000000  0.5219650000000 1.0
C      1  0.4170730000000  0.5659240000000  0.5698230000000 1.0
C      1  0.4952800000000  0.4801510000000  0.4204380000000 1.0
C      1  0.4498420000000  0.4309130000000  0.4302390000000 1.0
C      1  0.4651670000000  0.5159200000000  0.5145080000000 1.0
C      1  0.5929520000000  0.4917770000000  0.5177450000000 1.0
C      1  0.4097100000000  0.4956290000000  0.4628740000000 1.0
C      1  0.5821170000000  0.5570870000000  0.5034250000000 1.0
C      1  0.4805290000000  0.4456120000000  0.4573420000000 1.0
C      1  0.4326520000000  0.5362660000000  0.4562100000000 1.0
C      1  0.5492130000000  0.4691180000000  0.4484020000000 1.0
C      1  0.4515340000000  0.5339020000000  0.4147630000000 1.0
C      1  0.4449000000000  0.4465400000000  0.5724700000000 1.0
C      1  0.4316230000000  0.5741290000000  0.4953030000000 1.0
C      1  0.5021780000000  0.6032920000000  0.6084180000000 1.0
C      1  0.5466430000000  0.4811980000000  0.4187450000000 1.0
C      1  0.4223210000000  0.4421820000000  0.5122720000000 1.0
C      1  0.4959260000000  0.5575570000000  0.4164890000000 1.0
C      1  0.5329540000000  0.4464800000000  0.5734570000000 1.0
C      1  0.5051350000000  0.4571100000000  0.5731460000000 1.0
C      1  0.3840320000000  0.4589800000000  0.4963920000000 1.0
C      1  0.5742390000000  0.4541710000000  0.5547760000000 1.0
C      1  0.5524890000000  0.5557600000000  0.4732460000000 1.0
C      1  0.5122100000000  0.5358190000000  0.4962710000000 1.0
C      1  0.5066030000000  0.4831820000000  0.5128770000000 1.0
C      1  0.5872970000000  0.5389510000000  0.5589140000000 1.0
C      1  0.5160340000000  0.4222500000000  0.4250070000000 1.0
C      1  0.4632370000000  0.5693730000000  0.4563060000000 1.0
C      1  0.4718680000000  0.4327140000000  0.5203870000000 1.0
C      1  0.4588160000000  0.5807660000000  0.4806140000000 1.0
C      1  0.5575660000000  0.4593370000000  0.5769110000000 1.0
C      1  0.5679870000000  0.5142650000000  0.4649740000000 1.0
C      1  0.5793620000000  0.5490390000000  0.5328080000000 1.0
C      1  0.4109690000000  0.4478460000000  0.4836430000000 1.0
C      1  0.4705230000000  0.4384890000000  0.4876290000000 1.0
C      1  0.4817540000000  0.4947180000000  0.4947070000000 1.0
C      1  0.4716330000000  0.5485450000000  0.4364520000000 1.0
C      1  0.4744500000000  0.4955670000000  0.4063570000000 1.0
C      1  0.4615700000000  0.4967080000000  0.5613700000000 1.0
C      1  0.5348160000000  0.5967020000000  0.5041430000000 1.0
C      1  0.5268700000000  0.5678310000000  0.5306040000000 1.0
C      1  0.5815880000000  0.4816640000000  0.4888290000000 1.0
C      1  0.5208520000000  0.4669070000000  0.4041530000000 1.0
C      1  0.5408560000000  0.5937250000000  0.4706530000000 1.0
C      1  0.5225000000000  0.5606210000000  0.4267170000000 1.0
C      1  0.4686250000000  0.5752490000000  0.5278060000000 1.0
C      1  0.4189890000000  0.5140760000000  0.4432390000000 1.0
C      1  0.4877190000000  0.5053410000000  0.5658880000000 1.0
C      1  0.4932020000000  0.5241970000000  0.4433340000000 1.0
C      1  0.4560080000000  0.4761630000000  0.5189880000000 1.0
C      1  0.4466280000000  0.4880680000000  0.4090540000000 1.0
C      1  0.4983910000000  0.4711710000000  0.4525710000000 1.0
C      1  0.5596140000000  0.4893260000000  0.5864500000000 1.0
C      1  0.4994140000000  0.5145840000000  0.4757230000000 1.0
C      1  0.4385500000000  0.4596120000000  0.4177790000000 1.0
C      1  0.5765840000000  0.4762670000000  0.4584310000000 1.0
C      1  0.4853760000000  0.5555910000000  0.5480730000000 1.0
C      1  0.5032830000000  0.4425240000000  0.4097720000000 1.0
C      1  0.4870430000000  0.4493920000000  0.5534220000000 1.0
C      1  0.4484890000000  0.4740320000000  0.5726610000000 1.0
C      1  0.5758460000000  0.4346000000000  0.4672490000000 1.0
C      1  0.5701400000000  0.5102280000000  0.5042160000000 1.0
C      1  0.4423480000000  0.4227740000000  0.5110970000000 1.0
C      1  0.4613790000000  0.4695440000000  0.4841010000000 1.0
C      1  0.5561600000000  0.5695890000000  0.5893940000000 1.0
C      1  0.4840840000000  0.4641360000000  0.5256360000000 1.0
C      1  0.5541580000000  0.5228140000000  0.5913170000000 1.0
C      1  0.5206880000000  0.4963290000000  0.4309900000000 1.0
C      1  0.4952820000000  0.6026440000000  0.5478790000000 1.0
C      1  0.4426880000000  0.5225290000000  0.4923850000000 1.0
C      1  0.5515390000000  0.5763290000000  0.5361110000000 1.0
C      1  0.4487700000000  0.5093830000000  0.5399130000000 1.0
C      1  0.5648800000000  0.5324040000000  0.4295300000000 1.0
C      1  0.4132000000000  0.5385530000000  0.5277710000000 1.0
C      1  0.4820090000000  0.5852720000000  0.5001610000000 1.0
C      1  0.4078380000000  0.4877240000000  0.5272450000000 1.0
C      1  0.5009560000000  0.5328580000000  0.5644630000000 1.0
C      1  0.4985440000000  0.4185230000000  0.4518790000000 1.0
C      1  0.4286690000000  0.4726440000000  0.4745460000000 1.0
C      1  0.5727730000000  0.5503730000000  0.4491610000000 1.0
C      1  0.5270850000000  0.4562870000000  0.4904980000000 1.0
C      1  0.5714020000000  0.5459870000000  0.5829310000000 1.0
C      1  0.4405810000000  0.4060210000000  0.4893750000000 1.0
C      1  0.5288030000000  0.5013550000000  0.5901750000000 1.0
C      1  0.5259010000000  0.4622600000000  0.4622870000000 1.0
C      1  0.5410510000000  0.5397100000000  0.4166200000000 1.0
C      1  0.4757960000000  0.4088260000000  0.4714580000000 1.0
C      1  0.4649730000000  0.4308120000000  0.5603490000000 1.0
C      1  0.5831510000000  0.5337590000000  0.4857530000000 1.0
C      1  0.5223520000000  0.5019850000000  0.4599440000000 1.0
C      1  0.5389500000000  0.4829810000000  0.5018590000000 1.0
C      1  0.4457320000000  0.4151800000000  0.4568020000000 1.0
C      1  0.5148680000000  0.5226430000000  0.4170020000000 1.0
C      1  0.4887400000000  0.3904870000000  0.4913650000000 1.0
C      1  0.5058020000000  0.5824880000000  0.5901260000000 1.0
C      1  0.4611700000000  0.4677510000000  0.4402140000000 1.0
C      1  0.5863970000000  0.4506540000000  0.4877850000000 1.0
C      1  0.4229090000000  0.5430960000000  0.5012260000000 1.0
C      1  0.4835280000000  0.5277600000000  0.4046930000000 1.0
C      1  0.5559370000000  0.5086530000000  0.5442310000000 1.0
C      1  0.4270390000000  0.4659490000000  0.5266460000000 1.0
C      1  0.5221910000000  0.5346800000000  0.5880420000000 1.0
C      1  0.5510360000000  0.5358620000000  0.5280480000000 1.0
C      1  0.5163760000000  0.4055880000000  0.5007690000000 1.0
C      1  0.5702890000000  0.5000730000000  0.4344280000000 1.0
C      1  0.4148540000000  0.4238090000000  0.4648740000000 1.0
C      1  0.4846200000000  0.4116680000000  0.5409190000000 1.0
C      1  0.5853450000000  0.4817080000000  0.5451750000000 1.0
C      1  0.5200650000000  0.4366910000000  0.5093770000000 1.0
C      1  0.4603790000000  0.5235490000000  0.4656290000000 1.0
C      1  0.5325470000000  0.4172260000000  0.4520190000000 1.0
C      1  0.5556480000000  0.4810630000000  0.5273720000000 1.0
C      1  0.5897660000000  0.4382540000000  0.5128040000000 1.0
C      1  0.5195520000000  0.5375160000000  0.5384950000000 1.0
C      1  0.5090170000000  0.5909170000000  0.4824040000000 1.0
C      1  0.5801650000000  0.5067490000000  0.5656430000000 1.0
C      1  0.4757120000000  0.4455750000000  0.4176810000000 1.0
C      1  0.4217260000000  0.5615130000000  0.5436030000000 1.0
C      1  0.5279440000000  0.4747350000000  0.5456190000000 1.0
C      1  0.5105700000000  0.4872930000000  0.5721650000000 1.0
C      1  0.4747490000000  0.4964660000000  0.4505300000000 1.0
C      1  0.4752250000000  0.5446600000000  0.4853660000000 1.0
C      1  0.5016200000000  0.5596840000000  0.4744800000000 1.0
C      1  0.5188260000000  0.4111560000000  0.5401360000000 1.0
C      1  0.5713270000000  0.4340510000000  0.5342430000000 1.0
C      1  0.5452560000000  0.4987880000000  0.4756290000000 1.0
C      1  0.5470920000000  0.4101200000000  0.4970070000000 1.0
C      1  0.4399760000000  0.5756580000000  0.5261500000000 1.0
C      1  0.5264160000000  0.5669870000000  0.4557780000000 1.0
C      1  0.4357920000000  0.4935110000000  0.4992800000000 1.0
C      1  0.5448590000000  0.5326150000000  0.4968420000000 1.0
C      1  0.5532710000000  0.4177950000000  0.4704400000000 1.0
C      1  0.5279230000000  0.5646620000000  0.5926080000000 1.0
C      1  0.4857750000000  0.5406280000000  0.5175260000000 1.0
C      1  0.4332050000000  0.5119890000000  0.4180280000000 1.0
C      1  0.5244190000000  0.4434020000000  0.5409260000000 1.0
C      1  0.4991870000000  0.3886550000000  0.5235000000000 1.0
C      1  0.5627010000000  0.5804430000000  0.4933940000000 1.0
C      1  0.5496980000000  0.4161440000000  0.5266170000000 1.0
C      1  0.4253380000000  0.5605670000000  0.4655050000000 1.0
C      1  0.5243590000000  0.5055840000000  0.5313480000000 1.0
C      1  0.4987790000000  0.6228060000000  0.6255780000000 1.0
C      1  0.3909310000000  0.5037410000000  0.4833150000000 1.0
C      1  0.4910050000000  0.5819330000000  0.5657070000000 1.0
C      1  0.3877120000000  0.4860190000000  0.5059520000000 1.0
END
