TITL C-2778434-4341-27 0.00155163484056484 125000 -759.72690010125 0 0 132 (C1) n - 1
REM
REM in /home/nfs/bkarasulu/CARBON/AIRSS/Generating-Clusters/REBO/Only-C1/SD-CG/HFTN-CG
REM
REM
REM
REM
REM
REM ./C.cell (11c1c37f851c82e70ff6c80c92926a4b)
REM
REM compiler GCC version 9.2.1 20190827 (Red Hat 9.2.1-1)
REM options -cpp -mtune=generic -march=x86-64 -g -O0 -fpre-include=/usr/include/finclude/math-vector-fortran.h
REM seed -969493167 -1865303447 44382300 1816417327 199316442 -1786143592 9705856 -1670199632 1531331009 931460193 2066372180 1485697922 -1174029516 -2064438505 477543093 -549065673 729164617 800075544 -470254219 -194523142 1322815930 1122934059 1760461942 1658836938 -1200796532 -217672202 439758789 -571750991 -303110304 61221547 -256904288 841323275 883613923
REM
CELL 1.54180   50.00000   50.00000   50.00000   90.00000   90.00000   90.00000
LATT -1
SFAC C  
C      1  0.5644490000000  0.5261150000000  0.5655260000000 1.0
C      1  0.6028540000000  0.5080960000000  0.5619520000000 1.0
C      1  0.4159580000000  0.5271200000000  0.4489470000000 1.0
C      1  0.5328140000000  0.4194580000000  0.4921620000000 1.0
C      1  0.5218960000000  0.5801910000000  0.5421230000000 1.0
C      1  0.4415880000000  0.5332250000000  0.4362840000000 1.0
C      1  0.4458660000000  0.5645970000000  0.4693080000000 1.0
C      1  0.4473540000000  0.4333670000000  0.4725330000000 1.0
C      1  0.4647050000000  0.5782600000000  0.5041100000000 1.0
C      1  0.5374280000000  0.4850970000000  0.5481580000000 1.0
C      1  0.4979230000000  0.5627820000000  0.4283560000000 1.0
C      1  0.4596700000000  0.4882220000000  0.4115250000000 1.0
C      1  0.5426740000000  0.5604870000000  0.4982320000000 1.0
C      1  0.5962390000000  0.5337790000000  0.5165160000000 1.0
C      1  0.4712670000000  0.4630050000000  0.5836700000000 1.0
C      1  0.5669910000000  0.5570340000000  0.5515610000000 1.0
C      1  0.5764230000000  0.5567580000000  0.5193350000000 1.0
C      1  0.5387920000000  0.4805990000000  0.4142570000000 1.0
C      1  0.4152930000000  0.4750170000000  0.4368000000000 1.0
C      1  0.5926630000000  0.5347580000000  0.5483540000000 1.0
C      1  0.4260170000000  0.4696800000000  0.5475970000000 1.0
C      1  0.4651200000000  0.4124070000000  0.5292600000000 1.0
C      1  0.5169550000000  0.3991190000000  0.5084890000000 1.0
C      1  0.5910230000000  0.4812540000000  0.5051910000000 1.0
C      1  0.4719720000000  0.4314010000000  0.4947570000000 1.0
C      1  0.4864080000000  0.4788510000000  0.5590000000000 1.0
C      1  0.5253480000000  0.5600120000000  0.4194510000000 1.0
C      1  0.4919040000000  0.5668380000000  0.4594890000000 1.0
C      1  0.4931450000000  0.4478140000000  0.4727620000000 1.0
C      1  0.3807930000000  0.4457190000000  0.4589050000000 1.0
C      1  0.4253360000000  0.4578950000000  0.4802950000000 1.0
C      1  0.5003490000000  0.5059820000000  0.5847640000000 1.0
C      1  0.4474800000000  0.5212080000000  0.4817290000000 1.0
C      1  0.5760690000000  0.4882300000000  0.4543110000000 1.0
C      1  0.5315220000000  0.4953050000000  0.5938570000000 1.0
C      1  0.5084920000000  0.5086970000000  0.4103010000000 1.0
C      1  0.5337210000000  0.5310770000000  0.5137000000000 1.0
C      1  0.5565640000000  0.4957100000000  0.5713080000000 1.0
C      1  0.5632020000000  0.4350150000000  0.4896850000000 1.0
C      1  0.4878900000000  0.5541280000000  0.4971360000000 1.0
C      1  0.3996910000000  0.5069340000000  0.5266900000000 1.0
C      1  0.5915040000000  0.4543370000000  0.4869400000000 1.0
C      1  0.4877950000000  0.4725060000000  0.4076690000000 1.0
C      1  0.5963100000000  0.5138400000000  0.4967550000000 1.0
C      1  0.5236290000000  0.4675960000000  0.6050790000000 1.0
C      1  0.5684720000000  0.5149400000000  0.4403740000000 1.0
C      1  0.4877040000000  0.5368490000000  0.5471640000000 1.0
C      1  0.4692290000000  0.4980290000000  0.4583250000000 1.0
C      1  0.5323680000000  0.5184680000000  0.5429070000000 1.0
C      1  0.4314870000000  0.4416540000000  0.5079680000000 1.0
C      1  0.4328010000000  0.4903580000000  0.4857470000000 1.0
C      1  0.5730260000000  0.4568620000000  0.4414620000000 1.0
C      1  0.4998560000000  0.4382040000000  0.5557360000000 1.0
C      1  0.4801170000000  0.5131660000000  0.4009630000000 1.0
C      1  0.4575450000000  0.4430600000000  0.4420740000000 1.0
C      1  0.4711910000000  0.5119480000000  0.5909770000000 1.0
C      1  0.5396670000000  0.4871310000000  0.4994370000000 1.0
C      1  0.4053450000000  0.4580370000000  0.4577680000000 1.0
C      1  0.4079770000000  0.5121760000000  0.4944500000000 1.0
C      1  0.5025640000000  0.5083750000000  0.5534250000000 1.0
C      1  0.5100350000000  0.4922450000000  0.5012280000000 1.0
C      1  0.5080710000000  0.5013920000000  0.4394450000000 1.0
C      1  0.4913990000000  0.4667340000000  0.4475770000000 1.0
C      1  0.4491270000000  0.5501960000000  0.5495680000000 1.0
C      1  0.5047070000000  0.5253840000000  0.5010250000000 1.0
C      1  0.5856820000000  0.4725390000000  0.5359960000000 1.0
C      1  0.4284330000000  0.4482680000000  0.5659040000000 1.0
C      1  0.4611330000000  0.4695060000000  0.4632110000000 1.0
C      1  0.5651160000000  0.5729290000000  0.4817250000000 1.0
C      1  0.4678200000000  0.5212850000000  0.5294340000000 1.0
C      1  0.4805470000000  0.4976100000000  0.5165120000000 1.0
C      1  0.4598510000000  0.5389090000000  0.5060000000000 1.0
C      1  0.4965900000000  0.5851960000000  0.5307150000000 1.0
C      1  0.5850520000000  0.4872010000000  0.5596870000000 1.0
C      1  0.4738030000000  0.4171180000000  0.4575850000000 1.0
C      1  0.4922490000000  0.5286470000000  0.4480630000000 1.0
C      1  0.5816850000000  0.5249140000000  0.4691310000000 1.0
C      1  0.5170390000000  0.4680070000000  0.5584640000000 1.0
C      1  0.4397690000000  0.5619860000000  0.5188320000000 1.0
C      1  0.4818850000000  0.5900030000000  0.4771160000000 1.0
C      1  0.5467610000000  0.5711710000000  0.5287020000000 1.0
C      1  0.5435030000000  0.5377550000000  0.4368190000000 1.0
C      1  0.4409970000000  0.4674480000000  0.4262520000000 1.0
C      1  0.5218400000000  0.5331750000000  0.4593810000000 1.0
C      1  0.4716990000000  0.4250740000000  0.5539940000000 1.0
C      1  0.4394640000000  0.4175630000000  0.5176570000000 1.0
C      1  0.4947220000000  0.4652470000000  0.4982120000000 1.0
C      1  0.5319020000000  0.4558420000000  0.4761580000000 1.0
C      1  0.5232280000000  0.4430090000000  0.4457250000000 1.0
C      1  0.5355690000000  0.5398090000000  0.5693160000000 1.0
C      1  0.4267170000000  0.5568650000000  0.4877620000000 1.0
C      1  0.4579930000000  0.4884900000000  0.5965560000000 1.0
C      1  0.4548810000000  0.4400980000000  0.5718560000000 1.0
C      1  0.5197530000000  0.5669170000000  0.5668020000000 1.0
C      1  0.5298410000000  0.4493560000000  0.5079890000000 1.0
C      1  0.5666150000000  0.6005360000000  0.4804940000000 1.0
C      1  0.5701360000000  0.4498410000000  0.5184700000000 1.0
C      1  0.5672150000000  0.4905710000000  0.4835860000000 1.0
C      1  0.4636060000000  0.5391410000000  0.5784250000000 1.0
C      1  0.5325450000000  0.4569690000000  0.6273840000000 1.0
C      1  0.4971720000000  0.5453640000000  0.5788700000000 1.0
C      1  0.4444960000000  0.4655680000000  0.5238160000000 1.0
C      1  0.5540150000000  0.4395250000000  0.4571630000000 1.0
C      1  0.4871110000000  0.4065080000000  0.5072120000000 1.0
C      1  0.5506750000000  0.5054370000000  0.4148530000000 1.0
C      1  0.4487670000000  0.5581860000000  0.4284000000000 1.0
C      1  0.4167530000000  0.4961200000000  0.5505740000000 1.0
C      1  0.4106640000000  0.5357990000000  0.4766970000000 1.0
C      1  0.5171630000000  0.5568830000000  0.4799880000000 1.0
C      1  0.5573850000000  0.5219070000000  0.4924750000000 1.0
C      1  0.4620870000000  0.4633870000000  0.4944670000000 1.0
C      1  0.4591850000000  0.5102160000000  0.4348000000000 1.0
C      1  0.4895460000000  0.6013960000000  0.5066500000000 1.0
C      1  0.5328860000000  0.5087210000000  0.4731620000000 1.0
C      1  0.5214920000000  0.5278340000000  0.5954520000000 1.0
C      1  0.5146550000000  0.4638340000000  0.4231400000000 1.0
C      1  0.5028110000000  0.4159880000000  0.4756730000000 1.0
C      1  0.5317540000000  0.5301150000000  0.4054530000000 1.0
C      1  0.4771170000000  0.5674590000000  0.5405560000000 1.0
C      1  0.5010350000000  0.4508170000000  0.5261320000000 1.0
C      1  0.4684470000000  0.5424840000000  0.4643450000000 1.0
C      1  0.5475030000000  0.4716630000000  0.5243680000000 1.0
C      1  0.4062420000000  0.5020640000000  0.4389050000000 1.0
C      1  0.5186050000000  0.4810860000000  0.4625960000000 1.0
C      1  0.4406490000000  0.5176900000000  0.5467830000000 1.0
C      1  0.5035000000000  0.4545420000000  0.5856340000000 1.0
C      1  0.4333440000000  0.5061620000000  0.5159230000000 1.0
C      1  0.4824090000000  0.5380330000000  0.4179690000000 1.0
C      1  0.5824050000000  0.5562650000000  0.4691340000000 1.0
C      1  0.4742570000000  0.4719770000000  0.5315010000000 1.0
C      1  0.5978440000000  0.4629530000000  0.4595730000000 1.0
C      1  0.4786170000000  0.5102900000000  0.4853670000000 1.0
END
