TITL C-2778433-5640-986 -0.00465652327292721 125000 -523.606853947196 0 0 91 (C1) n - 1
REM
REM in /home/nfs/bkarasulu/CARBON/AIRSS/Generating-Clusters/REBO/Only-C1/SD-CG/HFTN-CG
REM
REM
REM
REM
REM
REM ./C.cell (11c1c37f851c82e70ff6c80c92926a4b)
REM
REM compiler GCC version 9.2.1 20190827 (Red Hat 9.2.1-1)
REM options -cpp -mtune=generic -march=x86-64 -g -O0 -fpre-include=/usr/include/finclude/math-vector-fortran.h
REM seed -979746356 -1709339161 -370280609 1672282183 -747455924 -391907381 -563960160 -723934787 -1293709454 -1206505246 -350919842 -1753028517 328322117 -1703616147 1777075606 -389044117 -739617377 2130540034 -986228558 1552940332 1530473562 279561029 -640006371 -255545877 849245734 -1796773981 -673824265 527423670 962402230 -574546074 1330013623 987689982 -991443206
REM
CELL 1.54180   50.00000   50.00000   50.00000   90.00000   90.00000   90.00000
LATT -1
SFAC C  
C      1  0.4204390000000  0.5239700000000  0.5312670000000 1.0
C      1  0.5303980000000  0.4922460000000  0.4616120000000 1.0
C      1  0.4125940000000  0.5119610000000  0.5047150000000 1.0
C      1  0.5485810000000  0.5450460000000  0.4723030000000 1.0
C      1  0.4436010000000  0.5455300000000  0.5239510000000 1.0
C      1  0.5308210000000  0.5692290000000  0.5311180000000 1.0
C      1  0.5276060000000  0.5031020000000  0.4049500000000 1.0
C      1  0.4428800000000  0.4381600000000  0.4530150000000 1.0
C      1  0.4516070000000  0.5313360000000  0.4708360000000 1.0
C      1  0.4613490000000  0.4787390000000  0.5437170000000 1.0
C      1  0.5682860000000  0.4489070000000  0.5108320000000 1.0
C      1  0.5292830000000  0.4574890000000  0.5102070000000 1.0
C      1  0.4588640000000  0.5528170000000  0.5502770000000 1.0
C      1  0.4211300000000  0.4667850000000  0.4896950000000 1.0
C      1  0.4274260000000  0.4732130000000  0.5433210000000 1.0
C      1  0.4762010000000  0.4335050000000  0.4476610000000 1.0
C      1  0.5137770000000  0.5680850000000  0.5565910000000 1.0
C      1  0.5057430000000  0.5234840000000  0.4450820000000 1.0
C      1  0.5235630000000  0.5696710000000  0.5818010000000 1.0
C      1  0.4811820000000  0.5324620000000  0.4875820000000 1.0
C      1  0.4458520000000  0.5477900000000  0.5742500000000 1.0
C      1  0.4639620000000  0.4835400000000  0.4676640000000 1.0
C      1  0.4741190000000  0.4648270000000  0.4431800000000 1.0
C      1  0.5524240000000  0.5686520000000  0.5136700000000 1.0
C      1  0.5023910000000  0.4576540000000  0.5922610000000 1.0
C      1  0.5213880000000  0.4536410000000  0.4656280000000 1.0
C      1  0.5793260000000  0.5500870000000  0.5148050000000 1.0
C      1  0.4790280000000  0.4330660000000  0.5466660000000 1.0
C      1  0.4366510000000  0.5135630000000  0.4510090000000 1.0
C      1  0.5213820000000  0.4652150000000  0.4335590000000 1.0
C      1  0.5108990000000  0.5100700000000  0.5425930000000 1.0
C      1  0.4581390000000  0.4344460000000  0.5198490000000 1.0
C      1  0.5299360000000  0.5081410000000  0.4320960000000 1.0
C      1  0.5030990000000  0.4458310000000  0.6156390000000 1.0
C      1  0.4990930000000  0.5688770000000  0.5195590000000 1.0
C      1  0.4717110000000  0.4217370000000  0.4965860000000 1.0
C      1  0.5739860000000  0.4810880000000  0.5790570000000 1.0
C      1  0.5199730000000  0.5729450000000  0.4707410000000 1.0
C      1  0.5305610000000  0.5277980000000  0.5228080000000 1.0
C      1  0.4847170000000  0.5621400000000  0.5494180000000 1.0
C      1  0.4892850000000  0.4921150000000  0.4059570000000 1.0
C      1  0.5465580000000  0.4420860000000  0.4855290000000 1.0
C      1  0.5016710000000  0.4696680000000  0.5685050000000 1.0
C      1  0.4874660000000  0.5069260000000  0.4671610000000 1.0
C      1  0.5454900000000  0.5717790000000  0.4861090000000 1.0
C      1  0.5807700000000  0.5062020000000  0.5345810000000 1.0
C      1  0.5739060000000  0.5023130000000  0.5049400000000 1.0
C      1  0.5033360000000  0.4798040000000  0.4731570000000 1.0
C      1  0.5645010000000  0.4845670000000  0.5528930000000 1.0
C      1  0.5306890000000  0.5276270000000  0.4937580000000 1.0
C      1  0.5810830000000  0.5290380000000  0.4891310000000 1.0
C      1  0.5557390000000  0.4763810000000  0.4401890000000 1.0
C      1  0.4580050000000  0.4884700000000  0.5004040000000 1.0
C      1  0.5053460000000  0.4350620000000  0.5488550000000 1.0
C      1  0.5486530000000  0.4446710000000  0.4381060000000 1.0
C      1  0.4619560000000  0.5542070000000  0.4529300000000 1.0
C      1  0.5290940000000  0.4464670000000  0.5401320000000 1.0
C      1  0.4987970000000  0.4298910000000  0.4940080000000 1.0
C      1  0.5009500000000  0.4817100000000  0.5447080000000 1.0
C      1  0.4948720000000  0.4748160000000  0.4261240000000 1.0
C      1  0.4457070000000  0.5199920000000  0.5009720000000 1.0
C      1  0.4591410000000  0.4186970000000  0.4720350000000 1.0
C      1  0.4888140000000  0.5493040000000  0.4382720000000 1.0
C      1  0.5372710000000  0.4199840000000  0.4521380000000 1.0
C      1  0.5011300000000  0.4617670000000  0.4991020000000 1.0
C      1  0.5051950000000  0.4279130000000  0.4499540000000 1.0
C      1  0.4836540000000  0.5235420000000  0.5390610000000 1.0
C      1  0.4494890000000  0.4481490000000  0.5499670000000 1.0
C      1  0.4952770000000  0.5752600000000  0.4551560000000 1.0
C      1  0.4500910000000  0.5870560000000  0.4887560000000 1.0
C      1  0.4320350000000  0.5051160000000  0.5489890000000 1.0
C      1  0.5621290000000  0.5075300000000  0.4430900000000 1.0
C      1  0.4925070000000  0.5893860000000  0.5020530000000 1.0
C      1  0.5540600000000  0.4773670000000  0.5026120000000 1.0
C      1  0.5435720000000  0.5086540000000  0.5485520000000 1.0
C      1  0.5460310000000  0.5026510000000  0.4846520000000 1.0
C      1  0.4826330000000  0.4745450000000  0.5189840000000 1.0
C      1  0.5572670000000  0.4580410000000  0.5385620000000 1.0
C      1  0.5702110000000  0.5279240000000  0.4609590000000 1.0
C      1  0.4623130000000  0.5096740000000  0.5505110000000 1.0
C      1  0.4313010000000  0.4902830000000  0.4452150000000 1.0
C      1  0.4358060000000  0.4649910000000  0.4632470000000 1.0
C      1  0.5975810000000  0.5322630000000  0.5374130000000 1.0
C      1  0.4658900000000  0.5817050000000  0.4664810000000 1.0
C      1  0.5088940000000  0.5407070000000  0.4731550000000 1.0
C      1  0.4039110000000  0.4878780000000  0.4934000000000 1.0
C      1  0.4395410000000  0.5718850000000  0.5083090000000 1.0
C      1  0.4834510000000  0.5407610000000  0.5158990000000 1.0
C      1  0.5233630000000  0.4180970000000  0.4832670000000 1.0
C      1  0.4405470000000  0.4624100000000  0.5138530000000 1.0
C      1  0.5590550000000  0.5358220000000  0.5366340000000 1.0
END
