TITL C-2778424-3986-691 -0.00212428456151144 125000 -1098.60493013558 0 0 190 (C1) n - 1
REM
REM in /home/nfs/bkarasulu/CARBON/AIRSS/Generating-Clusters/REBO/Only-C1/SD-CG/HFTN-CG
REM
REM
REM
REM
REM
REM ./C.cell (11c1c37f851c82e70ff6c80c92926a4b)
REM
REM compiler GCC version 9.2.1 20190827 (Red Hat 9.2.1-1)
REM options -cpp -mtune=generic -march=x86-64 -g -O0 -fpre-include=/usr/include/finclude/math-vector-fortran.h
REM seed 718275603 1217368748 -1748469789 -1438527114 -442244012 694644348 -1172415298 -962042430 39626068 -865925443 197259562 -1497226785 -1317827050 1034380622 -611698712 -2089321687 -85872661 1282118792 151458531 1062702205 -1191656483 1987348303 614708852 -727925221 -1775354506 1858911056 -642420783 -732264078 -1144702246 -719759502 2133598915 -1932664760 -324993474
REM
CELL 1.54180   50.00000   50.00000   50.00000   90.00000   90.00000   90.00000
LATT -1
SFAC C  
C      1  0.4739540000000  0.4043310000000  0.5520490000000 1.0
C      1  0.4071090000000  0.5643210000000  0.4586970000000 1.0
C      1  0.4681640000000  0.4972720000000  0.3960890000000 1.0
C      1  0.4423980000000  0.4895840000000  0.5655130000000 1.0
C      1  0.4184270000000  0.5094870000000  0.5625710000000 1.0
C      1  0.5659490000000  0.5342640000000  0.4692710000000 1.0
C      1  0.5287640000000  0.4074250000000  0.5118330000000 1.0
C      1  0.4187500000000  0.5107380000000  0.4114600000000 1.0
C      1  0.4615160000000  0.5031790000000  0.6069390000000 1.0
C      1  0.5138110000000  0.5213170000000  0.6061160000000 1.0
C      1  0.3943850000000  0.4733210000000  0.4840290000000 1.0
C      1  0.5768450000000  0.5569010000000  0.5176510000000 1.0
C      1  0.4796030000000  0.6185610000000  0.5247260000000 1.0
C      1  0.5533210000000  0.5483230000000  0.4943650000000 1.0
C      1  0.4577220000000  0.4543160000000  0.5546640000000 1.0
C      1  0.4921460000000  0.4992360000000  0.5260650000000 1.0
C      1  0.5054220000000  0.3892180000000  0.5207510000000 1.0
C      1  0.5472390000000  0.4458250000000  0.5462780000000 1.0
C      1  0.5208990000000  0.4211060000000  0.4288140000000 1.0
C      1  0.5286630000000  0.4043400000000  0.5633200000000 1.0
C      1  0.5224230000000  0.5544080000000  0.4204960000000 1.0
C      1  0.5206530000000  0.4959410000000  0.5422750000000 1.0
C      1  0.5249740000000  0.5560470000000  0.4834080000000 1.0
C      1  0.4945720000000  0.5272390000000  0.4486950000000 1.0
C      1  0.5598730000000  0.4596750000000  0.4148860000000 1.0
C      1  0.5054370000000  0.5052340000000  0.4081930000000 1.0
C      1  0.4890980000000  0.5241560000000  0.3926720000000 1.0
C      1  0.4918570000000  0.5011460000000  0.5794530000000 1.0
C      1  0.4526910000000  0.5803580000000  0.4865990000000 1.0
C      1  0.5482300000000  0.4358120000000  0.4362580000000 1.0
C      1  0.4978550000000  0.4997210000000  0.4335790000000 1.0
C      1  0.4650420000000  0.6111440000000  0.4949680000000 1.0
C      1  0.4667540000000  0.3925710000000  0.4743720000000 1.0
C      1  0.4714260000000  0.4566210000000  0.4294260000000 1.0
C      1  0.4468220000000  0.4868400000000  0.4210840000000 1.0
C      1  0.5196680000000  0.4790190000000  0.3819050000000 1.0
C      1  0.5541110000000  0.4497590000000  0.5854440000000 1.0
C      1  0.5069080000000  0.5257510000000  0.5520320000000 1.0
C      1  0.4518020000000  0.5294890000000  0.5955080000000 1.0
C      1  0.5870620000000  0.5081380000000  0.5357850000000 1.0
C      1  0.5552620000000  0.5591640000000  0.5683990000000 1.0
C      1  0.4999540000000  0.6121470000000  0.5503880000000 1.0
C      1  0.4775650000000  0.5425770000000  0.5470850000000 1.0
C      1  0.4077700000000  0.5004400000000  0.5258340000000 1.0
C      1  0.4983980000000  0.4368190000000  0.4682180000000 1.0
C      1  0.3956710000000  0.5131310000000  0.4616170000000 1.0
C      1  0.5400430000000  0.4517870000000  0.4653750000000 1.0
C      1  0.3763640000000  0.4899010000000  0.4974810000000 1.0
C      1  0.5963860000000  0.5633270000000  0.4944000000000 1.0
C      1  0.4681690000000  0.4788040000000  0.5370210000000 1.0
C      1  0.4991850000000  0.5757540000000  0.4318540000000 1.0
C      1  0.4411860000000  0.5554370000000  0.5848030000000 1.0
C      1  0.5132320000000  0.6220030000000  0.5220790000000 1.0
C      1  0.5419980000000  0.5950030000000  0.4511200000000 1.0
C      1  0.5265720000000  0.5086490000000  0.5038280000000 1.0
C      1  0.5584470000000  0.5190990000000  0.5100850000000 1.0
C      1  0.4475200000000  0.5516680000000  0.5455410000000 1.0
C      1  0.4670100000000  0.5502330000000  0.4935110000000 1.0
C      1  0.4400640000000  0.4533340000000  0.4244650000000 1.0
C      1  0.5621110000000  0.5927810000000  0.4703050000000 1.0
C      1  0.4903760000000  0.4747930000000  0.3875850000000 1.0
C      1  0.5022950000000  0.4544690000000  0.5596810000000 1.0
C      1  0.4086770000000  0.6072820000000  0.4836450000000 1.0
C      1  0.4199270000000  0.5817440000000  0.4811900000000 1.0
C      1  0.6260370000000  0.4836600000000  0.4340310000000 1.0
C      1  0.5298600000000  0.4680820000000  0.5595300000000 1.0
C      1  0.5266760000000  0.5267650000000  0.4393600000000 1.0
C      1  0.5434540000000  0.4785110000000  0.5237930000000 1.0
C      1  0.4969990000000  0.5170620000000  0.4783600000000 1.0
C      1  0.4826200000000  0.6137610000000  0.4670420000000 1.0
C      1  0.5895610000000  0.5203760000000  0.4394420000000 1.0
C      1  0.5115910000000  0.4015840000000  0.4546510000000 1.0
C      1  0.4499690000000  0.5238790000000  0.4070310000000 1.0
C      1  0.5227190000000  0.5040420000000  0.4645420000000 1.0
C      1  0.4764710000000  0.3877930000000  0.5060660000000 1.0
C      1  0.5768270000000  0.4475500000000  0.4931000000000 1.0
C      1  0.4351680000000  0.4897280000000  0.4822970000000 1.0
C      1  0.5963230000000  0.5268700000000  0.5696900000000 1.0
C      1  0.6066920000000  0.4938920000000  0.5184790000000 1.0
C      1  0.6025200000000  0.4324090000000  0.5001490000000 1.0
C      1  0.4574130000000  0.4827260000000  0.5870500000000 1.0
C      1  0.5385130000000  0.4781060000000  0.5888100000000 1.0
C      1  0.5828650000000  0.5007060000000  0.4968530000000 1.0
C      1  0.6107730000000  0.4676730000000  0.5246920000000 1.0
C      1  0.5702650000000  0.5712590000000  0.5466480000000 1.0
C      1  0.5856320000000  0.4947820000000  0.5732900000000 1.0
C      1  0.4852600000000  0.4421330000000  0.6013110000000 1.0
C      1  0.5137110000000  0.4732080000000  0.4627740000000 1.0
C      1  0.4315440000000  0.4809240000000  0.4503530000000 1.0
C      1  0.5272670000000  0.4724260000000  0.4338640000000 1.0
C      1  0.4528290000000  0.4626660000000  0.4933020000000 1.0
C      1  0.4829160000000  0.4766270000000  0.4510580000000 1.0
C      1  0.4700300000000  0.5622820000000  0.4556640000000 1.0
C      1  0.4918550000000  0.5624840000000  0.5834450000000 1.0
C      1  0.5428460000000  0.5110920000000  0.5913470000000 1.0
C      1  0.4918340000000  0.5526620000000  0.4080800000000 1.0
C      1  0.4580560000000  0.5004750000000  0.5050980000000 1.0
C      1  0.4899310000000  0.4073170000000  0.4325100000000 1.0
C      1  0.5101650000000  0.5798260000000  0.5524370000000 1.0
C      1  0.3985230000000  0.5214170000000  0.5108500000000 1.0
C      1  0.5346800000000  0.4257680000000  0.5892180000000 1.0
C      1  0.5701040000000  0.4188620000000  0.4560260000000 1.0
C      1  0.4742130000000  0.5227760000000  0.5745400000000 1.0
C      1  0.5243360000000  0.6005090000000  0.5068420000000 1.0
C      1  0.4391800000000  0.4943710000000  0.5319440000000 1.0
C      1  0.3764490000000  0.5224690000000  0.4881060000000 1.0
C      1  0.4875090000000  0.5039550000000  0.6189430000000 1.0
C      1  0.5651080000000  0.4868830000000  0.5466050000000 1.0
C      1  0.4722160000000  0.4311420000000  0.5716960000000 1.0
C      1  0.5197520000000  0.5717710000000  0.4575950000000 1.0
C      1  0.5994800000000  0.5411700000000  0.4698960000000 1.0
C      1  0.5211550000000  0.4556950000000  0.5112570000000 1.0
C      1  0.5442830000000  0.4141320000000  0.5391480000000 1.0
C      1  0.4259090000000  0.4305480000000  0.4795220000000 1.0
C      1  0.5019410000000  0.3926950000000  0.5493550000000 1.0
C      1  0.4023230000000  0.4864660000000  0.4599860000000 1.0
C      1  0.5740550000000  0.5487720000000  0.4400160000000 1.0
C      1  0.5003460000000  0.5424420000000  0.4947050000000 1.0
C      1  0.3890090000000  0.5437080000000  0.4643660000000 1.0
C      1  0.4231150000000  0.5412750000000  0.4185570000000 1.0
C      1  0.5096110000000  0.4317300000000  0.6105920000000 1.0
C      1  0.4275450000000  0.4528370000000  0.5560600000000 1.0
C      1  0.5070600000000  0.4841400000000  0.4987690000000 1.0
C      1  0.4349910000000  0.5228490000000  0.4818490000000 1.0
C      1  0.5452050000000  0.4802770000000  0.3973910000000 1.0
C      1  0.5410330000000  0.5452430000000  0.5894500000000 1.0
C      1  0.5851580000000  0.4533590000000  0.5369090000000 1.0
C      1  0.5798120000000  0.4674130000000  0.4373410000000 1.0
C      1  0.4584060000000  0.5347390000000  0.4646590000000 1.0
C      1  0.5472910000000  0.4927470000000  0.4351740000000 1.0
C      1  0.5512750000000  0.5088900000000  0.4105690000000 1.0
C      1  0.5116020000000  0.6049410000000  0.4561140000000 1.0
C      1  0.5325110000000  0.5582160000000  0.5447500000000 1.0
C      1  0.4987040000000  0.3996210000000  0.4828680000000 1.0
C      1  0.5952870000000  0.5074090000000  0.4705260000000 1.0
C      1  0.5739170000000  0.4512840000000  0.4622890000000 1.0
C      1  0.5164370000000  0.4507580000000  0.4177220000000 1.0
C      1  0.4263150000000  0.5368440000000  0.5626530000000 1.0
C      1  0.4110050000000  0.4529680000000  0.4989190000000 1.0
C      1  0.4757020000000  0.5935930000000  0.4417800000000 1.0
C      1  0.4906560000000  0.4547630000000  0.4073300000000 1.0
C      1  0.5498990000000  0.4784920000000  0.4789380000000 1.0
C      1  0.5736260000000  0.4728690000000  0.5106300000000 1.0
C      1  0.4295380000000  0.4019480000000  0.5317830000000 1.0
C      1  0.5633850000000  0.5201780000000  0.5680540000000 1.0
C      1  0.4843430000000  0.4679940000000  0.5811480000000 1.0
C      1  0.4794310000000  0.4669570000000  0.5070330000000 1.0
C      1  0.4227920000000  0.5638590000000  0.4349240000000 1.0
C      1  0.4549980000000  0.3928380000000  0.5286060000000 1.0
C      1  0.5519930000000  0.5295360000000  0.5420140000000 1.0
C      1  0.4554530000000  0.5951310000000  0.5234880000000 1.0
C      1  0.4496090000000  0.4579220000000  0.4628880000000 1.0
C      1  0.5098060000000  0.5399780000000  0.5804710000000 1.0
C      1  0.4201200000000  0.5367200000000  0.5006930000000 1.0
C      1  0.5908720000000  0.5377560000000  0.5395990000000 1.0
C      1  0.4613540000000  0.4079950000000  0.4481110000000 1.0
C      1  0.4727300000000  0.4987090000000  0.4742640000000 1.0
C      1  0.5110720000000  0.4287660000000  0.4928190000000 1.0
C      1  0.5516080000000  0.5398000000000  0.4202500000000 1.0
C      1  0.4410950000000  0.4375180000000  0.5092970000000 1.0
C      1  0.4750610000000  0.4375220000000  0.4539640000000 1.0
C      1  0.4469420000000  0.5776230000000  0.4375540000000 1.0
C      1  0.4225560000000  0.5641300000000  0.5068960000000 1.0
C      1  0.5507570000000  0.5980420000000  0.4960660000000 1.0
C      1  0.4364590000000  0.4296510000000  0.4488130000000 1.0
C      1  0.4783760000000  0.5250590000000  0.5131170000000 1.0
C      1  0.4877480000000  0.5940740000000  0.5739990000000 1.0
C      1  0.5481540000000  0.4353450000000  0.5055860000000 1.0
C      1  0.5819090000000  0.5706520000000  0.4650160000000 1.0
C      1  0.4721420000000  0.5351010000000  0.4268820000000 1.0
C      1  0.5699150000000  0.4095610000000  0.5031820000000 1.0
C      1  0.5127170000000  0.4876140000000  0.6027760000000 1.0
C      1  0.4652980000000  0.4310800000000  0.5323080000000 1.0
C      1  0.5746000000000  0.4024980000000  0.4772970000000 1.0
C      1  0.5744430000000  0.4249170000000  0.5331640000000 1.0
C      1  0.5767240000000  0.4629040000000  0.5670720000000 1.0
C      1  0.4065820000000  0.4523980000000  0.5293800000000 1.0
C      1  0.4404600000000  0.5722570000000  0.5272250000000 1.0
C      1  0.5238170000000  0.5318230000000  0.5250600000000 1.0
C      1  0.4597270000000  0.5083500000000  0.4440660000000 1.0
C      1  0.5999120000000  0.4892980000000  0.4420100000000 1.0
C      1  0.4619610000000  0.5733980000000  0.5802600000000 1.0
C      1  0.4953580000000  0.5650320000000  0.5285480000000 1.0
C      1  0.4173420000000  0.4235940000000  0.5418430000000 1.0
C      1  0.5022230000000  0.5808250000000  0.5045120000000 1.0
C      1  0.5552120000000  0.5073110000000  0.4640510000000 1.0
C      1  0.5057050000000  0.4257270000000  0.5713750000000 1.0
C      1  0.4860730000000  0.5817120000000  0.4785200000000 1.0
C      1  0.4940280000000  0.4489940000000  0.5312140000000 1.0
C      1  0.4071490000000  0.4792830000000  0.5504480000000 1.0
END
