TITL C-2778424-3986-1071 -0.00674971670459793 125000 -490.720477489275 0 0 87 (C1) n - 1
REM
REM in /home/nfs/bkarasulu/CARBON/AIRSS/Generating-Clusters/REBO/Only-C1/SD-CG/HFTN-CG
REM
REM
REM
REM
REM
REM ./C.cell (11c1c37f851c82e70ff6c80c92926a4b)
REM
REM compiler GCC version 9.2.1 20190827 (Red Hat 9.2.1-1)
REM options -cpp -mtune=generic -march=x86-64 -g -O0 -fpre-include=/usr/include/finclude/math-vector-fortran.h
REM seed -1061863904 1731631103 584081847 -1613305866 414783759 2072145301 -1151755090 -1168430029 857101612 1727041087 -635606828 -1145336057 -2098703312 -1635246226 -797361264 -43068214 -1007192996 827754734 -1302530177 -983904131 -1945628519 1705840399 386359095 74352883 -1925921758 1627468130 1867942159 -1148171241 464319055 -800730485 511125052 1148851430 935018668
REM
CELL 1.54180   50.00000   50.00000   50.00000   90.00000   90.00000   90.00000
LATT -1
SFAC C  
C      1  0.4412310000000  0.5697990000000  0.4739470000000 1.0
C      1  0.4880550000000  0.5270240000000  0.5184620000000 1.0
C      1  0.4917430000000  0.4558520000000  0.5926860000000 1.0
C      1  0.5667120000000  0.5238190000000  0.4617590000000 1.0
C      1  0.4360940000000  0.5308490000000  0.5038030000000 1.0
C      1  0.4518650000000  0.4987990000000  0.4861810000000 1.0
C      1  0.5182650000000  0.5769360000000  0.5144050000000 1.0
C      1  0.5313820000000  0.4634170000000  0.4181190000000 1.0
C      1  0.4160020000000  0.4939150000000  0.4687080000000 1.0
C      1  0.4901970000000  0.4161120000000  0.5022080000000 1.0
C      1  0.5353990000000  0.4926020000000  0.4351080000000 1.0
C      1  0.4813250000000  0.4381350000000  0.4775320000000 1.0
C      1  0.5402090000000  0.4382280000000  0.4398490000000 1.0
C      1  0.4519630000000  0.5295710000000  0.4346160000000 1.0
C      1  0.4386840000000  0.4689000000000  0.4767260000000 1.0
C      1  0.5478240000000  0.4521820000000  0.5403960000000 1.0
C      1  0.4959670000000  0.5630480000000  0.4605560000000 1.0
C      1  0.4603750000000  0.4186860000000  0.5052180000000 1.0
C      1  0.5486050000000  0.5666330000000  0.4713380000000 1.0
C      1  0.5060950000000  0.4226780000000  0.5244270000000 1.0
C      1  0.4605010000000  0.5650630000000  0.5362370000000 1.0
C      1  0.5653820000000  0.5452930000000  0.4813630000000 1.0
C      1  0.4586020000000  0.4989660000000  0.4354110000000 1.0
C      1  0.5549710000000  0.4483850000000  0.5012710000000 1.0
C      1  0.4839400000000  0.5099700000000  0.5906260000000 1.0
C      1  0.4585470000000  0.5264970000000  0.5264600000000 1.0
C      1  0.5215460000000  0.5056860000000  0.5224110000000 1.0
C      1  0.4508170000000  0.4464980000000  0.4887530000000 1.0
C      1  0.4845760000000  0.4563590000000  0.4512600000000 1.0
C      1  0.4938810000000  0.4346990000000  0.5476240000000 1.0
C      1  0.5114060000000  0.6060880000000  0.5271810000000 1.0
C      1  0.4090360000000  0.4841860000000  0.4986570000000 1.0
C      1  0.3902490000000  0.4682900000000  0.5073140000000 1.0
C      1  0.5318460000000  0.4586460000000  0.5667860000000 1.0
C      1  0.5372680000000  0.5241770000000  0.5002980000000 1.0
C      1  0.5767160000000  0.5070900000000  0.5059910000000 1.0
C      1  0.5184920000000  0.5712260000000  0.4849300000000 1.0
C      1  0.5458210000000  0.4505920000000  0.4712600000000 1.0
C      1  0.4870240000000  0.5827370000000  0.5264460000000 1.0
C      1  0.4769970000000  0.4781290000000  0.5521260000000 1.0
C      1  0.4514110000000  0.5408510000000  0.5555650000000 1.0
C      1  0.5266830000000  0.4905010000000  0.5671740000000 1.0
C      1  0.5111510000000  0.5326360000000  0.5395810000000 1.0
C      1  0.5331900000000  0.5211760000000  0.5706430000000 1.0
C      1  0.5201970000000  0.5380500000000  0.4801350000000 1.0
C      1  0.5630700000000  0.4758270000000  0.5071000000000 1.0
C      1  0.5024650000000  0.4789330000000  0.4787300000000 1.0
C      1  0.4713870000000  0.4523900000000  0.5420140000000 1.0
C      1  0.4778810000000  0.5562730000000  0.5082850000000 1.0
C      1  0.4528990000000  0.4442290000000  0.5225390000000 1.0
C      1  0.5787430000000  0.4979770000000  0.4607650000000 1.0
C      1  0.5195180000000  0.4229080000000  0.4614660000000 1.0
C      1  0.4709320000000  0.5575000000000  0.4792180000000 1.0
C      1  0.4738360000000  0.5482010000000  0.4405420000000 1.0
C      1  0.5026190000000  0.5311060000000  0.5712420000000 1.0
C      1  0.4952590000000  0.4918390000000  0.5665560000000 1.0
C      1  0.5158170000000  0.4596170000000  0.4464030000000 1.0
C      1  0.5674830000000  0.4283280000000  0.5258100000000 1.0
C      1  0.4726540000000  0.4848670000000  0.4631630000000 1.0
C      1  0.5680490000000  0.4730640000000  0.4630570000000 1.0
C      1  0.4877200000000  0.4964630000000  0.4210850000000 1.0
C      1  0.5148670000000  0.5157800000000  0.4243270000000 1.0
C      1  0.5492380000000  0.4983920000000  0.4876020000000 1.0
C      1  0.5077090000000  0.4442150000000  0.5718420000000 1.0
C      1  0.4213660000000  0.5522210000000  0.4827020000000 1.0
C      1  0.4317330000000  0.4997200000000  0.5138570000000 1.0
C      1  0.5498930000000  0.5357240000000  0.5515460000000 1.0
C      1  0.5338060000000  0.4293500000000  0.5201110000000 1.0
C      1  0.5137920000000  0.4471760000000  0.4839260000000 1.0
C      1  0.4339270000000  0.5134130000000  0.5449560000000 1.0
C      1  0.4210440000000  0.5234040000000  0.4678480000000 1.0
C      1  0.4830970000000  0.4797630000000  0.6025950000000 1.0
C      1  0.4965360000000  0.5012830000000  0.5009090000000 1.0
C      1  0.5428510000000  0.5256110000000  0.4407780000000 1.0
C      1  0.5312010000000  0.4881370000000  0.4667370000000 1.0
C      1  0.5327660000000  0.5555950000000  0.5298800000000 1.0
C      1  0.4537970000000  0.5307080000000  0.4745320000000 1.0
C      1  0.5392850000000  0.4848430000000  0.5379190000000 1.0
C      1  0.5755800000000  0.5242370000000  0.5355230000000 1.0
C      1  0.4354830000000  0.4801370000000  0.4453430000000 1.0
C      1  0.4980740000000  0.5183200000000  0.4733860000000 1.0
C      1  0.4971370000000  0.4679710000000  0.4212040000000 1.0
C      1  0.5596620000000  0.5424120000000  0.5135200000000 1.0
C      1  0.5712380000000  0.4914390000000  0.5359880000000 1.0
C      1  0.4700470000000  0.5370170000000  0.5783020000000 1.0
C      1  0.4902970000000  0.5211520000000  0.4448600000000 1.0
C      1  0.5270010000000  0.5534830000000  0.4502890000000 1.0
END
