TITL C-2778433-5640-934 0.000244241675592067 125000 -436.947800625898 0 0 76 (C1) n - 1
REM
REM in /home/nfs/bkarasulu/CARBON/AIRSS/Generating-Clusters/REBO/Only-C1/SD-CG/HFTN-CG
REM
REM
REM
REM
REM
REM ./C.cell (11c1c37f851c82e70ff6c80c92926a4b)
REM
REM compiler GCC version 9.2.1 20190827 (Red Hat 9.2.1-1)
REM options -cpp -mtune=generic -march=x86-64 -g -O0 -fpre-include=/usr/include/finclude/math-vector-fortran.h
REM seed -649681926 -1635078541 -568880404 468976442 594836791 -830419714 2052119627 1842323190 672644307 933408131 -1030226083 -1462416988 2018571525 722542186 -1532168656 -1565599558 292880075 -1938786180 1627547964 -1104362199 -380565212 2028441494 -1857159765 1511927161 1386475822 1176533897 1696459114 -338098477 307426534 1115253385 673795095 834755000 1029120367
REM
CELL 1.54180   50.00000   50.00000   50.00000   90.00000   90.00000   90.00000
LATT -1
SFAC C  
C      1  0.5012100000000  0.5250110000000  0.4735630000000 1.0
C      1  0.5308750000000  0.4609920000000  0.5547680000000 1.0
C      1  0.5511580000000  0.5352200000000  0.5465090000000 1.0
C      1  0.4561720000000  0.4550340000000  0.5330970000000 1.0
C      1  0.5523410000000  0.4573160000000  0.4603880000000 1.0
C      1  0.5572550000000  0.4904070000000  0.4637890000000 1.0
C      1  0.4133840000000  0.4662890000000  0.4992770000000 1.0
C      1  0.5401380000000  0.4398610000000  0.5364720000000 1.0
C      1  0.4646040000000  0.5297840000000  0.4389780000000 1.0
C      1  0.5708510000000  0.4891210000000  0.5303760000000 1.0
C      1  0.4521790000000  0.5668870000000  0.5370930000000 1.0
C      1  0.5077230000000  0.4300490000000  0.4623450000000 1.0
C      1  0.4788270000000  0.5665160000000  0.4684560000000 1.0
C      1  0.4930310000000  0.5558350000000  0.5582520000000 1.0
C      1  0.4447320000000  0.5062150000000  0.4529230000000 1.0
C      1  0.5021790000000  0.5027600000000  0.5168680000000 1.0
C      1  0.5390340000000  0.5101600000000  0.5528610000000 1.0
C      1  0.4899520000000  0.5118040000000  0.4267420000000 1.0
C      1  0.4782570000000  0.5751720000000  0.5453670000000 1.0
C      1  0.5362830000000  0.5593570000000  0.5402280000000 1.0
C      1  0.4831100000000  0.4767270000000  0.5087000000000 1.0
C      1  0.4385890000000  0.5372990000000  0.4955860000000 1.0
C      1  0.5236800000000  0.5099460000000  0.4315800000000 1.0
C      1  0.5938300000000  0.5100800000000  0.4944240000000 1.0
C      1  0.5355110000000  0.5528460000000  0.4650950000000 1.0
C      1  0.4899600000000  0.4535960000000  0.5402420000000 1.0
C      1  0.4495470000000  0.5036960000000  0.5273270000000 1.0
C      1  0.5267110000000  0.4948470000000  0.5013200000000 1.0
C      1  0.5479190000000  0.4841800000000  0.5621220000000 1.0
C      1  0.5847420000000  0.5116590000000  0.5215130000000 1.0
C      1  0.5725660000000  0.4602800000000  0.5199530000000 1.0
C      1  0.4870220000000  0.5213520000000  0.4987250000000 1.0
C      1  0.4547810000000  0.5197690000000  0.5546490000000 1.0
C      1  0.4777000000000  0.4462940000000  0.4565050000000 1.0
C      1  0.4576010000000  0.4686030000000  0.4546730000000 1.0
C      1  0.4574760000000  0.4617640000000  0.4938740000000 1.0
C      1  0.5609460000000  0.4430950000000  0.4859070000000 1.0
C      1  0.5837560000000  0.4871240000000  0.4801580000000 1.0
C      1  0.4640420000000  0.4908550000000  0.4307350000000 1.0
C      1  0.5779680000000  0.5344470000000  0.5365950000000 1.0
C      1  0.5026330000000  0.4924220000000  0.4505010000000 1.0
C      1  0.5851350000000  0.4604320000000  0.4928180000000 1.0
C      1  0.4498640000000  0.5629200000000  0.4764500000000 1.0
C      1  0.5119430000000  0.4599820000000  0.5154390000000 1.0
C      1  0.5092240000000  0.5066210000000  0.5461250000000 1.0
C      1  0.4633140000000  0.4320000000000  0.5090370000000 1.0
C      1  0.4574910000000  0.5145200000000  0.5009440000000 1.0
C      1  0.4166090000000  0.4999420000000  0.5049640000000 1.0
C      1  0.4442190000000  0.5448790000000  0.5539860000000 1.0
C      1  0.6076720000000  0.5300230000000  0.4822310000000 1.0
C      1  0.4321730000000  0.4760340000000  0.5242060000000 1.0
C      1  0.5274320000000  0.4476100000000  0.4428990000000 1.0
C      1  0.5002820000000  0.4642320000000  0.4438590000000 1.0
C      1  0.4364370000000  0.5390170000000  0.4560920000000 1.0
C      1  0.4995220000000  0.5808060000000  0.4810520000000 1.0
C      1  0.4447740000000  0.5657870000000  0.5100590000000 1.0
C      1  0.5424770000000  0.4358050000000  0.5069300000000 1.0
C      1  0.4171690000000  0.5208260000000  0.4777950000000 1.0
C      1  0.5248740000000  0.5685150000000  0.4862430000000 1.0
C      1  0.4783160000000  0.5000590000000  0.5700970000000 1.0
C      1  0.5270490000000  0.5034130000000  0.4713760000000 1.0
C      1  0.4537320000000  0.4926070000000  0.4799360000000 1.0
C      1  0.5422690000000  0.4751450000000  0.5183250000000 1.0
C      1  0.5134920000000  0.4345300000000  0.4951090000000 1.0
C      1  0.4821420000000  0.4296660000000  0.4849290000000 1.0
C      1  0.5358990000000  0.5347570000000  0.4452310000000 1.0
C      1  0.4802000000000  0.4237120000000  0.5349170000000 1.0
C      1  0.4312240000000  0.4609760000000  0.4715980000000 1.0
C      1  0.4110300000000  0.4882630000000  0.4730810000000 1.0
C      1  0.4634100000000  0.4823870000000  0.5477180000000 1.0
C      1  0.5276270000000  0.5757350000000  0.5601920000000 1.0
C      1  0.5329120000000  0.5657260000000  0.5130180000000 1.0
C      1  0.5382850000000  0.4798580000000  0.4378500000000 1.0
C      1  0.5008610000000  0.4764970000000  0.5594960000000 1.0
C      1  0.4929390000000  0.5295440000000  0.5615180000000 1.0
C      1  0.4877270000000  0.5425030000000  0.4559470000000 1.0
END
