TITL C-2778434-4341-1027 -0.00166200657540846 125000 -1122.56077064368 0 0 193 (C1) n - 1
REM
REM in /home/nfs/bkarasulu/CARBON/AIRSS/Generating-Clusters/REBO/Only-C1/SD-CG/HFTN-CG
REM
REM
REM
REM
REM
REM ./C.cell (11c1c37f851c82e70ff6c80c92926a4b)
REM
REM compiler GCC version 9.2.1 20190827 (Red Hat 9.2.1-1)
REM options -cpp -mtune=generic -march=x86-64 -g -O0 -fpre-include=/usr/include/finclude/math-vector-fortran.h
REM seed 749774144 -2133901128 774225207 745460630 -1511975835 979767983 -2131852014 -506857757 9442416 -1625068032 1865835137 203021148 -1342369437 668568622 688336024 -749685055 254678994 1918619070 -876381571 -656515112 1169334949 464634758 1832244405 -1991509173 100205230 1202058530 -1865187854 1837289109 1143468390 277032101 1197326493 1551190627 -356906956
REM
CELL 1.54180   50.00000   50.00000   50.00000   90.00000   90.00000   90.00000
LATT -1
SFAC C  
C      1  0.5119050000000  0.4180730000000  0.5430450000000 1.0
C      1  0.6067960000000  0.4854590000000  0.5261900000000 1.0
C      1  0.4890510000000  0.4957890000000  0.4817260000000 1.0
C      1  0.5107170000000  0.5474270000000  0.5918850000000 1.0
C      1  0.4803850000000  0.4180260000000  0.4713630000000 1.0
C      1  0.5660350000000  0.4821290000000  0.5807350000000 1.0
C      1  0.5523510000000  0.4211130000000  0.4433340000000 1.0
C      1  0.5166840000000  0.4985280000000  0.6128460000000 1.0
C      1  0.5503410000000  0.5563240000000  0.5145180000000 1.0
C      1  0.5301740000000  0.5847130000000  0.4638670000000 1.0
C      1  0.5466160000000  0.4020670000000  0.4775790000000 1.0
C      1  0.5050150000000  0.4877760000000  0.5049130000000 1.0
C      1  0.4874890000000  0.4772090000000  0.5322390000000 1.0
C      1  0.6060370000000  0.5191580000000  0.5309010000000 1.0
C      1  0.4569380000000  0.4053470000000  0.5084060000000 1.0
C      1  0.4862980000000  0.5256730000000  0.3967150000000 1.0
C      1  0.5065200000000  0.5785090000000  0.5626840000000 1.0
C      1  0.5449390000000  0.5395070000000  0.4066780000000 1.0
C      1  0.4820510000000  0.5638910000000  0.4672970000000 1.0
C      1  0.5260650000000  0.4749910000000  0.4651860000000 1.0
C      1  0.4874200000000  0.4143570000000  0.5744050000000 1.0
C      1  0.5370340000000  0.4752930000000  0.5934970000000 1.0
C      1  0.4561690000000  0.4369380000000  0.5000070000000 1.0
C      1  0.4072140000000  0.5260890000000  0.5027490000000 1.0
C      1  0.5796400000000  0.5469110000000  0.4732910000000 1.0
C      1  0.5296350000000  0.6046410000000  0.5238090000000 1.0
C      1  0.4399310000000  0.5435790000000  0.5156740000000 1.0
C      1  0.5630580000000  0.4426170000000  0.4205550000000 1.0
C      1  0.5314980000000  0.5588220000000  0.4452040000000 1.0
C      1  0.3927190000000  0.4998530000000  0.5131540000000 1.0
C      1  0.5360060000000  0.5279190000000  0.4530770000000 1.0
C      1  0.5249420000000  0.4026330000000  0.4514190000000 1.0
C      1  0.5589080000000  0.5031440000000  0.4574800000000 1.0
C      1  0.5801650000000  0.4664820000000  0.4232330000000 1.0
C      1  0.4657980000000  0.5143410000000  0.5098820000000 1.0
C      1  0.5216980000000  0.5489580000000  0.5538930000000 1.0
C      1  0.5239270000000  0.5126850000000  0.4000190000000 1.0
C      1  0.5328290000000  0.4407250000000  0.4144870000000 1.0
C      1  0.5419460000000  0.5422370000000  0.5872650000000 1.0
C      1  0.4948040000000  0.5385640000000  0.4248760000000 1.0
C      1  0.5464650000000  0.5079120000000  0.5575270000000 1.0
C      1  0.5413070000000  0.4856450000000  0.4887890000000 1.0
C      1  0.4531810000000  0.5332100000000  0.3986470000000 1.0
C      1  0.4172830000000  0.5621910000000  0.5426450000000 1.0
C      1  0.4306290000000  0.5264260000000  0.4529110000000 1.0
C      1  0.5151560000000  0.5625940000000  0.4198460000000 1.0
C      1  0.5688330000000  0.4898090000000  0.4103500000000 1.0
C      1  0.4389060000000  0.4573780000000  0.5359940000000 1.0
C      1  0.4392950000000  0.5957680000000  0.4917610000000 1.0
C      1  0.4224020000000  0.4697760000000  0.4547620000000 1.0
C      1  0.5391630000000  0.4345280000000  0.5188730000000 1.0
C      1  0.6133320000000  0.4835020000000  0.4923730000000 1.0
C      1  0.5344590000000  0.5761920000000  0.4961630000000 1.0
C      1  0.4926290000000  0.5058650000000  0.5483130000000 1.0
C      1  0.4556020000000  0.4491330000000  0.4217220000000 1.0
C      1  0.5179410000000  0.4580430000000  0.5157030000000 1.0
C      1  0.4472820000000  0.5825620000000  0.4614020000000 1.0
C      1  0.4315710000000  0.4182350000000  0.5251890000000 1.0
C      1  0.4947550000000  0.5300630000000  0.5066910000000 1.0
C      1  0.5251520000000  0.4428170000000  0.4636620000000 1.0
C      1  0.5716230000000  0.5820650000000  0.4778830000000 1.0
C      1  0.5563790000000  0.5926220000000  0.5299630000000 1.0
C      1  0.4329170000000  0.5051230000000  0.5117470000000 1.0
C      1  0.5749430000000  0.4170160000000  0.5173690000000 1.0
C      1  0.3982080000000  0.4775510000000  0.4959640000000 1.0
C      1  0.4343000000000  0.4845290000000  0.5812580000000 1.0
C      1  0.4227870000000  0.5012500000000  0.5420900000000 1.0
C      1  0.5656330000000  0.5542970000000  0.4483700000000 1.0
C      1  0.4936990000000  0.4353910000000  0.5212880000000 1.0
C      1  0.4467000000000  0.4763270000000  0.4706710000000 1.0
C      1  0.5592890000000  0.5872080000000  0.4463610000000 1.0
C      1  0.5457210000000  0.4775280000000  0.4401420000000 1.0
C      1  0.3901370000000  0.4935100000000  0.5445880000000 1.0
C      1  0.4295940000000  0.5646160000000  0.4387350000000 1.0
C      1  0.5836770000000  0.4280000000000  0.5484320000000 1.0
C      1  0.4157750000000  0.5774170000000  0.4890480000000 1.0
C      1  0.4722680000000  0.4657730000000  0.5038150000000 1.0
C      1  0.4804250000000  0.4504260000000  0.5950240000000 1.0
C      1  0.5101060000000  0.5538990000000  0.5257020000000 1.0
C      1  0.6069770000000  0.5143430000000  0.4979690000000 1.0
C      1  0.4934080000000  0.4433780000000  0.4879670000000 1.0
C      1  0.5748940000000  0.5093100000000  0.5031970000000 1.0
C      1  0.5412790000000  0.4808980000000  0.5386870000000 1.0
C      1  0.4851950000000  0.5361790000000  0.4537340000000 1.0
C      1  0.5115540000000  0.4354350000000  0.5720300000000 1.0
C      1  0.4596270000000  0.6012960000000  0.5109460000000 1.0
C      1  0.4033710000000  0.5323680000000  0.4728870000000 1.0
C      1  0.4111860000000  0.5585880000000  0.5122840000000 1.0
C      1  0.4773270000000  0.5656650000000  0.5068360000000 1.0
C      1  0.5117590000000  0.4374320000000  0.4368200000000 1.0
C      1  0.5842610000000  0.5206510000000  0.5573410000000 1.0
C      1  0.4657270000000  0.5056490000000  0.4245000000000 1.0
C      1  0.5102020000000  0.5304820000000  0.4758640000000 1.0
C      1  0.5354260000000  0.5144160000000  0.4922110000000 1.0
C      1  0.3955230000000  0.5076980000000  0.4551600000000 1.0
C      1  0.3951110000000  0.5147770000000  0.5675980000000 1.0
C      1  0.4186700000000  0.4274670000000  0.4950470000000 1.0
C      1  0.4775980000000  0.5928550000000  0.4519920000000 1.0
C      1  0.4785830000000  0.5846540000000  0.5649860000000 1.0
C      1  0.4578620000000  0.5314730000000  0.4383200000000 1.0
C      1  0.4099820000000  0.5380400000000  0.5582940000000 1.0
C      1  0.5604930000000  0.5347940000000  0.4930770000000 1.0
C      1  0.5891780000000  0.4320380000000  0.4903860000000 1.0
C      1  0.6063660000000  0.5359690000000  0.4784230000000 1.0
C      1  0.5835670000000  0.4893150000000  0.4764330000000 1.0
C      1  0.5277000000000  0.4467350000000  0.5970690000000 1.0
C      1  0.4613470000000  0.4228940000000  0.4428290000000 1.0
C      1  0.5570190000000  0.4510940000000  0.4589160000000 1.0
C      1  0.5345440000000  0.4044720000000  0.5620660000000 1.0
C      1  0.5320510000000  0.5293050000000  0.5206410000000 1.0
C      1  0.4590930000000  0.5042840000000  0.4793090000000 1.0
C      1  0.4644960000000  0.5218340000000  0.5789950000000 1.0
C      1  0.5062950000000  0.5632290000000  0.4876050000000 1.0
C      1  0.5017140000000  0.6007750000000  0.4713640000000 1.0
C      1  0.5420160000000  0.4571600000000  0.5584500000000 1.0
C      1  0.4612260000000  0.4940960000000  0.5775730000000 1.0
C      1  0.4277710000000  0.4517990000000  0.5736940000000 1.0
C      1  0.4566010000000  0.5608290000000  0.5769300000000 1.0
C      1  0.5246820000000  0.4607180000000  0.3960690000000 1.0
C      1  0.5196850000000  0.5017420000000  0.5285220000000 1.0
C      1  0.5474580000000  0.4038190000000  0.5086120000000 1.0
C      1  0.5006650000000  0.4880120000000  0.4595420000000 1.0
C      1  0.5749980000000  0.4150510000000  0.4678720000000 1.0
C      1  0.5891180000000  0.4865070000000  0.5553410000000 1.0
C      1  0.4855870000000  0.4762570000000  0.5760680000000 1.0
C      1  0.4755570000000  0.4662930000000  0.4001180000000 1.0
C      1  0.5589550000000  0.5675790000000  0.4179610000000 1.0
C      1  0.4644520000000  0.4558630000000  0.5589060000000 1.0
C      1  0.4423600000000  0.4294770000000  0.4705340000000 1.0
C      1  0.5364830000000  0.4857900000000  0.4083660000000 1.0
C      1  0.5258610000000  0.6096470000000  0.4937150000000 1.0
C      1  0.5149210000000  0.5437820000000  0.3914100000000 1.0
C      1  0.4391720000000  0.5287620000000  0.5433780000000 1.0
C      1  0.5702270000000  0.5562360000000  0.5388580000000 1.0
C      1  0.4951170000000  0.4945200000000  0.4003980000000 1.0
C      1  0.4380670000000  0.5338670000000  0.5866120000000 1.0
C      1  0.5712760000000  0.5890090000000  0.5048730000000 1.0
C      1  0.4175880000000  0.4556700000000  0.5094970000000 1.0
C      1  0.4845490000000  0.4558810000000  0.4375530000000 1.0
C      1  0.5591610000000  0.5126310000000  0.5886720000000 1.0
C      1  0.4000250000000  0.4821870000000  0.4673740000000 1.0
C      1  0.4990010000000  0.4578690000000  0.3850580000000 1.0
C      1  0.4894410000000  0.4862550000000  0.4316770000000 1.0
C      1  0.4127610000000  0.4702330000000  0.5509970000000 1.0
C      1  0.4402390000000  0.4769920000000  0.5014060000000 1.0
C      1  0.4726240000000  0.5554340000000  0.5389820000000 1.0
C      1  0.4935940000000  0.4119230000000  0.4420530000000 1.0
C      1  0.4289050000000  0.4654000000000  0.4276150000000 1.0
C      1  0.5546830000000  0.5161150000000  0.4266930000000 1.0
C      1  0.4121560000000  0.5620740000000  0.4649900000000 1.0
C      1  0.5094900000000  0.4590810000000  0.5490750000000 1.0
C      1  0.5106910000000  0.4923840000000  0.5812680000000 1.0
C      1  0.5071560000000  0.5855170000000  0.5234920000000 1.0
C      1  0.4245260000000  0.5396250000000  0.4161300000000 1.0
C      1  0.4688120000000  0.4067010000000  0.5551070000000 1.0
C      1  0.4658610000000  0.4387480000000  0.5319740000000 1.0
C      1  0.5146690000000  0.4023530000000  0.5146420000000 1.0
C      1  0.5052200000000  0.3868130000000  0.4712320000000 1.0
C      1  0.5018810000000  0.4430020000000  0.6100400000000 1.0
C      1  0.5191940000000  0.4209790000000  0.4864820000000 1.0
C      1  0.4885920000000  0.5966830000000  0.5002090000000 1.0
C      1  0.5757100000000  0.4561800000000  0.5629120000000 1.0
C      1  0.4833900000000  0.3927540000000  0.4916870000000 1.0
C      1  0.5389080000000  0.5782950000000  0.5522260000000 1.0
C      1  0.4478130000000  0.4997010000000  0.4007870000000 1.0
C      1  0.4654880000000  0.4541160000000  0.4644130000000 1.0
C      1  0.4606250000000  0.5969930000000  0.5390460000000 1.0
C      1  0.5182730000000  0.5204920000000  0.5635180000000 1.0
C      1  0.5778260000000  0.4506270000000  0.5234550000000 1.0
C      1  0.5938720000000  0.4737880000000  0.4476290000000 1.0
C      1  0.6054200000000  0.4564720000000  0.5079410000000 1.0
C      1  0.4418100000000  0.5319660000000  0.4835700000000 1.0
C      1  0.4389030000000  0.4233980000000  0.5569060000000 1.0
C      1  0.5508920000000  0.4286390000000  0.5481250000000 1.0
C      1  0.4550160000000  0.4354530000000  0.5845890000000 1.0
C      1  0.5445760000000  0.5157090000000  0.6166730000000 1.0
C      1  0.4567200000000  0.5599470000000  0.4194130000000 1.0
C      1  0.5680500000000  0.5070540000000  0.5311670000000 1.0
C      1  0.4115110000000  0.5124320000000  0.4278150000000 1.0
C      1  0.4190650000000  0.5099730000000  0.5852290000000 1.0
C      1  0.5964110000000  0.5499780000000  0.5330040000000 1.0
C      1  0.4551490000000  0.5598920000000  0.4846430000000 1.0
C      1  0.4829340000000  0.3967520000000  0.5258500000000 1.0
C      1  0.5162740000000  0.5312770000000  0.6163790000000 1.0
C      1  0.4240210000000  0.4887810000000  0.4122210000000 1.0
C      1  0.5557220000000  0.4705280000000  0.5132760000000 1.0
C      1  0.4710050000000  0.5237390000000  0.5396160000000 1.0
C      1  0.5623800000000  0.5448670000000  0.5653770000000 1.0
C      1  0.4733580000000  0.5843670000000  0.4131960000000 1.0
C      1  0.4981400000000  0.5876830000000  0.4154980000000 1.0
C      1  0.4443900000000  0.5716250000000  0.5492470000000 1.0
C      1  0.5711290000000  0.4593140000000  0.4850140000000 1.0
C      1  0.4854920000000  0.5453540000000  0.5699200000000 1.0
END
