TITL C-2778427-5640-725 6.51915271409681e-05 125000 -116.523365466631 0 0 22 (C1) n - 1
REM
REM in /home/nfs/bkarasulu/CARBON/AIRSS/Generating-Clusters/REBO/Only-C1/SD-CG/HFTN-CG
REM
REM
REM
REM
REM
REM ./C.cell (11c1c37f851c82e70ff6c80c92926a4b)
REM
REM compiler GCC version 9.2.1 20190827 (Red Hat 9.2.1-1)
REM options -cpp -mtune=generic -march=x86-64 -g -O0 -fpre-include=/usr/include/finclude/math-vector-fortran.h
REM seed 1579958177 1948905009 473420974 -852273175 937531785 -2058422097 1188184544 1915678008 440986918 2091712321 -1915251226 1624263677 1817596296 1370536194 -1970217709 -530494630 2002846112 1642954427 -1247237218 -1938386186 -1668238747 -64120856 -274333052 -112801172 -786416524 258019806 -1705819360 -397468451 -518297707 558986021 455745473 -1874382363 -1568414626
REM
CELL 1.54180   50.00000   50.00000   50.00000   90.00000   90.00000   90.00000
LATT -1
SFAC C  
C      1  0.5120050000000  0.5128470000000  0.4535060000000 1.0
C      1  0.4858430000000  0.5172240000000  0.5594840000000 1.0
C      1  0.4651140000000  0.4775950000000  0.5008370000000 1.0
C      1  0.4724930000000  0.5267680000000  0.5107490000000 1.0
C      1  0.4871180000000  0.5077810000000  0.4667640000000 1.0
C      1  0.4805030000000  0.5318090000000  0.4850550000000 1.0
C      1  0.4925750000000  0.4589760000000  0.4654300000000 1.0
C      1  0.4899650000000  0.4811160000000  0.4833480000000 1.0
C      1  0.4838360000000  0.5573340000000  0.4747170000000 1.0
C      1  0.4638580000000  0.5207630000000  0.5415170000000 1.0
C      1  0.5152110000000  0.4830940000000  0.5013130000000 1.0
C      1  0.4869850000000  0.5814490000000  0.4649490000000 1.0
C      1  0.5416110000000  0.4634120000000  0.4635550000000 1.0
C      1  0.4485520000000  0.4558230000000  0.4976920000000 1.0
C      1  0.4658380000000  0.5044200000000  0.4478790000000 1.0
C      1  0.5394420000000  0.4730870000000  0.4886980000000 1.0
C      1  0.5076110000000  0.5037270000000  0.5495300000000 1.0
C      1  0.5505930000000  0.4866420000000  0.5329620000000 1.0
C      1  0.5219910000000  0.4916780000000  0.5285380000000 1.0
C      1  0.5645100000000  0.4917190000000  0.5555520000000 1.0
C      1  0.4637060000000  0.4973740000000  0.5196690000000 1.0
C      1  0.5606420000000  0.4753620000000  0.5082570000000 1.0
END
