TITL C-2778429-3646-972 -0.00631149940748481 125000 -1102.32104302789 0 0 190 (C1) n - 1
REM
REM in /home/nfs/bkarasulu/CARBON/AIRSS/Generating-Clusters/REBO/Only-C1/SD-CG/HFTN-CG
REM
REM
REM
REM
REM
REM ./C.cell (11c1c37f851c82e70ff6c80c92926a4b)
REM
REM compiler GCC version 9.2.1 20190827 (Red Hat 9.2.1-1)
REM options -cpp -mtune=generic -march=x86-64 -g -O0 -fpre-include=/usr/include/finclude/math-vector-fortran.h
REM seed 2098490740 -765490914 1236437571 -1696078146 1822201710 -1018287461 -1759261985 -1264433049 -526736502 -1286734113 -1705169891 -1146385389 2032354952 191881097 1200187461 1010314533 -745653452 142904094 679811598 1791975605 501164414 1727731647 -1984704196 -764962439 1712707344 -270951960 119221662 -1742078123 1524791221 761178358 -70544769 -801693191 1563509210
REM
CELL 1.54180   50.00000   50.00000   50.00000   90.00000   90.00000   90.00000
LATT -1
SFAC C  
C      1  0.5829970000000  0.5246330000000  0.4504710000000 1.0
C      1  0.5570080000000  0.6049070000000  0.4970130000000 1.0
C      1  0.4451610000000  0.4291110000000  0.4322030000000 1.0
C      1  0.5361760000000  0.4563650000000  0.5863880000000 1.0
C      1  0.4569890000000  0.5912310000000  0.4951380000000 1.0
C      1  0.5432270000000  0.5547380000000  0.5793080000000 1.0
C      1  0.4068430000000  0.4334000000000  0.5087660000000 1.0
C      1  0.5287370000000  0.5335490000000  0.5937380000000 1.0
C      1  0.4613990000000  0.4967550000000  0.4519540000000 1.0
C      1  0.4555120000000  0.4240070000000  0.5431020000000 1.0
C      1  0.4530700000000  0.5012550000000  0.5563120000000 1.0
C      1  0.4229410000000  0.5682460000000  0.4819800000000 1.0
C      1  0.5109860000000  0.3888190000000  0.4725260000000 1.0
C      1  0.5213660000000  0.4274350000000  0.4732540000000 1.0
C      1  0.4344300000000  0.4534540000000  0.5812200000000 1.0
C      1  0.5003770000000  0.4876260000000  0.5166210000000 1.0
C      1  0.4251490000000  0.4993080000000  0.4793180000000 1.0
C      1  0.4864450000000  0.5565780000000  0.5485140000000 1.0
C      1  0.4412230000000  0.5434580000000  0.4956440000000 1.0
C      1  0.4732850000000  0.4530180000000  0.5409630000000 1.0
C      1  0.4976020000000  0.4465240000000  0.5857660000000 1.0
C      1  0.5587480000000  0.5302290000000  0.5520150000000 1.0
C      1  0.4586990000000  0.4447620000000  0.5909420000000 1.0
C      1  0.5298010000000  0.5204470000000  0.4116590000000 1.0
C      1  0.4843550000000  0.6071570000000  0.5407200000000 1.0
C      1  0.5508110000000  0.4647860000000  0.4801690000000 1.0
C      1  0.4706260000000  0.5296190000000  0.5345360000000 1.0
C      1  0.5181980000000  0.4752780000000  0.4591400000000 1.0
C      1  0.4935570000000  0.4045600000000  0.5174120000000 1.0
C      1  0.4835980000000  0.4607600000000  0.4922010000000 1.0
C      1  0.4791350000000  0.5720660000000  0.5223070000000 1.0
C      1  0.5797340000000  0.4965910000000  0.5534510000000 1.0
C      1  0.4887450000000  0.4134580000000  0.4344160000000 1.0
C      1  0.6036920000000  0.4771280000000  0.5281340000000 1.0
C      1  0.4337440000000  0.4785440000000  0.4537430000000 1.0
C      1  0.5421490000000  0.5730140000000  0.4238080000000 1.0
C      1  0.4490050000000  0.5433580000000  0.5524470000000 1.0
C      1  0.5592800000000  0.4804860000000  0.4533860000000 1.0
C      1  0.4950790000000  0.5369270000000  0.5121250000000 1.0
C      1  0.5980330000000  0.5064050000000  0.5195170000000 1.0
C      1  0.5110440000000  0.5360770000000  0.3956520000000 1.0
C      1  0.5536780000000  0.5137410000000  0.4579410000000 1.0
C      1  0.5306310000000  0.4802080000000  0.5029420000000 1.0
C      1  0.4350390000000  0.5123420000000  0.4264580000000 1.0
C      1  0.4875660000000  0.5215650000000  0.3860860000000 1.0
C      1  0.4977520000000  0.5177480000000  0.5699440000000 1.0
C      1  0.3974960000000  0.4529330000000  0.4904250000000 1.0
C      1  0.5647180000000  0.5395440000000  0.4956900000000 1.0
C      1  0.5585450000000  0.5231550000000  0.4190850000000 1.0
C      1  0.4796570000000  0.5551420000000  0.5973200000000 1.0
C      1  0.5067770000000  0.5898520000000  0.5571300000000 1.0
C      1  0.4312220000000  0.4997770000000  0.5893840000000 1.0
C      1  0.5022780000000  0.4518870000000  0.4685390000000 1.0
C      1  0.3984170000000  0.5466310000000  0.4724440000000 1.0
C      1  0.5059040000000  0.4414600000000  0.5069760000000 1.0
C      1  0.5807000000000  0.5873960000000  0.4997690000000 1.0
C      1  0.4708080000000  0.4961660000000  0.5311370000000 1.0
C      1  0.4236560000000  0.5597390000000  0.5385980000000 1.0
C      1  0.4240360000000  0.4338810000000  0.5381880000000 1.0
C      1  0.4610580000000  0.4875830000000  0.5849520000000 1.0
C      1  0.5228680000000  0.6056920000000  0.5308960000000 1.0
C      1  0.4636960000000  0.4349980000000  0.4694310000000 1.0
C      1  0.4669600000000  0.5253610000000  0.5740370000000 1.0
C      1  0.4215950000000  0.5050640000000  0.5586610000000 1.0
C      1  0.5110210000000  0.5635090000000  0.4157950000000 1.0
C      1  0.4262550000000  0.5109230000000  0.5129790000000 1.0
C      1  0.5613990000000  0.4280660000000  0.5736660000000 1.0
C      1  0.5309710000000  0.4256450000000  0.5787520000000 1.0
C      1  0.5765260000000  0.4982310000000  0.4294900000000 1.0
C      1  0.6044470000000  0.5366540000000  0.4941720000000 1.0
C      1  0.5555170000000  0.4155160000000  0.5225600000000 1.0
C      1  0.5936620000000  0.4310340000000  0.4970560000000 1.0
C      1  0.5537250000000  0.5915510000000  0.5287830000000 1.0
C      1  0.5381200000000  0.4386040000000  0.4233090000000 1.0
C      1  0.5892310000000  0.4429740000000  0.4378750000000 1.0
C      1  0.4720780000000  0.4293640000000  0.4108540000000 1.0
C      1  0.5143290000000  0.4582120000000  0.3742760000000 1.0
C      1  0.4609010000000  0.4818040000000  0.4826570000000 1.0
C      1  0.4794150000000  0.5443790000000  0.4656310000000 1.0
C      1  0.5254620000000  0.4021120000000  0.4957480000000 1.0
C      1  0.4847110000000  0.6299420000000  0.4970490000000 1.0
C      1  0.4074620000000  0.4787890000000  0.5002610000000 1.0
C      1  0.4588840000000  0.4560590000000  0.5130210000000 1.0
C      1  0.4081260000000  0.5365670000000  0.5008210000000 1.0
C      1  0.4083000000000  0.5049160000000  0.4379050000000 1.0
C      1  0.5258890000000  0.5249850000000  0.4442080000000 1.0
C      1  0.5396250000000  0.4141910000000  0.4407050000000 1.0
C      1  0.4813090000000  0.5098850000000  0.5017320000000 1.0
C      1  0.4314120000000  0.5776570000000  0.5136810000000 1.0
C      1  0.5078840000000  0.4507740000000  0.4124690000000 1.0
C      1  0.4392560000000  0.4323450000000  0.5076260000000 1.0
C      1  0.4570180000000  0.5945590000000  0.5285410000000 1.0
C      1  0.5046050000000  0.4876520000000  0.5710300000000 1.0
C      1  0.6027690000000  0.5167360000000  0.4733520000000 1.0
C      1  0.5752040000000  0.4457600000000  0.4649290000000 1.0
C      1  0.4545030000000  0.5156240000000  0.4861280000000 1.0
C      1  0.5017110000000  0.5969710000000  0.4682960000000 1.0
C      1  0.5095980000000  0.5322010000000  0.5427020000000 1.0
C      1  0.5654960000000  0.4582470000000  0.4282190000000 1.0
C      1  0.5683070000000  0.4366250000000  0.5433980000000 1.0
C      1  0.5763240000000  0.4748620000000  0.5092490000000 1.0
C      1  0.5392410000000  0.5639410000000  0.4556590000000 1.0
C      1  0.4504320000000  0.5495630000000  0.5916210000000 1.0
C      1  0.6070690000000  0.4897360000000  0.4763860000000 1.0
C      1  0.5361340000000  0.5759880000000  0.5536520000000 1.0
C      1  0.5220450000000  0.5035970000000  0.5339830000000 1.0
C      1  0.5708360000000  0.5076760000000  0.5019510000000 1.0
C      1  0.4873600000000  0.4699010000000  0.3915590000000 1.0
C      1  0.4507550000000  0.4884770000000  0.4130520000000 1.0
C      1  0.4979610000000  0.6267750000000  0.5217790000000 1.0
C      1  0.5483370000000  0.6109880000000  0.4700190000000 1.0
C      1  0.3928400000000  0.4891330000000  0.5243930000000 1.0
C      1  0.4777630000000  0.6056410000000  0.4825660000000 1.0
C      1  0.4487590000000  0.4062980000000  0.4927340000000 1.0
C      1  0.4963810000000  0.5293140000000  0.6008010000000 1.0
C      1  0.4718490000000  0.5527160000000  0.4953040000000 1.0
C      1  0.5248010000000  0.4822690000000  0.3947750000000 1.0
C      1  0.5034420000000  0.5466750000000  0.4444670000000 1.0
C      1  0.4477400000000  0.4075160000000  0.4586720000000 1.0
C      1  0.5373410000000  0.5471280000000  0.5401320000000 1.0
C      1  0.5275850000000  0.4688760000000  0.4321440000000 1.0
C      1  0.4856950000000  0.4209200000000  0.4898980000000 1.0
C      1  0.5503380000000  0.4993540000000  0.5498800000000 1.0
C      1  0.5004130000000  0.4904900000000  0.4137340000000 1.0
C      1  0.4379230000000  0.5789370000000  0.4570350000000 1.0
C      1  0.4899280000000  0.5712560000000  0.5761850000000 1.0
C      1  0.4531990000000  0.5299520000000  0.4493600000000 1.0
C      1  0.4798910000000  0.4681450000000  0.5666120000000 1.0
C      1  0.5162020000000  0.5719350000000  0.4722070000000 1.0
C      1  0.4708040000000  0.4994840000000  0.3887610000000 1.0
C      1  0.4311800000000  0.5648110000000  0.5715850000000 1.0
C      1  0.4037560000000  0.4536420000000  0.4625960000000 1.0
C      1  0.5720110000000  0.5442550000000  0.5740270000000 1.0
C      1  0.4771180000000  0.4254030000000  0.5693760000000 1.0
C      1  0.5142400000000  0.4641400000000  0.6088810000000 1.0
C      1  0.4676270000000  0.4608060000000  0.4238350000000 1.0
C      1  0.3942320000000  0.4767510000000  0.4485540000000 1.0
C      1  0.5233330000000  0.4091450000000  0.5289610000000 1.0
C      1  0.3749220000000  0.4996940000000  0.4581330000000 1.0
C      1  0.3906780000000  0.5266840000000  0.4546000000000 1.0
C      1  0.5065230000000  0.5823470000000  0.5163450000000 1.0
C      1  0.4801070000000  0.4635960000000  0.6097910000000 1.0
C      1  0.5544550000000  0.4207550000000  0.4691000000000 1.0
C      1  0.4840890000000  0.5318250000000  0.4245480000000 1.0
C      1  0.4842190000000  0.4975810000000  0.6056190000000 1.0
C      1  0.5614060000000  0.4767760000000  0.5871590000000 1.0
C      1  0.5845890000000  0.5602850000000  0.4882200000000 1.0
C      1  0.5195600000000  0.5652430000000  0.4982070000000 1.0
C      1  0.5153390000000  0.3999670000000  0.4448090000000 1.0
C      1  0.4178280000000  0.4559880000000  0.5578500000000 1.0
C      1  0.4404290000000  0.4808170000000  0.5101490000000 1.0
C      1  0.5555420000000  0.5921200000000  0.4490680000000 1.0
C      1  0.5937880000000  0.4626160000000  0.4861020000000 1.0
C      1  0.4342600000000  0.4451180000000  0.4604980000000 1.0
C      1  0.6053130000000  0.5047830000000  0.5737520000000 1.0
C      1  0.5691670000000  0.4175070000000  0.4970480000000 1.0
C      1  0.4827650000000  0.4443450000000  0.4459740000000 1.0
C      1  0.5811950000000  0.5711310000000  0.5265070000000 1.0
C      1  0.4642800000000  0.4043000000000  0.5204730000000 1.0
C      1  0.4343010000000  0.4608660000000  0.4243900000000 1.0
C      1  0.5209240000000  0.6186520000000  0.4662340000000 1.0
C      1  0.5364460000000  0.4412150000000  0.4989750000000 1.0
C      1  0.5958900000000  0.5465190000000  0.5241250000000 1.0
C      1  0.5509470000000  0.4843960000000  0.4127660000000 1.0
C      1  0.5275090000000  0.4632750000000  0.5325780000000 1.0
C      1  0.5178880000000  0.4957500000000  0.6012900000000 1.0
C      1  0.5372410000000  0.5117110000000  0.4981760000000 1.0
C      1  0.4142570000000  0.5289030000000  0.5393900000000 1.0
C      1  0.5316080000000  0.4757770000000  0.5605580000000 1.0
C      1  0.4649800000000  0.5471620000000  0.4069220000000 1.0
C      1  0.4832750000000  0.5043500000000  0.4299180000000 1.0
C      1  0.5091430000000  0.4202700000000  0.5579730000000 1.0
C      1  0.4544770000000  0.5632680000000  0.4418690000000 1.0
C      1  0.4787170000000  0.5712200000000  0.4231180000000 1.0
C      1  0.5630800000000  0.5488290000000  0.4366860000000 1.0
C      1  0.4388110000000  0.5367030000000  0.4063340000000 1.0
C      1  0.5990980000000  0.5243740000000  0.5464970000000 1.0
C      1  0.4064280000000  0.4804990000000  0.5486180000000 1.0
C      1  0.3883190000000  0.5185400000000  0.5218700000000 1.0
C      1  0.5026830000000  0.4435980000000  0.5368480000000 1.0
C      1  0.5468690000000  0.5060660000000  0.5975830000000 1.0
C      1  0.4955920000000  0.4324270000000  0.3864770000000 1.0
C      1  0.5788860000000  0.4562990000000  0.5693500000000 1.0
C      1  0.5799420000000  0.5038050000000  0.5933000000000 1.0
C      1  0.5566370000000  0.4553190000000  0.5202810000000 1.0
C      1  0.6038950000000  0.4734420000000  0.5598390000000 1.0
C      1  0.5362740000000  0.5439140000000  0.5091820000000 1.0
C      1  0.5246660000000  0.5023740000000  0.4690550000000 1.0
C      1  0.4804170000000  0.3993400000000  0.4640740000000 1.0
C      1  0.4183150000000  0.5041710000000  0.6116930000000 1.0
END
