TITL C-2778434-4341-1419 0.0041597418849051 125000 -819.419726203183 0 0 141 (C1) n - 1
REM
REM in /home/nfs/bkarasulu/CARBON/AIRSS/Generating-Clusters/REBO/Only-C1/SD-CG/HFTN-CG
REM
REM
REM
REM
REM
REM ./C.cell (11c1c37f851c82e70ff6c80c92926a4b)
REM
REM compiler GCC version 9.2.1 20190827 (Red Hat 9.2.1-1)
REM options -cpp -mtune=generic -march=x86-64 -g -O0 -fpre-include=/usr/include/finclude/math-vector-fortran.h
REM seed -63139568 -1365486436 -1255076018 1853184320 1498642116 1915759710 549235909 -1775877090 640149481 -1507847489 1321443712 -285436233 -386261657 -1762406786 -686033267 1804305768 -225433172 -14250049 -87155582 -1068934732 -463927018 171081163 1907781738 -1267532845 1177626474 -1152234805 -207755636 -403298251 -2062592909 -1837143369 -300850505 -1900993078 -1205498200
REM
CELL 1.54180   50.00000   50.00000   50.00000   90.00000   90.00000   90.00000
LATT -1
SFAC C  
C      1  0.4341080000000  0.4390340000000  0.4741640000000 1.0
C      1  0.5256060000000  0.4643020000000  0.5156230000000 1.0
C      1  0.5467960000000  0.5144310000000  0.4407770000000 1.0
C      1  0.4851450000000  0.5234590000000  0.3876080000000 1.0
C      1  0.5047030000000  0.6157040000000  0.4985740000000 1.0
C      1  0.4299030000000  0.4133230000000  0.4684790000000 1.0
C      1  0.4671900000000  0.5416950000000  0.4031460000000 1.0
C      1  0.4441500000000  0.5363950000000  0.5619400000000 1.0
C      1  0.4429850000000  0.5226580000000  0.4708660000000 1.0
C      1  0.5586600000000  0.4917920000000  0.5784050000000 1.0
C      1  0.4705500000000  0.5752470000000  0.5453920000000 1.0
C      1  0.4912550000000  0.5046520000000  0.5545620000000 1.0
C      1  0.5221400000000  0.4396080000000  0.5775160000000 1.0
C      1  0.5685830000000  0.4294220000000  0.5066150000000 1.0
C      1  0.5795700000000  0.4512700000000  0.5518320000000 1.0
C      1  0.4378210000000  0.4945340000000  0.4282740000000 1.0
C      1  0.4993240000000  0.5322810000000  0.4441010000000 1.0
C      1  0.5253230000000  0.5298920000000  0.4268370000000 1.0
C      1  0.4980260000000  0.4778690000000  0.5409430000000 1.0
C      1  0.5395950000000  0.5203270000000  0.5215100000000 1.0
C      1  0.5386110000000  0.4963410000000  0.5441490000000 1.0
C      1  0.4992550000000  0.5771810000000  0.4117540000000 1.0
C      1  0.4525940000000  0.5760090000000  0.4815040000000 1.0
C      1  0.5441620000000  0.4998490000000  0.4943260000000 1.0
C      1  0.4904610000000  0.5306580000000  0.5324540000000 1.0
C      1  0.4394150000000  0.4425190000000  0.5473710000000 1.0
C      1  0.4864560000000  0.4551970000000  0.4840200000000 1.0
C      1  0.5900180000000  0.4545460000000  0.4978740000000 1.0
C      1  0.4312160000000  0.5038700000000  0.4924270000000 1.0
C      1  0.5702830000000  0.5703210000000  0.5066060000000 1.0
C      1  0.5061850000000  0.5474810000000  0.3966520000000 1.0
C      1  0.5332810000000  0.5305720000000  0.4838910000000 1.0
C      1  0.5526170000000  0.4676380000000  0.5021860000000 1.0
C      1  0.5085180000000  0.4209480000000  0.4419350000000 1.0
C      1  0.5685720000000  0.4937960000000  0.5277190000000 1.0
C      1  0.4733010000000  0.4382290000000  0.5908260000000 1.0
C      1  0.4254510000000  0.4683580000000  0.5629600000000 1.0
C      1  0.5361920000000  0.5452850000000  0.5609500000000 1.0
C      1  0.4105890000000  0.5436990000000  0.5170350000000 1.0
C      1  0.5680370000000  0.5565750000000  0.4327710000000 1.0
C      1  0.4811670000000  0.4108610000000  0.5513380000000 1.0
C      1  0.4095550000000  0.4941940000000  0.4319430000000 1.0
C      1  0.5015830000000  0.5279090000000  0.5949360000000 1.0
C      1  0.4449460000000  0.4817440000000  0.5855670000000 1.0
C      1  0.5562670000000  0.4398300000000  0.4533730000000 1.0
C      1  0.5592830000000  0.4582910000000  0.5722590000000 1.0
C      1  0.4076250000000  0.4847530000000  0.4803840000000 1.0
C      1  0.5500040000000  0.5132520000000  0.5999680000000 1.0
C      1  0.5505870000000  0.5793700000000  0.5273060000000 1.0
C      1  0.4573000000000  0.5631730000000  0.4501650000000 1.0
C      1  0.4493180000000  0.4703360000000  0.4181160000000 1.0
C      1  0.5334490000000  0.5880770000000  0.4596750000000 1.0
C      1  0.4514590000000  0.5145180000000  0.4440380000000 1.0
C      1  0.5193870000000  0.5698330000000  0.5499760000000 1.0
C      1  0.4897120000000  0.3888360000000  0.5363320000000 1.0
C      1  0.5552800000000  0.5471340000000  0.5353370000000 1.0
C      1  0.5608840000000  0.5259120000000  0.4690090000000 1.0
C      1  0.4059910000000  0.5521760000000  0.4874620000000 1.0
C      1  0.4888180000000  0.5030590000000  0.5944370000000 1.0
C      1  0.5888930000000  0.5311170000000  0.5497570000000 1.0
C      1  0.4888900000000  0.4754730000000  0.4193530000000 1.0
C      1  0.5008940000000  0.4853110000000  0.4820130000000 1.0
C      1  0.4092000000000  0.5637790000000  0.5444790000000 1.0
C      1  0.4690610000000  0.5372760000000  0.4333310000000 1.0
C      1  0.4709080000000  0.4744900000000  0.5060580000000 1.0
C      1  0.5335150000000  0.3963000000000  0.4835710000000 1.0
C      1  0.5537820000000  0.4760150000000  0.4367930000000 1.0
C      1  0.5852720000000  0.5042960000000  0.4697360000000 1.0
C      1  0.5310170000000  0.5594970000000  0.4990830000000 1.0
C      1  0.4720740000000  0.5682980000000  0.3967970000000 1.0
C      1  0.4947990000000  0.4470330000000  0.4360780000000 1.0
C      1  0.5140810000000  0.5140960000000  0.4014580000000 1.0
C      1  0.4335040000000  0.5207290000000  0.5188540000000 1.0
C      1  0.4101470000000  0.4543570000000  0.4921970000000 1.0
C      1  0.5547270000000  0.4416640000000  0.4815010000000 1.0
C      1  0.4648180000000  0.5007460000000  0.5725380000000 1.0
C      1  0.5093670000000  0.4906610000000  0.5111470000000 1.0
C      1  0.5370800000000  0.4911440000000  0.4621800000000 1.0
C      1  0.5209750000000  0.5893790000000  0.5236940000000 1.0
C      1  0.4788030000000  0.5179720000000  0.4887310000000 1.0
C      1  0.5195940000000  0.5194160000000  0.5603000000000 1.0
C      1  0.5579290000000  0.5726320000000  0.4779650000000 1.0
C      1  0.5087900000000  0.4396160000000  0.5044130000000 1.0
C      1  0.4686130000000  0.5504060000000  0.5594990000000 1.0
C      1  0.5035390000000  0.5388770000000  0.4770680000000 1.0
C      1  0.4222690000000  0.5208690000000  0.5572390000000 1.0
C      1  0.5284930000000  0.4656390000000  0.5478820000000 1.0
C      1  0.5706360000000  0.5530210000000  0.4598790000000 1.0
C      1  0.5779830000000  0.5077790000000  0.4382250000000 1.0
C      1  0.5165330000000  0.5452120000000  0.5263290000000 1.0
C      1  0.4660240000000  0.4308820000000  0.5344440000000 1.0
C      1  0.4614550000000  0.4488360000000  0.4302950000000 1.0
C      1  0.5183210000000  0.3963900000000  0.4612830000000 1.0
C      1  0.4935200000000  0.5883200000000  0.5524760000000 1.0
C      1  0.4913220000000  0.5680370000000  0.4876250000000 1.0
C      1  0.4376770000000  0.5591420000000  0.5297490000000 1.0
C      1  0.4620410000000  0.5392560000000  0.5202210000000 1.0
C      1  0.5868250000000  0.5494060000000  0.5246770000000 1.0
C      1  0.5759630000000  0.4627760000000  0.5268570000000 1.0
C      1  0.4343820000000  0.4433040000000  0.5137130000000 1.0
C      1  0.5280460000000  0.5282350000000  0.6047810000000 1.0
C      1  0.5486050000000  0.4212330000000  0.5261050000000 1.0
C      1  0.5240240000000  0.4128360000000  0.5092160000000 1.0
C      1  0.4317560000000  0.5523460000000  0.4703630000000 1.0
C      1  0.4483970000000  0.4490970000000  0.5796120000000 1.0
C      1  0.5262710000000  0.5796440000000  0.4287900000000 1.0
C      1  0.4222470000000  0.4909840000000  0.5430910000000 1.0
C      1  0.3971880000000  0.4902410000000  0.4559460000000 1.0
C      1  0.5340570000000  0.4398100000000  0.4343960000000 1.0
C      1  0.5325910000000  0.4710370000000  0.5872940000000 1.0
C      1  0.4871470000000  0.5068610000000  0.4603560000000 1.0
C      1  0.4930520000000  0.4221290000000  0.5738080000000 1.0
C      1  0.5253120000000  0.5918530000000  0.4904620000000 1.0
C      1  0.5773160000000  0.4600620000000  0.4459260000000 1.0
C      1  0.4429450000000  0.4740300000000  0.5015470000000 1.0
C      1  0.4582060000000  0.4210490000000  0.5038310000000 1.0
C      1  0.4881620000000  0.4054080000000  0.4645540000000 1.0
C      1  0.4778410000000  0.4050480000000  0.4911610000000 1.0
C      1  0.4788580000000  0.5031950000000  0.5166390000000 1.0
C      1  0.4853420000000  0.4524850000000  0.5238800000000 1.0
C      1  0.5046490000000  0.4814900000000  0.6003000000000 1.0
C      1  0.4906050000000  0.5892220000000  0.5099070000000 1.0
C      1  0.5024920000000  0.5777660000000  0.4608240000000 1.0
C      1  0.4766080000000  0.4790330000000  0.4509580000000 1.0
C      1  0.4540350000000  0.5038830000000  0.5402680000000 1.0
C      1  0.4602120000000  0.4518580000000  0.4635630000000 1.0
C      1  0.5135840000000  0.4841570000000  0.4077960000000 1.0
C      1  0.4138350000000  0.4771420000000  0.5176950000000 1.0
C      1  0.5105840000000  0.4723760000000  0.4526170000000 1.0
C      1  0.5861570000000  0.4889660000000  0.4990120000000 1.0
C      1  0.5340220000000  0.4657770000000  0.4167970000000 1.0
C      1  0.4663120000000  0.5464760000000  0.4894480000000 1.0
C      1  0.4978440000000  0.3951440000000  0.5101600000000 1.0
C      1  0.5750990000000  0.5077010000000  0.5550970000000 1.0
C      1  0.4858550000000  0.5739740000000  0.4404570000000 1.0
C      1  0.4940460000000  0.5420670000000  0.5703310000000 1.0
C      1  0.4984560000000  0.4532430000000  0.5975630000000 1.0
C      1  0.4594120000000  0.5787270000000  0.5138280000000 1.0
C      1  0.5427220000000  0.4358970000000  0.5520360000000 1.0
C      1  0.5915170000000  0.4716640000000  0.4695460000000 1.0
C      1  0.5416140000000  0.5561810000000  0.4223540000000 1.0
END
