TITL C-2778436-5916-1399 -0.112422753268683 125000 -329.093998098125 0 0 59 (C1) n - 1
REM
REM in /home/nfs/bkarasulu/CARBON/AIRSS/Generating-Clusters/REBO/Only-C1/SD-CG/HFTN-CG
REM
REM
REM
REM
REM
REM ./C.cell (11c1c37f851c82e70ff6c80c92926a4b)
REM
REM compiler GCC version 9.2.1 20190827 (Red Hat 9.2.1-1)
REM options -cpp -mtune=generic -march=x86-64 -g -O0 -fpre-include=/usr/include/finclude/math-vector-fortran.h
REM seed -550390262 -888664384 1419394585 -957673021 1825202279 854898689 -348497151 -1792342921 1265415211 -1661798006 95732549 -651673352 1846096542 1013907121 -881989071 509771257 2083792116 1666971934 1246177168 1600554961 1815223688 -1874797961 1782356312 -735642099 1300731813 1408748011 -1980115065 -2144632947 -16051654 -1417830714 1889333227 1041231436 -567903474
REM
CELL 1.54180   50.00000   50.00000   50.00000   90.00000   90.00000   90.00000
LATT -1
SFAC C  
C      1  0.5166420000000  0.4447670000000  0.4558510000000 1.0
C      1  0.5368720000000  0.5056570000000  0.4438100000000 1.0
C      1  0.5622010000000  0.4676920000000  0.4448990000000 1.0
C      1  0.4548380000000  0.4378410000000  0.5114430000000 1.0
C      1  0.4668440000000  0.4730600000000  0.5720820000000 1.0
C      1  0.4745880000000  0.4913210000000  0.5125880000000 1.0
C      1  0.5261000000000  0.5757800000000  0.4642520000000 1.0
C      1  0.5806690000000  0.5203880000000  0.5276260000000 1.0
C      1  0.5477550000000  0.5762320000000  0.4838410000000 1.0
C      1  0.5304760000000  0.5305910000000  0.4882080000000 1.0
C      1  0.5201680000000  0.5472210000000  0.5140170000000 1.0
C      1  0.4473900000000  0.4418700000000  0.5346550000000 1.0
C      1  0.5762980000000  0.5029080000000  0.4792910000000 1.0
C      1  0.5196960000000  0.5009220000000  0.5276060000000 1.0
C      1  0.5306630000000  0.5046500000000  0.5537760000000 1.0
C      1  0.4936620000000  0.4212780000000  0.4544800000000 1.0
C      1  0.5546760000000  0.5519170000000  0.4946880000000 1.0
C      1  0.4679350000000  0.4277280000000  0.4591320000000 1.0
C      1  0.4698140000000  0.5585200000000  0.5106030000000 1.0
C      1  0.5186450000000  0.4159930000000  0.4731070000000 1.0
C      1  0.4667750000000  0.5304200000000  0.4692850000000 1.0
C      1  0.4451370000000  0.4686730000000  0.5490920000000 1.0
C      1  0.5387140000000  0.4477320000000  0.4366580000000 1.0
C      1  0.5056350000000  0.5557160000000  0.5498110000000 1.0
C      1  0.4899200000000  0.5415750000000  0.5247740000000 1.0
C      1  0.4629350000000  0.4487130000000  0.4841860000000 1.0
C      1  0.5362000000000  0.5033340000000  0.5030050000000 1.0
C      1  0.4404970000000  0.4429470000000  0.4590910000000 1.0
C      1  0.5445640000000  0.3857950000000  0.5082720000000 1.0
C      1  0.5297880000000  0.5541770000000  0.4456210000000 1.0
C      1  0.4311680000000  0.4901180000000  0.5715370000000 1.0
C      1  0.4273770000000  0.5318780000000  0.5095160000000 1.0
C      1  0.5198570000000  0.5385290000000  0.5713010000000 1.0
C      1  0.5317730000000  0.4006970000000  0.4909190000000 1.0
C      1  0.5649700000000  0.4498730000000  0.4178420000000 1.0
C      1  0.4987960000000  0.5768880000000  0.4725210000000 1.0
C      1  0.4849640000000  0.4972360000000  0.5830450000000 1.0
C      1  0.5655930000000  0.5210820000000  0.5041430000000 1.0
C      1  0.5493160000000  0.5307680000000  0.5565990000000 1.0
C      1  0.4534680000000  0.4953010000000  0.5930650000000 1.0
C      1  0.4593200000000  0.4993400000000  0.4767950000000 1.0
C      1  0.4996710000000  0.4911090000000  0.4444760000000 1.0
C      1  0.4481100000000  0.5410710000000  0.4949850000000 1.0
C      1  0.5079400000000  0.4720880000000  0.4680450000000 1.0
C      1  0.4613040000000  0.5816220000000  0.5235360000000 1.0
C      1  0.5085090000000  0.5092780000000  0.5763310000000 1.0
C      1  0.4259030000000  0.5129810000000  0.5300350000000 1.0
C      1  0.5593760000000  0.4829030000000  0.4677890000000 1.0
C      1  0.5071700000000  0.4837210000000  0.4188770000000 1.0
C      1  0.4858500000000  0.5133610000000  0.4504850000000 1.0
C      1  0.4374970000000  0.4962630000000  0.4944280000000 1.0
C      1  0.4927650000000  0.5100030000000  0.5236580000000 1.0
C      1  0.5343040000000  0.4823360000000  0.4815330000000 1.0
C      1  0.4790100000000  0.5598630000000  0.4795450000000 1.0
C      1  0.4172710000000  0.5107760000000  0.5572140000000 1.0
C      1  0.4798270000000  0.4744910000000  0.4839810000000 1.0
C      1  0.5300140000000  0.5284380000000  0.4577170000000 1.0
C      1  0.4455200000000  0.4886380000000  0.5254340000000 1.0
C      1  0.5372580000000  0.5539290000000  0.5388950000000 1.0
END
