TITL C-2778430-5657-1368 0.0510299189534534 125000 -401.086211040216 0 0 69 (C1) n - 1
REM
REM in /home/nfs/bkarasulu/CARBON/AIRSS/Generating-Clusters/REBO/Only-C1/SD-CG/HFTN-CG
REM
REM
REM
REM
REM
REM ./C.cell (11c1c37f851c82e70ff6c80c92926a4b)
REM
REM compiler GCC version 9.2.1 20190827 (Red Hat 9.2.1-1)
REM options -cpp -mtune=generic -march=x86-64 -g -O0 -fpre-include=/usr/include/finclude/math-vector-fortran.h
REM seed 1413955846 -1470116124 1131743789 -1797929051 -646940438 979008035 -437771687 -2080597318 1140759416 -1643543250 -1946294845 -827572836 -432615186 896102917 1657982367 742923146 679916573 -1477309885 171748358 -556847837 -563682520 -661855164 -1000466542 -608272353 2023820573 1812933023 924961488 -1453156310 -457001915 526618701 675981706 1533197005 -1700347510
REM
CELL 1.54180   50.00000   50.00000   50.00000   90.00000   90.00000   90.00000
LATT -1
SFAC C  
C      1  0.4688630000000  0.4667350000000  0.5460370000000 1.0
C      1  0.5125090000000  0.4722550000000  0.4518100000000 1.0
C      1  0.5213700000000  0.5157820000000  0.4935570000000 1.0
C      1  0.4967800000000  0.5619560000000  0.4640690000000 1.0
C      1  0.5028440000000  0.5071110000000  0.4682290000000 1.0
C      1  0.5273160000000  0.5550810000000  0.4604070000000 1.0
C      1  0.4905090000000  0.4567090000000  0.5215760000000 1.0
C      1  0.4432660000000  0.4516740000000  0.5049240000000 1.0
C      1  0.5404500000000  0.5401930000000  0.5326450000000 1.0
C      1  0.5353930000000  0.4992790000000  0.5446650000000 1.0
C      1  0.4493310000000  0.4747330000000  0.4383530000000 1.0
C      1  0.5532270000000  0.5228940000000  0.4271720000000 1.0
C      1  0.5058120000000  0.5696240000000  0.5174230000000 1.0
C      1  0.4280070000000  0.4815090000000  0.5078710000000 1.0
C      1  0.4896570000000  0.4908470000000  0.4950840000000 1.0
C      1  0.4753660000000  0.5090640000000  0.5179580000000 1.0
C      1  0.4923980000000  0.5321650000000  0.5833120000000 1.0
C      1  0.5515660000000  0.4955110000000  0.4233300000000 1.0
C      1  0.5194030000000  0.4650610000000  0.5616880000000 1.0
C      1  0.5027450000000  0.5399860000000  0.4904910000000 1.0
C      1  0.4954110000000  0.3916670000000  0.4738090000000 1.0
C      1  0.5373100000000  0.4671900000000  0.5340970000000 1.0
C      1  0.5523090000000  0.5221410000000  0.4862230000000 1.0
C      1  0.5312300000000  0.5349050000000  0.4405860000000 1.0
C      1  0.5189310000000  0.4334440000000  0.4874720000000 1.0
C      1  0.4745050000000  0.4603920000000  0.4944810000000 1.0
C      1  0.4471160000000  0.4968370000000  0.5315040000000 1.0
C      1  0.5326350000000  0.4782710000000  0.4329640000000 1.0
C      1  0.5956670000000  0.4656400000000  0.4918700000000 1.0
C      1  0.5161830000000  0.5366670000000  0.5515830000000 1.0
C      1  0.4892000000000  0.5028250000000  0.5799990000000 1.0
C      1  0.4713340000000  0.4967490000000  0.5555030000000 1.0
C      1  0.4753940000000  0.4380890000000  0.4688530000000 1.0
C      1  0.4632130000000  0.5111390000000  0.4555870000000 1.0
C      1  0.4569220000000  0.5344940000000  0.5225080000000 1.0
C      1  0.4311430000000  0.5377050000000  0.4798350000000 1.0
C      1  0.5092760000000  0.5158560000000  0.4422920000000 1.0
C      1  0.4830780000000  0.5678670000000  0.4946510000000 1.0
C      1  0.5202880000000  0.4575970000000  0.5110170000000 1.0
C      1  0.5136560000000  0.4980500000000  0.5185160000000 1.0
C      1  0.4791620000000  0.5494930000000  0.5629810000000 1.0
C      1  0.5865180000000  0.5328390000000  0.5493410000000 1.0
C      1  0.5358300000000  0.5102580000000  0.5743060000000 1.0
C      1  0.4397270000000  0.4635520000000  0.5347600000000 1.0
C      1  0.4664380000000  0.5129770000000  0.4235580000000 1.0
C      1  0.5203840000000  0.4636750000000  0.4774130000000 1.0
C      1  0.4981800000000  0.5135050000000  0.5426200000000 1.0
C      1  0.5823400000000  0.4848390000000  0.5054480000000 1.0
C      1  0.4256950000000  0.4880390000000  0.4778620000000 1.0
C      1  0.4990090000000  0.5625710000000  0.5440760000000 1.0
C      1  0.4746670000000  0.5367020000000  0.4712280000000 1.0
C      1  0.5409880000000  0.5501140000000  0.4848700000000 1.0
C      1  0.5720970000000  0.5132530000000  0.5034180000000 1.0
C      1  0.4554290000000  0.5497900000000  0.4964850000000 1.0
C      1  0.4807570000000  0.4831790000000  0.4458510000000 1.0
C      1  0.5235000000000  0.5362430000000  0.5834220000000 1.0
C      1  0.4553150000000  0.5429520000000  0.5485130000000 1.0
C      1  0.4333930000000  0.4662020000000  0.4604860000000 1.0
C      1  0.4957150000000  0.4503340000000  0.5539600000000 1.0
C      1  0.4808250000000  0.4505340000000  0.4418560000000 1.0
C      1  0.5642010000000  0.4879940000000  0.5328460000000 1.0
C      1  0.4353790000000  0.5128180000000  0.4690400000000 1.0
C      1  0.5658340000000  0.5225860000000  0.5335360000000 1.0
C      1  0.5150970000000  0.4886380000000  0.5774350000000 1.0
C      1  0.4974280000000  0.4188990000000  0.4770930000000 1.0
C      1  0.4936100000000  0.5123310000000  0.4186940000000 1.0
C      1  0.4847450000000  0.4383040000000  0.4189550000000 1.0
C      1  0.4442040000000  0.4436780000000  0.4749690000000 1.0
C      1  0.5319170000000  0.5580040000000  0.5110290000000 1.0
END
