TITL C-2778426-5645-521 -0.000725226561566218 125000 -556.119859323563 0 0 94 (C1) n - 1
REM
REM in /home/nfs/bkarasulu/CARBON/AIRSS/Generating-Clusters/REBO/Only-C1/SD-CG/HFTN-CG
REM
REM
REM
REM
REM
REM ./C.cell (11c1c37f851c82e70ff6c80c92926a4b)
REM
REM compiler GCC version 9.2.1 20190827 (Red Hat 9.2.1-1)
REM options -cpp -mtune=generic -march=x86-64 -g -O0 -fpre-include=/usr/include/finclude/math-vector-fortran.h
REM seed 1973349350 -1259864325 -1821555792 831121286 -14950499 -1454258564 154817290 -1329290134 2071936681 862043718 -618051518 -1260424282 -236894182 -1720311217 845398558 1233324906 1600082344 -1207281219 -2144346997 602705793 -1191431460 -1547219205 1875029015 360597109 1271710284 1114057619 -18935050 872690709 1481970942 104777198 -900696566 1070034208 -1628299153
REM
CELL 1.54180   50.00000   50.00000   50.00000   90.00000   90.00000   90.00000
LATT -1
SFAC C  
C      1  0.4531680000000  0.5516180000000  0.5281130000000 1.0
C      1  0.5161450000000  0.4806060000000  0.4570810000000 1.0
C      1  0.4910540000000  0.4082870000000  0.4969040000000 1.0
C      1  0.5046460000000  0.5469550000000  0.4890200000000 1.0
C      1  0.4946680000000  0.5198120000000  0.4617720000000 1.0
C      1  0.4475430000000  0.4686770000000  0.4842890000000 1.0
C      1  0.4924920000000  0.4416670000000  0.5879300000000 1.0
C      1  0.5050870000000  0.4889080000000  0.5843580000000 1.0
C      1  0.4257310000000  0.4864740000000  0.5537960000000 1.0
C      1  0.5148310000000  0.4852620000000  0.5052050000000 1.0
C      1  0.5399140000000  0.4379380000000  0.5043440000000 1.0
C      1  0.5448340000000  0.5668480000000  0.4709180000000 1.0
C      1  0.5167900000000  0.4851770000000  0.5370990000000 1.0
C      1  0.5747690000000  0.4618700000000  0.5338270000000 1.0
C      1  0.4781970000000  0.4295230000000  0.5683250000000 1.0
C      1  0.5246260000000  0.5097870000000  0.5792270000000 1.0
C      1  0.5152410000000  0.5575010000000  0.4284910000000 1.0
C      1  0.4708060000000  0.4860210000000  0.4361610000000 1.0
C      1  0.4869750000000  0.4906710000000  0.4618390000000 1.0
C      1  0.5265650000000  0.5949930000000  0.4923230000000 1.0
C      1  0.5456970000000  0.5634270000000  0.5284250000000 1.0
C      1  0.4743630000000  0.5538070000000  0.4504110000000 1.0
C      1  0.5159310000000  0.4500850000000  0.4656350000000 1.0
C      1  0.5004970000000  0.5376080000000  0.4149060000000 1.0
C      1  0.5611050000000  0.4427060000000  0.5561280000000 1.0
C      1  0.4549980000000  0.4882900000000  0.5634860000000 1.0
C      1  0.4888720000000  0.5389360000000  0.5155800000000 1.0
C      1  0.5377090000000  0.4516030000000  0.5703460000000 1.0
C      1  0.4716670000000  0.4291620000000  0.5414100000000 1.0
C      1  0.5183360000000  0.5140070000000  0.5320610000000 1.0
C      1  0.5135080000000  0.5720830000000  0.4739900000000 1.0
C      1  0.5706810000000  0.5077660000000  0.5650840000000 1.0
C      1  0.4773720000000  0.4926080000000  0.5791700000000 1.0
C      1  0.4673050000000  0.5360300000000  0.4243430000000 1.0
C      1  0.5707690000000  0.5105780000000  0.5368910000000 1.0
C      1  0.5638360000000  0.4855060000000  0.4922090000000 1.0
C      1  0.5227780000000  0.4848790000000  0.4252580000000 1.0
C      1  0.4361410000000  0.5335070000000  0.4286000000000 1.0
C      1  0.5654660000000  0.5357950000000  0.5247510000000 1.0
C      1  0.4865830000000  0.4578160000000  0.5029810000000 1.0
C      1  0.5602640000000  0.4350270000000  0.5237400000000 1.0
C      1  0.5184360000000  0.5184980000000  0.4983430000000 1.0
C      1  0.5681190000000  0.4933590000000  0.4535260000000 1.0
C      1  0.4187070000000  0.5211720000000  0.4452500000000 1.0
C      1  0.4999800000000  0.5865520000000  0.5293700000000 1.0
C      1  0.4152650000000  0.5003020000000  0.4633900000000 1.0
C      1  0.4381810000000  0.5082450000000  0.5136490000000 1.0
C      1  0.5521940000000  0.5055840000000  0.5852260000000 1.0
C      1  0.5720410000000  0.4866140000000  0.5211480000000 1.0
C      1  0.5180320000000  0.4577160000000  0.5474740000000 1.0
C      1  0.5267420000000  0.5891320000000  0.5191170000000 1.0
C      1  0.5214880000000  0.5275750000000  0.5561870000000 1.0
C      1  0.5667200000000  0.5153320000000  0.4778470000000 1.0
C      1  0.5230220000000  0.4546050000000  0.4136250000000 1.0
C      1  0.4589240000000  0.4875470000000  0.5315750000000 1.0
C      1  0.5244660000000  0.5554260000000  0.5530200000000 1.0
C      1  0.5069430000000  0.5071610000000  0.4121980000000 1.0
C      1  0.4745460000000  0.5516930000000  0.5505800000000 1.0
C      1  0.5640830000000  0.4623630000000  0.4672180000000 1.0
C      1  0.5551890000000  0.4894430000000  0.4233310000000 1.0
C      1  0.5362390000000  0.4992640000000  0.4769090000000 1.0
C      1  0.4167330000000  0.4637030000000  0.5368240000000 1.0
C      1  0.5569220000000  0.5618960000000  0.4960240000000 1.0
C      1  0.5486530000000  0.5176870000000  0.4395570000000 1.0
C      1  0.5416940000000  0.4431430000000  0.4768490000000 1.0
C      1  0.4654950000000  0.5813800000000  0.4915730000000 1.0
C      1  0.5132650000000  0.4610900000000  0.5869040000000 1.0
C      1  0.4308360000000  0.4751220000000  0.4582650000000 1.0
C      1  0.4724500000000  0.5388750000000  0.4792790000000 1.0
C      1  0.4754640000000  0.4844160000000  0.4890230000000 1.0
C      1  0.5419070000000  0.5491590000000  0.4451440000000 1.0
C      1  0.4044920000000  0.5330840000000  0.5462170000000 1.0
C      1  0.4987800000000  0.5688890000000  0.5523220000000 1.0
C      1  0.4827100000000  0.5720250000000  0.5108300000000 1.0
C      1  0.4034510000000  0.4733490000000  0.5128220000000 1.0
C      1  0.4559850000000  0.4394800000000  0.4853490000000 1.0
C      1  0.4201810000000  0.5116450000000  0.5396590000000 1.0
C      1  0.4983960000000  0.5697280000000  0.4480550000000 1.0
C      1  0.5465360000000  0.4415930000000  0.4212770000000 1.0
C      1  0.4774490000000  0.5056140000000  0.4173900000000 1.0
C      1  0.4780270000000  0.5068220000000  0.5124210000000 1.0
C      1  0.4806510000000  0.5214640000000  0.5432010000000 1.0
C      1  0.5159250000000  0.4524040000000  0.5148430000000 1.0
C      1  0.4507720000000  0.5350700000000  0.5050620000000 1.0
C      1  0.4360200000000  0.4436650000000  0.5307790000000 1.0
C      1  0.4716640000000  0.4081490000000  0.5187890000000 1.0
C      1  0.5640620000000  0.4592600000000  0.4340460000000 1.0
C      1  0.4660900000000  0.4572470000000  0.5261690000000 1.0
C      1  0.4230180000000  0.4896030000000  0.4943530000000 1.0
C      1  0.4892580000000  0.4357700000000  0.4787370000000 1.0
C      1  0.4481250000000  0.4257000000000  0.5093860000000 1.0
C      1  0.4463960000000  0.4727160000000  0.4352990000000 1.0
C      1  0.5182090000000  0.5256920000000  0.4524780000000 1.0
C      1  0.5731120000000  0.5371560000000  0.4956600000000 1.0
END
