TITL C-2778436-5916-124 0.00481824047373613 125000 -1032.6745929261 0 0 176 (C1) n - 1
REM
REM in /home/nfs/bkarasulu/CARBON/AIRSS/Generating-Clusters/REBO/Only-C1/SD-CG/HFTN-CG
REM
REM
REM
REM
REM
REM ./C.cell (11c1c37f851c82e70ff6c80c92926a4b)
REM
REM compiler GCC version 9.2.1 20190827 (Red Hat 9.2.1-1)
REM options -cpp -mtune=generic -march=x86-64 -g -O0 -fpre-include=/usr/include/finclude/math-vector-fortran.h
REM seed -1244414574 277139544 -48126247 -474484120 -735702707 1493642225 -540117152 -92060855 1671991290 1853300826 1144986469 -1282227832 264143942 -1516370658 -1221812926 -1138069486 -892146094 1788160014 -473941284 931790648 1993877248 822515619 -1685907392 961896081 596725948 344375255 -2110636184 328491664 -1065751581 -450625584 -1027326601 -731328214 154550046
REM
CELL 1.54180   50.00000   50.00000   50.00000   90.00000   90.00000   90.00000
LATT -1
SFAC C  
C      1  0.4888570000000  0.5071490000000  0.4895570000000 1.0
C      1  0.4313100000000  0.4947850000000  0.4369230000000 1.0
C      1  0.4654030000000  0.5610880000000  0.5055650000000 1.0
C      1  0.4193590000000  0.4316960000000  0.5023590000000 1.0
C      1  0.5606340000000  0.4238860000000  0.4753110000000 1.0
C      1  0.5456910000000  0.4746300000000  0.4703350000000 1.0
C      1  0.5892380000000  0.5589820000000  0.4883400000000 1.0
C      1  0.4723030000000  0.4711710000000  0.4916010000000 1.0
C      1  0.4122290000000  0.4704650000000  0.5884990000000 1.0
C      1  0.4984770000000  0.4714780000000  0.4743800000000 1.0
C      1  0.3777860000000  0.5363330000000  0.5067750000000 1.0
C      1  0.5334930000000  0.4335630000000  0.5693480000000 1.0
C      1  0.5964210000000  0.4689990000000  0.4770190000000 1.0
C      1  0.5733550000000  0.4591760000000  0.5459190000000 1.0
C      1  0.4605880000000  0.4822120000000  0.5391510000000 1.0
C      1  0.4275360000000  0.5227520000000  0.4906640000000 1.0
C      1  0.5506170000000  0.5125910000000  0.4913430000000 1.0
C      1  0.4139980000000  0.5501470000000  0.4489400000000 1.0
C      1  0.5178980000000  0.4778410000000  0.4248150000000 1.0
C      1  0.5624340000000  0.4309790000000  0.5294850000000 1.0
C      1  0.4650290000000  0.4102040000000  0.5280090000000 1.0
C      1  0.5377580000000  0.4255400000000  0.4513720000000 1.0
C      1  0.5778150000000  0.5269730000000  0.4930360000000 1.0
C      1  0.5495630000000  0.5024140000000  0.4256830000000 1.0
C      1  0.4638570000000  0.4028230000000  0.4721440000000 1.0
C      1  0.4342730000000  0.4749440000000  0.5187240000000 1.0
C      1  0.4524480000000  0.5902640000000  0.4993550000000 1.0
C      1  0.4954670000000  0.5187210000000  0.4401460000000 1.0
C      1  0.4779590000000  0.5508860000000  0.4787150000000 1.0
C      1  0.4200220000000  0.4621610000000  0.4387340000000 1.0
C      1  0.4962940000000  0.3981600000000  0.5205740000000 1.0
C      1  0.6048970000000  0.4854330000000  0.5041270000000 1.0
C      1  0.5194260000000  0.5488670000000  0.4174390000000 1.0
C      1  0.4359330000000  0.4529510000000  0.5931470000000 1.0
C      1  0.5585160000000  0.4838090000000  0.5872230000000 1.0
C      1  0.5913980000000  0.5452010000000  0.5184050000000 1.0
C      1  0.4175550000000  0.4466710000000  0.4751820000000 1.0
C      1  0.5126160000000  0.4571430000000  0.5588460000000 1.0
C      1  0.5579920000000  0.5410020000000  0.5394510000000 1.0
C      1  0.5105790000000  0.5288050000000  0.5204060000000 1.0
C      1  0.5092900000000  0.4174140000000  0.4483410000000 1.0
C      1  0.5727000000000  0.5732350000000  0.5217470000000 1.0
C      1  0.4680760000000  0.4620310000000  0.4254090000000 1.0
C      1  0.5336340000000  0.5673030000000  0.5570540000000 1.0
C      1  0.4882690000000  0.4257070000000  0.5477920000000 1.0
C      1  0.4201720000000  0.4500600000000  0.5240690000000 1.0
C      1  0.4851730000000  0.4527750000000  0.5924900000000 1.0
C      1  0.4408770000000  0.4711550000000  0.4155900000000 1.0
C      1  0.4439630000000  0.5154130000000  0.5260190000000 1.0
C      1  0.5112320000000  0.4476670000000  0.4928860000000 1.0
C      1  0.4037850000000  0.5389270000000  0.5088120000000 1.0
C      1  0.4663340000000  0.4965410000000  0.5099420000000 1.0
C      1  0.5486730000000  0.5322930000000  0.4521070000000 1.0
C      1  0.4674760000000  0.4130150000000  0.4206430000000 1.0
C      1  0.5715840000000  0.4608580000000  0.4088830000000 1.0
C      1  0.5752490000000  0.4957080000000  0.5176900000000 1.0
C      1  0.5403560000000  0.4167690000000  0.5466200000000 1.0
C      1  0.4784620000000  0.5031250000000  0.4609930000000 1.0
C      1  0.4134050000000  0.5221100000000  0.5664280000000 1.0
C      1  0.5831480000000  0.4596190000000  0.4409140000000 1.0
C      1  0.5904310000000  0.5416900000000  0.4409800000000 1.0
C      1  0.4616500000000  0.5089980000000  0.3986580000000 1.0
C      1  0.4887210000000  0.5348680000000  0.5755030000000 1.0
C      1  0.4284200000000  0.4760630000000  0.5617000000000 1.0
C      1  0.5376290000000  0.4467170000000  0.4769110000000 1.0
C      1  0.5750070000000  0.5645930000000  0.4330230000000 1.0
C      1  0.4860600000000  0.5192180000000  0.4119940000000 1.0
C      1  0.4215990000000  0.5675830000000  0.4720740000000 1.0
C      1  0.5137180000000  0.5052640000000  0.6039940000000 1.0
C      1  0.5081380000000  0.5013090000000  0.3840920000000 1.0
C      1  0.4840550000000  0.4008850000000  0.4445530000000 1.0
C      1  0.5265740000000  0.4846540000000  0.3983070000000 1.0
C      1  0.4357380000000  0.5204920000000  0.4161440000000 1.0
C      1  0.5542540000000  0.4587970000000  0.5110620000000 1.0
C      1  0.4324530000000  0.4919770000000  0.4893460000000 1.0
C      1  0.4506930000000  0.4396610000000  0.4798710000000 1.0
C      1  0.5427240000000  0.5406430000000  0.5761600000000 1.0
C      1  0.4619180000000  0.5120180000000  0.5534550000000 1.0
C      1  0.5216600000000  0.4938370000000  0.4711490000000 1.0
C      1  0.5102580000000  0.5563740000000  0.4765600000000 1.0
C      1  0.4951010000000  0.5329710000000  0.6071010000000 1.0
C      1  0.3940060000000  0.5021590000000  0.4598580000000 1.0
C      1  0.4491330000000  0.4853780000000  0.6122210000000 1.0
C      1  0.4926550000000  0.4783900000000  0.4414660000000 1.0
C      1  0.4121390000000  0.4780340000000  0.4677700000000 1.0
C      1  0.4701270000000  0.4791550000000  0.5953630000000 1.0
C      1  0.5107990000000  0.4722350000000  0.5958220000000 1.0
C      1  0.5169890000000  0.5924840000000  0.5429130000000 1.0
C      1  0.5190810000000  0.5191260000000  0.4929540000000 1.0
C      1  0.4487850000000  0.4238780000000  0.5527820000000 1.0
C      1  0.6040420000000  0.5400380000000  0.4665440000000 1.0
C      1  0.4385860000000  0.5465880000000  0.4303020000000 1.0
C      1  0.5478470000000  0.5565240000000  0.4203160000000 1.0
C      1  0.4640560000000  0.4550500000000  0.4563660000000 1.0
C      1  0.5367850000000  0.4868630000000  0.5085080000000 1.0
C      1  0.4277430000000  0.4936160000000  0.3971970000000 1.0
C      1  0.4224980000000  0.4357280000000  0.5483690000000 1.0
C      1  0.5393500000000  0.5653070000000  0.4508560000000 1.0
C      1  0.5663060000000  0.5714990000000  0.5536700000000 1.0
C      1  0.4807090000000  0.4644490000000  0.5545030000000 1.0
C      1  0.4446990000000  0.5439780000000  0.4736890000000 1.0
C      1  0.4811490000000  0.4895220000000  0.3843750000000 1.0
C      1  0.6016270000000  0.5083980000000  0.4790300000000 1.0
C      1  0.5732760000000  0.5862850000000  0.4525380000000 1.0
C      1  0.5194820000000  0.3987590000000  0.5360890000000 1.0
C      1  0.5390630000000  0.4592760000000  0.5884230000000 1.0
C      1  0.4679980000000  0.5899690000000  0.4492450000000 1.0
C      1  0.5253880000000  0.4178940000000  0.5015510000000 1.0
C      1  0.4867890000000  0.4306210000000  0.5746700000000 1.0
C      1  0.5224590000000  0.5901880000000  0.4510320000000 1.0
C      1  0.5245520000000  0.5112430000000  0.4456060000000 1.0
C      1  0.5816010000000  0.4810360000000  0.5651200000000 1.0
C      1  0.4276440000000  0.5897530000000  0.4879370000000 1.0
C      1  0.4261910000000  0.5143900000000  0.5936200000000 1.0
C      1  0.5800610000000  0.4300610000000  0.5002330000000 1.0
C      1  0.5569290000000  0.4836110000000  0.3992110000000 1.0
C      1  0.5008890000000  0.5779550000000  0.4982930000000 1.0
C      1  0.4470970000000  0.4121960000000  0.5005880000000 1.0
C      1  0.5111140000000  0.5031390000000  0.5403690000000 1.0
C      1  0.4427880000000  0.5433760000000  0.5135860000000 1.0
C      1  0.5002800000000  0.5503910000000  0.4456400000000 1.0
C      1  0.4886860000000  0.5252940000000  0.5446150000000 1.0
C      1  0.4467730000000  0.4133940000000  0.4446900000000 1.0
C      1  0.3972130000000  0.5279430000000  0.4527280000000 1.0
C      1  0.4510600000000  0.4862330000000  0.4614600000000 1.0
C      1  0.4897640000000  0.5928070000000  0.5517840000000 1.0
C      1  0.5051030000000  0.4871580000000  0.5122670000000 1.0
C      1  0.4747280000000  0.4373720000000  0.4071110000000 1.0
C      1  0.4720140000000  0.4428960000000  0.5061650000000 1.0
C      1  0.4800130000000  0.5510000000000  0.6208530000000 1.0
C      1  0.4860980000000  0.4159050000000  0.4946260000000 1.0
C      1  0.4781130000000  0.5928050000000  0.4818900000000 1.0
C      1  0.4540880000000  0.5551820000000  0.5776400000000 1.0
C      1  0.5385710000000  0.3969520000000  0.4950000000000 1.0
C      1  0.4784950000000  0.4607590000000  0.3869230000000 1.0
C      1  0.4877560000000  0.4340710000000  0.4659300000000 1.0
C      1  0.4592640000000  0.5956660000000  0.5510420000000 1.0
C      1  0.5517770000000  0.4918350000000  0.5379950000000 1.0
C      1  0.5714160000000  0.5821740000000  0.4809100000000 1.0
C      1  0.5881980000000  0.4581640000000  0.5156860000000 1.0
C      1  0.5491440000000  0.5514920000000  0.5086700000000 1.0
C      1  0.5764570000000  0.5431480000000  0.5686440000000 1.0
C      1  0.4509690000000  0.5233390000000  0.5792700000000 1.0
C      1  0.5511120000000  0.5908880000000  0.5030810000000 1.0
C      1  0.4977140000000  0.5980600000000  0.4555050000000 1.0
C      1  0.5885620000000  0.4397970000000  0.4682550000000 1.0
C      1  0.4788180000000  0.5615630000000  0.5579370000000 1.0
C      1  0.4666830000000  0.5451530000000  0.4478890000000 1.0
C      1  0.5243190000000  0.5932750000000  0.5137610000000 1.0
C      1  0.4260860000000  0.4317330000000  0.4472940000000 1.0
C      1  0.5932530000000  0.5171750000000  0.5327770000000 1.0
C      1  0.4538740000000  0.4532140000000  0.5656770000000 1.0
C      1  0.5973860000000  0.5020090000000  0.5561960000000 1.0
C      1  0.4867810000000  0.5018470000000  0.5841260000000 1.0
C      1  0.5902930000000  0.4911010000000  0.4519730000000 1.0
C      1  0.4601710000000  0.5645770000000  0.6069810000000 1.0
C      1  0.4894410000000  0.5621440000000  0.5264180000000 1.0
C      1  0.4237950000000  0.5013240000000  0.5484640000000 1.0
C      1  0.4243420000000  0.5508160000000  0.5615270000000 1.0
C      1  0.4374680000000  0.5802210000000  0.5499370000000 1.0
C      1  0.5452140000000  0.4721980000000  0.4397580000000 1.0
C      1  0.5413610000000  0.5498180000000  0.4804490000000 1.0
C      1  0.5393300000000  0.4613260000000  0.5415130000000 1.0
C      1  0.5405700000000  0.5119990000000  0.5945420000000 1.0
C      1  0.5104500000000  0.4887730000000  0.5654450000000 1.0
C      1  0.4512420000000  0.5781620000000  0.4320000000000 1.0
C      1  0.5521100000000  0.5140600000000  0.5563510000000 1.0
C      1  0.4207930000000  0.5588480000000  0.5298000000000 1.0
C      1  0.4920310000000  0.4620900000000  0.5248710000000 1.0
C      1  0.5749030000000  0.5149260000000  0.4387950000000 1.0
C      1  0.5722700000000  0.5150340000000  0.5842800000000 1.0
C      1  0.5228790000000  0.5560500000000  0.5281490000000 1.0
C      1  0.5094180000000  0.4356160000000  0.5246470000000 1.0
C      1  0.5549180000000  0.4423570000000  0.4314950000000 1.0
C      1  0.5696300000000  0.4854130000000  0.4857350000000 1.0
C      1  0.5086810000000  0.5310660000000  0.3957320000000 1.0
END
