TITL C-2778433-5640-1043 0.00967585166960019 125000 -388.298914616192 0 0 70 (C1) n - 1
REM
REM in /home/nfs/bkarasulu/CARBON/AIRSS/Generating-Clusters/REBO/Only-C1/SD-CG/HFTN-CG
REM
REM
REM
REM
REM
REM ./C.cell (11c1c37f851c82e70ff6c80c92926a4b)
REM
REM compiler GCC version 9.2.1 20190827 (Red Hat 9.2.1-1)
REM options -cpp -mtune=generic -march=x86-64 -g -O0 -fpre-include=/usr/include/finclude/math-vector-fortran.h
REM seed 211031367 -991143684 199189909 2049732497 -1193117953 -470207040 -355518921 -325452703 1212191249 1326890271 -744149780 -1001297414 -1220010153 1721585943 -449773998 -1366576664 -34350722 -392556380 1303858440 774484977 1242057302 -812213135 -1558477819 1274634756 -1082913792 1605264115 559576107 1856584189 1917396263 1283633124 170669654 -1308939500 2098719212
REM
CELL 1.54180   50.00000   50.00000   50.00000   90.00000   90.00000   90.00000
LATT -1
SFAC C  
C      1  0.4503050000000  0.4585330000000  0.5388040000000 1.0
C      1  0.4624730000000  0.4366690000000  0.4882010000000 1.0
C      1  0.5014920000000  0.4931960000000  0.4932720000000 1.0
C      1  0.4810560000000  0.5203760000000  0.4971560000000 1.0
C      1  0.5697650000000  0.5048220000000  0.4930690000000 1.0
C      1  0.5106140000000  0.5597560000000  0.4963190000000 1.0
C      1  0.5460030000000  0.4774530000000  0.5292510000000 1.0
C      1  0.5065930000000  0.4678760000000  0.4309580000000 1.0
C      1  0.4668870000000  0.4375730000000  0.5198880000000 1.0
C      1  0.4198300000000  0.5292080000000  0.5243680000000 1.0
C      1  0.5257920000000  0.5294960000000  0.5662170000000 1.0
C      1  0.5013540000000  0.4480140000000  0.4965790000000 1.0
C      1  0.4553400000000  0.5101010000000  0.4323610000000 1.0
C      1  0.5383490000000  0.5064550000000  0.5462350000000 1.0
C      1  0.4752340000000  0.4825170000000  0.4114300000000 1.0
C      1  0.5073420000000  0.5070100000000  0.5238140000000 1.0
C      1  0.5451920000000  0.5316470000000  0.5080700000000 1.0
C      1  0.5199610000000  0.5247620000000  0.4301040000000 1.0
C      1  0.5196290000000  0.4367070000000  0.5443970000000 1.0
C      1  0.4826360000000  0.5653950000000  0.5190590000000 1.0
C      1  0.5526660000000  0.5228490000000  0.4393370000000 1.0
C      1  0.4882020000000  0.5180760000000  0.5614730000000 1.0
C      1  0.4827160000000  0.5266310000000  0.5283160000000 1.0
C      1  0.5671100000000  0.4513850000000  0.4856360000000 1.0
C      1  0.4963680000000  0.5383530000000  0.4501990000000 1.0
C      1  0.5139360000000  0.5710340000000  0.5260470000000 1.0
C      1  0.4889740000000  0.4340150000000  0.4713590000000 1.0
C      1  0.5531430000000  0.4792980000000  0.4996270000000 1.0
C      1  0.4750520000000  0.4886440000000  0.4736090000000 1.0
C      1  0.4704770000000  0.5505520000000  0.5472310000000 1.0
C      1  0.5616640000000  0.5287830000000  0.4716120000000 1.0
C      1  0.4808870000000  0.5178790000000  0.4309780000000 1.0
C      1  0.5418140000000  0.4823650000000  0.5686900000000 1.0
C      1  0.4556860000000  0.5209390000000  0.5569140000000 1.0
C      1  0.4317530000000  0.5075760000000  0.5408750000000 1.0
C      1  0.4612540000000  0.4863950000000  0.5037400000000 1.0
C      1  0.4863040000000  0.4791820000000  0.5688790000000 1.0
C      1  0.4714340000000  0.5648140000000  0.4905360000000 1.0
C      1  0.4583650000000  0.4595010000000  0.4687540000000 1.0
C      1  0.4315000000000  0.5358230000000  0.5028600000000 1.0
C      1  0.4823500000000  0.4668580000000  0.5165070000000 1.0
C      1  0.5360160000000  0.4690920000000  0.4376650000000 1.0
C      1  0.4234610000000  0.4785400000000  0.4934900000000 1.0
C      1  0.5128270000000  0.4996020000000  0.5759300000000 1.0
C      1  0.4578100000000  0.4868310000000  0.5561660000000 1.0
C      1  0.4755650000000  0.4745380000000  0.4438090000000 1.0
C      1  0.4775160000000  0.5573210000000  0.4678530000000 1.0
C      1  0.4959620000000  0.4403960000000  0.4460980000000 1.0
C      1  0.5586460000000  0.4930040000000  0.4320430000000 1.0
C      1  0.4994170000000  0.4318310000000  0.5255250000000 1.0
C      1  0.5421840000000  0.4919660000000  0.4623640000000 1.0
C      1  0.5690980000000  0.4972140000000  0.5532760000000 1.0
C      1  0.4353250000000  0.4821780000000  0.5235170000000 1.0
C      1  0.5327520000000  0.5143540000000  0.4812050000000 1.0
C      1  0.5217630000000  0.4706000000000  0.4892440000000 1.0
C      1  0.4989650000000  0.4801610000000  0.5373510000000 1.0
C      1  0.5057810000000  0.5319730000000  0.4803660000000 1.0
C      1  0.4351410000000  0.4946620000000  0.4745900000000 1.0
C      1  0.4974830000000  0.5494330000000  0.5681370000000 1.0
C      1  0.5152780000000  0.4628050000000  0.5617400000000 1.0
C      1  0.5043570000000  0.4990970000000  0.4175480000000 1.0
C      1  0.5431370000000  0.4582260000000  0.4675400000000 1.0
C      1  0.5333660000000  0.5478440000000  0.4514210000000 1.0
C      1  0.5400790000000  0.5534120000000  0.4821270000000 1.0
C      1  0.5222650000000  0.5374460000000  0.5272490000000 1.0
C      1  0.4365970000000  0.4968210000000  0.4468090000000 1.0
C      1  0.5450820000000  0.4512620000000  0.5379300000000 1.0
C      1  0.5700060000000  0.5143150000000  0.5238280000000 1.0
C      1  0.4515350000000  0.5169800000000  0.4890280000000 1.0
C      1  0.5250780000000  0.5595810000000  0.5534240000000 1.0
END
