TITL C-2778422-5617-544 -0.000999148142301008 125000 -786.849510748721 0 0 134 (C1) n - 1
REM
REM in /home/nfs/bkarasulu/CARBON/AIRSS/Generating-Clusters/REBO/Only-C1/SD-CG/HFTN-CG
REM
REM
REM
REM
REM
REM ./C.cell (11c1c37f851c82e70ff6c80c92926a4b)
REM
REM compiler GCC version 9.2.1 20190827 (Red Hat 9.2.1-1)
REM options -cpp -mtune=generic -march=x86-64 -g -O0 -fpre-include=/usr/include/finclude/math-vector-fortran.h
REM seed -137335339 779624936 -409327860 1785921720 -164593483 114999802 -1000674642 -2137111103 -793450823 -1927868588 559409479 -1093015759 1136850986 -1351935411 -1369057115 -1651139127 624637457 -648002525 -1566160533 888847432 593993458 -170980122 -185436386 -1996329151 104669790 1338017961 115960321 626323176 1476573785 837074636 -893326684 -121578986 -1141969497
REM
CELL 1.54180   50.00000   50.00000   50.00000   90.00000   90.00000   90.00000
LATT -1
SFAC C  
C      1  0.4769350000000  0.4366840000000  0.4406210000000 1.0
C      1  0.5383260000000  0.5800370000000  0.4634620000000 1.0
C      1  0.5490110000000  0.4878000000000  0.5877710000000 1.0
C      1  0.4628760000000  0.5249910000000  0.4640620000000 1.0
C      1  0.5189550000000  0.4078140000000  0.5181450000000 1.0
C      1  0.5345830000000  0.5324700000000  0.4887080000000 1.0
C      1  0.5682520000000  0.4116720000000  0.5116730000000 1.0
C      1  0.5615060000000  0.4632830000000  0.4860170000000 1.0
C      1  0.4569210000000  0.6006650000000  0.4788850000000 1.0
C      1  0.4666630000000  0.4980890000000  0.4112320000000 1.0
C      1  0.6024750000000  0.5620490000000  0.5189730000000 1.0
C      1  0.4667460000000  0.5477920000000  0.5114410000000 1.0
C      1  0.5473990000000  0.4354580000000  0.5215330000000 1.0
C      1  0.4679730000000  0.4205980000000  0.5308450000000 1.0
C      1  0.5424470000000  0.5157680000000  0.5904940000000 1.0
C      1  0.5636370000000  0.4478840000000  0.4377330000000 1.0
C      1  0.4142260000000  0.5310010000000  0.4746190000000 1.0
C      1  0.4123180000000  0.4812040000000  0.5057670000000 1.0
C      1  0.4596510000000  0.4854450000000  0.5629520000000 1.0
C      1  0.5413080000000  0.4124450000000  0.4710300000000 1.0
C      1  0.4087820000000  0.4815420000000  0.4725780000000 1.0
C      1  0.4887770000000  0.5788930000000  0.4438870000000 1.0
C      1  0.4353880000000  0.5323170000000  0.5534840000000 1.0
C      1  0.4655630000000  0.5175360000000  0.5208390000000 1.0
C      1  0.5499500000000  0.4688760000000  0.5165630000000 1.0
C      1  0.4152540000000  0.5269880000000  0.5281840000000 1.0
C      1  0.5082650000000  0.4550980000000  0.5857500000000 1.0
C      1  0.5432580000000  0.4533220000000  0.5566650000000 1.0
C      1  0.5088410000000  0.4743790000000  0.4318770000000 1.0
C      1  0.4960310000000  0.5684260000000  0.4914580000000 1.0
C      1  0.5477930000000  0.4713340000000  0.4258520000000 1.0
C      1  0.4899980000000  0.4627200000000  0.4827410000000 1.0
C      1  0.4439990000000  0.4325730000000  0.5206720000000 1.0
C      1  0.4291030000000  0.4326280000000  0.4663930000000 1.0
C      1  0.5917820000000  0.5489620000000  0.4946660000000 1.0
C      1  0.4893210000000  0.4712330000000  0.5545100000000 1.0
C      1  0.5121220000000  0.4976750000000  0.4566050000000 1.0
C      1  0.6022800000000  0.4973290000000  0.4974970000000 1.0
C      1  0.4056170000000  0.5067150000000  0.4577160000000 1.0
C      1  0.4897150000000  0.5385950000000  0.5566280000000 1.0
C      1  0.4922910000000  0.4957280000000  0.5228250000000 1.0
C      1  0.4548320000000  0.4525150000000  0.5614490000000 1.0
C      1  0.4047900000000  0.4988070000000  0.5302990000000 1.0
C      1  0.4828600000000  0.5924470000000  0.4713330000000 1.0
C      1  0.5188780000000  0.4114470000000  0.4542680000000 1.0
C      1  0.4182210000000  0.5386470000000  0.5022290000000 1.0
C      1  0.5068290000000  0.5158480000000  0.4916590000000 1.0
C      1  0.4383790000000  0.5589810000000  0.5024830000000 1.0
C      1  0.4539450000000  0.5209230000000  0.5797990000000 1.0
C      1  0.5297880000000  0.4412450000000  0.4961360000000 1.0
C      1  0.4394070000000  0.4982250000000  0.5107880000000 1.0
C      1  0.5209060000000  0.5643170000000  0.5833410000000 1.0
C      1  0.4579270000000  0.5028490000000  0.4845370000000 1.0
C      1  0.5411590000000  0.4030690000000  0.4991610000000 1.0
C      1  0.4799200000000  0.5535060000000  0.4653630000000 1.0
C      1  0.5627150000000  0.5008600000000  0.5594000000000 1.0
C      1  0.4852430000000  0.5146780000000  0.5882310000000 1.0
C      1  0.5504870000000  0.5509050000000  0.5780860000000 1.0
C      1  0.5619250000000  0.4357710000000  0.4668020000000 1.0
C      1  0.4924250000000  0.4457840000000  0.5096440000000 1.0
C      1  0.5128130000000  0.5875610000000  0.5348710000000 1.0
C      1  0.5241690000000  0.4887140000000  0.5183240000000 1.0
C      1  0.5789340000000  0.5405640000000  0.4402560000000 1.0
C      1  0.4384450000000  0.5846310000000  0.4911650000000 1.0
C      1  0.4497140000000  0.4457830000000  0.4511410000000 1.0
C      1  0.4682490000000  0.5804250000000  0.5175020000000 1.0
C      1  0.5263360000000  0.5491850000000  0.4639550000000 1.0
C      1  0.4901190000000  0.4134330000000  0.5082590000000 1.0
C      1  0.4846490000000  0.5912340000000  0.5397960000000 1.0
C      1  0.4681000000000  0.4704870000000  0.4069720000000 1.0
C      1  0.4681020000000  0.4721100000000  0.4611370000000 1.0
C      1  0.5547060000000  0.5213770000000  0.4655250000000 1.0
C      1  0.4605370000000  0.5522890000000  0.5561520000000 1.0
C      1  0.5824900000000  0.4578250000000  0.5193520000000 1.0
C      1  0.4561700000000  0.5566110000000  0.4410580000000 1.0
C      1  0.5521480000000  0.5547120000000  0.5435050000000 1.0
C      1  0.4160820000000  0.4498870000000  0.5154270000000 1.0
C      1  0.4986940000000  0.5404100000000  0.5084240000000 1.0
C      1  0.4746230000000  0.4326810000000  0.5558120000000 1.0
C      1  0.5182900000000  0.4534340000000  0.4758850000000 1.0
C      1  0.5157140000000  0.5404970000000  0.5354990000000 1.0
C      1  0.5915890000000  0.5505440000000  0.5439530000000 1.0
C      1  0.5818830000000  0.4843450000000  0.5410690000000 1.0
C      1  0.4637030000000  0.4779400000000  0.5236390000000 1.0
C      1  0.5140230000000  0.5211340000000  0.4018810000000 1.0
C      1  0.4788590000000  0.4987330000000  0.4509270000000 1.0
C      1  0.4115070000000  0.4490600000000  0.4823390000000 1.0
C      1  0.5113620000000  0.5022900000000  0.5694820000000 1.0
C      1  0.4222780000000  0.5117710000000  0.4275780000000 1.0
C      1  0.5726900000000  0.4532760000000  0.5504640000000 1.0
C      1  0.3906990000000  0.5115410000000  0.4276590000000 1.0
C      1  0.4633430000000  0.4333320000000  0.4865690000000 1.0
C      1  0.5333280000000  0.4856080000000  0.5510040000000 1.0
C      1  0.5609710000000  0.4900260000000  0.4718690000000 1.0
C      1  0.5177870000000  0.5259700000000  0.4412900000000 1.0
C      1  0.4632760000000  0.5795660000000  0.5571690000000 1.0
C      1  0.5255520000000  0.4272360000000  0.5453940000000 1.0
C      1  0.5296770000000  0.4620510000000  0.4529900000000 1.0
C      1  0.5323810000000  0.5638190000000  0.4340950000000 1.0
C      1  0.4924100000000  0.5465750000000  0.4083340000000 1.0
C      1  0.5498130000000  0.5354780000000  0.4348890000000 1.0
C      1  0.5892900000000  0.5039150000000  0.4743710000000 1.0
C      1  0.4928950000000  0.5100200000000  0.4240500000000 1.0
C      1  0.4911990000000  0.4158670000000  0.4542640000000 1.0
C      1  0.5695390000000  0.5302360000000  0.5598130000000 1.0
C      1  0.4870080000000  0.4565620000000  0.4227800000000 1.0
C      1  0.5303730000000  0.4929310000000  0.4847700000000 1.0
C      1  0.5284070000000  0.5740510000000  0.5544320000000 1.0
C      1  0.4771360000000  0.4044160000000  0.4796870000000 1.0
C      1  0.4398310000000  0.4766130000000  0.4771960000000 1.0
C      1  0.4516780000000  0.4584680000000  0.4997630000000 1.0
C      1  0.4965960000000  0.4574630000000  0.5334030000000 1.0
C      1  0.5047260000000  0.5685000000000  0.4229780000000 1.0
C      1  0.5437750000000  0.5393060000000  0.5160410000000 1.0
C      1  0.4707850000000  0.5140280000000  0.5510190000000 1.0
C      1  0.5884710000000  0.5343570000000  0.4692410000000 1.0
C      1  0.4997730000000  0.5453760000000  0.5861000000000 1.0
C      1  0.5357490000000  0.4635440000000  0.5844480000000 1.0
C      1  0.5280280000000  0.5295110000000  0.5629040000000 1.0
C      1  0.4346320000000  0.4671760000000  0.5381700000000 1.0
C      1  0.5811180000000  0.4366970000000  0.4949630000000 1.0
C      1  0.5181880000000  0.5853820000000  0.5063960000000 1.0
C      1  0.5379200000000  0.5929020000000  0.4872780000000 1.0
C      1  0.4347380000000  0.5429740000000  0.4585700000000 1.0
C      1  0.5013300000000  0.4348800000000  0.5660300000000 1.0
C      1  0.5271660000000  0.4939450000000  0.4111600000000 1.0
C      1  0.4629500000000  0.5431830000000  0.4165390000000 1.0
C      1  0.5757100000000  0.5325730000000  0.5199190000000 1.0
C      1  0.4468240000000  0.5182640000000  0.4142040000000 1.0
C      1  0.4431670000000  0.4076690000000  0.4786550000000 1.0
C      1  0.4309530000000  0.4986250000000  0.5514600000000 1.0
C      1  0.4851340000000  0.4926630000000  0.4909110000000 1.0
C      1  0.4913280000000  0.4818590000000  0.5867900000000 1.0
C      1  0.5903980000000  0.5050580000000  0.5207200000000 1.0
END
