TITL C-2778436-5916-688 -0.000670502572748468 125000 -923.569734058658 0 0 160 (C1) n - 1
REM
REM in /home/nfs/bkarasulu/CARBON/AIRSS/Generating-Clusters/REBO/Only-C1/SD-CG/HFTN-CG
REM
REM
REM
REM
REM
REM ./C.cell (11c1c37f851c82e70ff6c80c92926a4b)
REM
REM compiler GCC version 9.2.1 20190827 (Red Hat 9.2.1-1)
REM options -cpp -mtune=generic -march=x86-64 -g -O0 -fpre-include=/usr/include/finclude/math-vector-fortran.h
REM seed 1070970539 649428677 -1319137497 2074205944 339664568 128685498 1675609164 -992122229 1971676924 1224838428 -1781260281 -2098513905 772453711 1298732183 991007476 -1890675517 -1884811433 180340967 -857071675 -1136738284 -745871704 1148555160 -918267167 815631470 -1885064601 1244066997 589214422 1987925917 1238947194 -308281185 828814098 576659843 -1474571671
REM
CELL 1.54180   50.00000   50.00000   50.00000   90.00000   90.00000   90.00000
LATT -1
SFAC C  
C      1  0.5614820000000  0.5097300000000  0.4121310000000 1.0
C      1  0.5205620000000  0.4213450000000  0.5182510000000 1.0
C      1  0.5813320000000  0.4649970000000  0.4499800000000 1.0
C      1  0.5065190000000  0.4137070000000  0.4622010000000 1.0
C      1  0.4935870000000  0.5615190000000  0.4085970000000 1.0
C      1  0.4004670000000  0.4820850000000  0.4815970000000 1.0
C      1  0.5970800000000  0.5446370000000  0.5403750000000 1.0
C      1  0.4742730000000  0.4579490000000  0.4963470000000 1.0
C      1  0.4468760000000  0.4599110000000  0.4784780000000 1.0
C      1  0.4524260000000  0.4562700000000  0.5366500000000 1.0
C      1  0.4709690000000  0.5319330000000  0.5248300000000 1.0
C      1  0.5208470000000  0.5966800000000  0.5310060000000 1.0
C      1  0.4808760000000  0.4801640000000  0.4745730000000 1.0
C      1  0.4082840000000  0.4532100000000  0.5159540000000 1.0
C      1  0.4964820000000  0.5849370000000  0.5219030000000 1.0
C      1  0.4632150000000  0.5807250000000  0.4580740000000 1.0
C      1  0.5804680000000  0.5253530000000  0.5712040000000 1.0
C      1  0.5216080000000  0.4533680000000  0.5514630000000 1.0
C      1  0.4675170000000  0.4064390000000  0.5330590000000 1.0
C      1  0.5130120000000  0.4700180000000  0.4248030000000 1.0
C      1  0.4856510000000  0.4785980000000  0.6106690000000 1.0
C      1  0.5600160000000  0.4215600000000  0.4744280000000 1.0
C      1  0.5055210000000  0.5702970000000  0.5691680000000 1.0
C      1  0.5812170000000  0.5543650000000  0.4503850000000 1.0
C      1  0.5439330000000  0.4980740000000  0.5471860000000 1.0
C      1  0.5269150000000  0.4344470000000  0.5779160000000 1.0
C      1  0.5214810000000  0.4900710000000  0.4718350000000 1.0
C      1  0.4136360000000  0.4821360000000  0.4562110000000 1.0
C      1  0.4102470000000  0.4997210000000  0.5022090000000 1.0
C      1  0.5120640000000  0.4996570000000  0.4108200000000 1.0
C      1  0.4618220000000  0.5123930000000  0.4516740000000 1.0
C      1  0.5259150000000  0.5518490000000  0.4135490000000 1.0
C      1  0.4441980000000  0.5058130000000  0.5658310000000 1.0
C      1  0.4713080000000  0.5499350000000  0.5700060000000 1.0
C      1  0.5194300000000  0.4837520000000  0.5616290000000 1.0
C      1  0.5101220000000  0.3912490000000  0.5512410000000 1.0
C      1  0.5816120000000  0.4429120000000  0.4717940000000 1.0
C      1  0.6000850000000  0.5167690000000  0.5374450000000 1.0
C      1  0.4992700000000  0.5431640000000  0.5884070000000 1.0
C      1  0.5620820000000  0.4320220000000  0.5429400000000 1.0
C      1  0.5196350000000  0.4199660000000  0.4077370000000 1.0
C      1  0.5583260000000  0.5790360000000  0.5530640000000 1.0
C      1  0.4024530000000  0.5567600000000  0.4566500000000 1.0
C      1  0.5089520000000  0.5562440000000  0.4902800000000 1.0
C      1  0.4934930000000  0.5333800000000  0.4274630000000 1.0
C      1  0.4221950000000  0.5368050000000  0.4375140000000 1.0
C      1  0.5327310000000  0.5150980000000  0.5131170000000 1.0
C      1  0.5592450000000  0.5436000000000  0.5049540000000 1.0
C      1  0.5118000000000  0.4770270000000  0.5009540000000 1.0
C      1  0.4375950000000  0.4783370000000  0.5847390000000 1.0
C      1  0.5103930000000  0.3981720000000  0.4986850000000 1.0
C      1  0.5518380000000  0.5337360000000  0.4046370000000 1.0
C      1  0.4780500000000  0.4330740000000  0.4613220000000 1.0
C      1  0.5635540000000  0.5727810000000  0.4626760000000 1.0
C      1  0.4229770000000  0.4411050000000  0.5431990000000 1.0
C      1  0.5236300000000  0.5220540000000  0.4302840000000 1.0
C      1  0.3975570000000  0.4546810000000  0.4901450000000 1.0
C      1  0.5627070000000  0.4746800000000  0.5761310000000 1.0
C      1  0.5831710000000  0.5239020000000  0.4579020000000 1.0
C      1  0.4256920000000  0.5493920000000  0.5036460000000 1.0
C      1  0.4789970000000  0.5056120000000  0.4955450000000 1.0
C      1  0.5078870000000  0.5866510000000  0.4836400000000 1.0
C      1  0.4043160000000  0.5652610000000  0.4823170000000 1.0
C      1  0.5567590000000  0.4429670000000  0.5684550000000 1.0
C      1  0.5582290000000  0.5248840000000  0.4773100000000 1.0
C      1  0.4509980000000  0.5318950000000  0.5527510000000 1.0
C      1  0.5751570000000  0.4732040000000  0.5455310000000 1.0
C      1  0.5481130000000  0.5197480000000  0.5940210000000 1.0
C      1  0.4874060000000  0.4301170000000  0.4931310000000 1.0
C      1  0.4914080000000  0.5551310000000  0.5350930000000 1.0
C      1  0.5186940000000  0.4056950000000  0.5724870000000 1.0
C      1  0.5314570000000  0.4667920000000  0.5876540000000 1.0
C      1  0.5457920000000  0.4831970000000  0.4488180000000 1.0
C      1  0.4682090000000  0.4825350000000  0.5594440000000 1.0
C      1  0.4527880000000  0.4046380000000  0.4730310000000 1.0
C      1  0.4399460000000  0.4220650000000  0.5205420000000 1.0
C      1  0.4411040000000  0.5391260000000  0.4094200000000 1.0
C      1  0.4655870000000  0.4519490000000  0.5741340000000 1.0
C      1  0.5022250000000  0.5084630000000  0.5203320000000 1.0
C      1  0.4617540000000  0.4685200000000  0.6000270000000 1.0
C      1  0.4278260000000  0.5034370000000  0.5287180000000 1.0
C      1  0.4616380000000  0.4997030000000  0.5305880000000 1.0
C      1  0.4463130000000  0.4290870000000  0.4502390000000 1.0
C      1  0.4236790000000  0.4537190000000  0.4456950000000 1.0
C      1  0.5341420000000  0.4727770000000  0.5263220000000 1.0
C      1  0.4820740000000  0.3987230000000  0.4808780000000 1.0
C      1  0.4350980000000  0.4670230000000  0.5153940000000 1.0
C      1  0.5425040000000  0.6037990000000  0.5134650000000 1.0
C      1  0.5336070000000  0.5186840000000  0.4618290000000 1.0
C      1  0.4694250000000  0.5409160000000  0.4639190000000 1.0
C      1  0.5834340000000  0.5617830000000  0.5178890000000 1.0
C      1  0.4721700000000  0.5962700000000  0.5053560000000 1.0
C      1  0.5499480000000  0.4818240000000  0.4149960000000 1.0
C      1  0.5628420000000  0.5039140000000  0.5017090000000 1.0
C      1  0.6004840000000  0.5005650000000  0.4718690000000 1.0
C      1  0.5177440000000  0.5449650000000  0.5499370000000 1.0
C      1  0.4369260000000  0.5394920000000  0.4667930000000 1.0
C      1  0.5513140000000  0.4403930000000  0.4403070000000 1.0
C      1  0.5153630000000  0.4515960000000  0.4533680000000 1.0
C      1  0.4286910000000  0.5051890000000  0.4482340000000 1.0
C      1  0.5842820000000  0.4592190000000  0.4958090000000 1.0
C      1  0.4549730000000  0.5886320000000  0.5341260000000 1.0
C      1  0.4716570000000  0.4343720000000  0.4279440000000 1.0
C      1  0.5451580000000  0.4580640000000  0.4681010000000 1.0
C      1  0.4456110000000  0.5769470000000  0.5035360000000 1.0
C      1  0.5670360000000  0.5495770000000  0.5532360000000 1.0
C      1  0.4262070000000  0.5505820000000  0.5495060000000 1.0
C      1  0.4324160000000  0.5206750000000  0.4926370000000 1.0
C      1  0.5686290000000  0.5806720000000  0.4939770000000 1.0
C      1  0.4610060000000  0.4673580000000  0.4499910000000 1.0
C      1  0.5704160000000  0.5038120000000  0.5317930000000 1.0
C      1  0.4836950000000  0.4752740000000  0.5209570000000 1.0
C      1  0.4477790000000  0.5101120000000  0.4219730000000 1.0
C      1  0.4178400000000  0.4628960000000  0.5656980000000 1.0
C      1  0.4959250000000  0.4983080000000  0.5510660000000 1.0
C      1  0.4799340000000  0.6011040000000  0.4746350000000 1.0
C      1  0.5035460000000  0.4469840000000  0.5259750000000 1.0
C      1  0.5022900000000  0.5917980000000  0.4505550000000 1.0
C      1  0.5124430000000  0.4473630000000  0.4870020000000 1.0
C      1  0.5862190000000  0.4866530000000  0.4907510000000 1.0
C      1  0.4850290000000  0.5194110000000  0.5696370000000 1.0
C      1  0.5407550000000  0.5621240000000  0.4860240000000 1.0
C      1  0.4431720000000  0.5692360000000  0.4737160000000 1.0
C      1  0.4475760000000  0.4566990000000  0.4215810000000 1.0
C      1  0.4668380000000  0.4275700000000  0.5602930000000 1.0
C      1  0.5756360000000  0.4974240000000  0.4407550000000 1.0
C      1  0.5158100000000  0.5155270000000  0.5960910000000 1.0
C      1  0.5399820000000  0.4530700000000  0.4184310000000 1.0
C      1  0.4821460000000  0.5383570000000  0.4930660000000 1.0
C      1  0.5166640000000  0.5623510000000  0.4427250000000 1.0
C      1  0.4618830000000  0.4838810000000  0.4114680000000 1.0
C      1  0.5425560000000  0.4147660000000  0.5328680000000 1.0
C      1  0.4770620000000  0.5613260000000  0.4385010000000 1.0
C      1  0.4481720000000  0.4904340000000  0.4944370000000 1.0
C      1  0.5039010000000  0.4286960000000  0.4317380000000 1.0
C      1  0.4753860000000  0.5781720000000  0.5549340000000 1.0
C      1  0.4137070000000  0.4384420000000  0.4726680000000 1.0
C      1  0.4160690000000  0.4917230000000  0.5542940000000 1.0
C      1  0.5440570000000  0.4539950000000  0.4996080000000 1.0
C      1  0.4845050000000  0.5053240000000  0.4007850000000 1.0
C      1  0.4754000000000  0.4374680000000  0.5305090000000 1.0
C      1  0.4952390000000  0.5081700000000  0.4584290000000 1.0
C      1  0.4859600000000  0.4834160000000  0.4355900000000 1.0
C      1  0.5700730000000  0.5921680000000  0.5259100000000 1.0
C      1  0.5092530000000  0.5391620000000  0.4632940000000 1.0
C      1  0.5099780000000  0.4866000000000  0.6019990000000 1.0
C      1  0.4388270000000  0.4284040000000  0.4894710000000 1.0
C      1  0.5711120000000  0.5025000000000  0.5864850000000 1.0
C      1  0.4721370000000  0.5359200000000  0.4010730000000 1.0
C      1  0.5354330000000  0.6016330000000  0.4864600000000 1.0
C      1  0.6046700000000  0.4885390000000  0.5448850000000 1.0
C      1  0.4249010000000  0.5751560000000  0.5373880000000 1.0
C      1  0.5300640000000  0.5218460000000  0.5661640000000 1.0
C      1  0.5443970000000  0.5388390000000  0.5331270000000 1.0
C      1  0.5694290000000  0.4527150000000  0.5223140000000 1.0
C      1  0.5300860000000  0.5849640000000  0.5555480000000 1.0
C      1  0.4068500000000  0.5766180000000  0.5129650000000 1.0
C      1  0.5348820000000  0.4112100000000  0.4784720000000 1.0
C      1  0.5359330000000  0.5873750000000  0.4554180000000 1.0
C      1  0.4949590000000  0.3924670000000  0.5285050000000 1.0
END
