TITL C-2778428-5639-1382 0.00972597170430935 125000 -394.832447315855 0 0 68 (C1) n - 1
REM
REM in /home/nfs/bkarasulu/CARBON/AIRSS/Generating-Clusters/REBO/Only-C1/SD-CG/HFTN-CG
REM
REM
REM
REM
REM
REM ./C.cell (11c1c37f851c82e70ff6c80c92926a4b)
REM
REM compiler GCC version 9.2.1 20190827 (Red Hat 9.2.1-1)
REM options -cpp -mtune=generic -march=x86-64 -g -O0 -fpre-include=/usr/include/finclude/math-vector-fortran.h
REM seed 117342699 1994785318 1597411310 -1349392852 -257852354 -505325425 -2070805484 56986803 -762031426 793008471 -933656907 518960565 -843991332 1012098952 890546647 -920592592 1739505077 -1968568983 2145514595 -1961845422 -1871746759 -1908237265 -1376302167 183097416 -550847264 -1365449012 1075161671 -1307728235 1652479194 915440259 -1365339871 -2022632861 -839103152
REM
CELL 1.54180   50.00000   50.00000   50.00000   90.00000   90.00000   90.00000
LATT -1
SFAC C  
C      1  0.4558250000000  0.4471070000000  0.5014950000000 1.0
C      1  0.5447890000000  0.4830590000000  0.5353560000000 1.0
C      1  0.5253500000000  0.5246280000000  0.5867320000000 1.0
C      1  0.5774050000000  0.5293540000000  0.5081230000000 1.0
C      1  0.5246650000000  0.5779490000000  0.4596750000000 1.0
C      1  0.4507500000000  0.5466350000000  0.5198880000000 1.0
C      1  0.4764880000000  0.4442280000000  0.4531230000000 1.0
C      1  0.4701380000000  0.5215790000000  0.5138010000000 1.0
C      1  0.5638830000000  0.5439870000000  0.5283170000000 1.0
C      1  0.4484310000000  0.5174530000000  0.5470920000000 1.0
C      1  0.4861660000000  0.4874570000000  0.4238130000000 1.0
C      1  0.5425810000000  0.5867190000000  0.5177280000000 1.0
C      1  0.4872730000000  0.5083450000000  0.4706480000000 1.0
C      1  0.4765800000000  0.5204510000000  0.5538890000000 1.0
C      1  0.4873730000000  0.4376640000000  0.5243080000000 1.0
C      1  0.5226380000000  0.5369290000000  0.5611080000000 1.0
C      1  0.4904000000000  0.5286430000000  0.4901920000000 1.0
C      1  0.4277260000000  0.4014110000000  0.4958990000000 1.0
C      1  0.5459760000000  0.4525490000000  0.4915670000000 1.0
C      1  0.4695210000000  0.4877350000000  0.4791440000000 1.0
C      1  0.4782870000000  0.4212900000000  0.4759400000000 1.0
C      1  0.5369260000000  0.5205280000000  0.4224740000000 1.0
C      1  0.5428050000000  0.4595870000000  0.5206760000000 1.0
C      1  0.5146620000000  0.4962670000000  0.4970930000000 1.0
C      1  0.4336050000000  0.4933170000000  0.5619680000000 1.0
C      1  0.4606150000000  0.4581490000000  0.5305350000000 1.0
C      1  0.4958740000000  0.5422500000000  0.5520260000000 1.0
C      1  0.4691050000000  0.4599200000000  0.4806310000000 1.0
C      1  0.5226390000000  0.4309450000000  0.5024730000000 1.0
C      1  0.5070990000000  0.4479810000000  0.4833460000000 1.0
C      1  0.5173910000000  0.5771520000000  0.5119970000000 1.0
C      1  0.5127370000000  0.5289350000000  0.4299460000000 1.0
C      1  0.4595530000000  0.5791660000000  0.4503650000000 1.0
C      1  0.5639380000000  0.5723780000000  0.5273250000000 1.0
C      1  0.5717020000000  0.5172720000000  0.4841080000000 1.0
C      1  0.4974230000000  0.5067010000000  0.5227850000000 1.0
C      1  0.5336740000000  0.5476760000000  0.4583120000000 1.0
C      1  0.5192870000000  0.4398470000000  0.5351800000000 1.0
C      1  0.4900790000000  0.5105710000000  0.4388270000000 1.0
C      1  0.5365580000000  0.4791860000000  0.5609210000000 1.0
C      1  0.4434520000000  0.5159700000000  0.4563810000000 1.0
C      1  0.5315450000000  0.5076240000000  0.5233740000000 1.0
C      1  0.5494170000000  0.5275620000000  0.4641310000000 1.0
C      1  0.4413790000000  0.4236150000000  0.4986180000000 1.0
C      1  0.5263330000000  0.4759220000000  0.5896970000000 1.0
C      1  0.5612000000000  0.4954110000000  0.4609960000000 1.0
C      1  0.5267060000000  0.4598910000000  0.4452190000000 1.0
C      1  0.5044360000000  0.5569260000000  0.4424330000000 1.0
C      1  0.4888080000000  0.4616850000000  0.5487790000000 1.0
C      1  0.4411190000000  0.4801240000000  0.5361000000000 1.0
C      1  0.5034590000000  0.5513340000000  0.4996860000000 1.0
C      1  0.5481070000000  0.4695130000000  0.4657200000000 1.0
C      1  0.4400180000000  0.4995340000000  0.4861070000000 1.0
C      1  0.4376240000000  0.4842960000000  0.4554260000000 1.0
C      1  0.4423260000000  0.5052130000000  0.5153980000000 1.0
C      1  0.4895210000000  0.4926080000000  0.5501760000000 1.0
C      1  0.5586150000000  0.5069600000000  0.4311400000000 1.0
C      1  0.4845000000000  0.4193770000000  0.4998600000000 1.0
C      1  0.5154250000000  0.4542430000000  0.5655590000000 1.0
C      1  0.4494920000000  0.4621060000000  0.4459210000000 1.0
C      1  0.5409880000000  0.5314540000000  0.5392220000000 1.0
C      1  0.4627470000000  0.5679880000000  0.5267040000000 1.0
C      1  0.4649240000000  0.5297850000000  0.4455170000000 1.0
C      1  0.4743450000000  0.5563910000000  0.4458870000000 1.0
C      1  0.5037690000000  0.4517230000000  0.4412710000000 1.0
C      1  0.5240790000000  0.5013980000000  0.6016470000000 1.0
C      1  0.5148770000000  0.4750000000000  0.4803030000000 1.0
C      1  0.4928710000000  0.5633470000000  0.5299020000000 1.0
END
