TITL C-2778436-5916-993 -0.00168270719404364 125000 -452.45430386364 0 0 80 (C1) n - 1
REM
REM in /home/nfs/bkarasulu/CARBON/AIRSS/Generating-Clusters/REBO/Only-C1/SD-CG/HFTN-CG
REM
REM
REM
REM
REM
REM ./C.cell (11c1c37f851c82e70ff6c80c92926a4b)
REM
REM compiler GCC version 9.2.1 20190827 (Red Hat 9.2.1-1)
REM options -cpp -mtune=generic -march=x86-64 -g -O0 -fpre-include=/usr/include/finclude/math-vector-fortran.h
REM seed -470517416 264738315 2001792487 688804454 1460162507 2080819788 599764308 -629442 1802867125 -1567692274 1929797685 832831068 -414749513 1592559270 357105115 -237458774 -1421955615 -1836960607 1803477717 -1963322977 -82218353 -1203086233 -1378621179 -264966501 -1992361452 -475596030 699306529 -1366335063 1966033538 218815146 -905999526 -173844718 1991437400
REM
CELL 1.54180   50.00000   50.00000   50.00000   90.00000   90.00000   90.00000
LATT -1
SFAC C  
C      1  0.4900840000000  0.5529530000000  0.4769060000000 1.0
C      1  0.5013910000000  0.5809860000000  0.4847260000000 1.0
C      1  0.4698050000000  0.4624890000000  0.4461740000000 1.0
C      1  0.5252350000000  0.5270200000000  0.5100280000000 1.0
C      1  0.4705920000000  0.5519860000000  0.5234190000000 1.0
C      1  0.3989910000000  0.4992970000000  0.5055800000000 1.0
C      1  0.5409190000000  0.4387780000000  0.4783880000000 1.0
C      1  0.4520260000000  0.4289870000000  0.4983310000000 1.0
C      1  0.4710160000000  0.5901400000000  0.4909420000000 1.0
C      1  0.5311560000000  0.4423810000000  0.5391730000000 1.0
C      1  0.5182390000000  0.4467050000000  0.5018050000000 1.0
C      1  0.4049360000000  0.4984460000000  0.4788180000000 1.0
C      1  0.5776630000000  0.5060510000000  0.5404640000000 1.0
C      1  0.4791050000000  0.5407410000000  0.4470130000000 1.0
C      1  0.4246230000000  0.4826370000000  0.5548640000000 1.0
C      1  0.5023820000000  0.4804150000000  0.5485780000000 1.0
C      1  0.5744230000000  0.4592130000000  0.5157270000000 1.0
C      1  0.5085330000000  0.4319120000000  0.5532490000000 1.0
C      1  0.5760140000000  0.4901620000000  0.5171020000000 1.0
C      1  0.4697760000000  0.5123630000000  0.5279820000000 1.0
C      1  0.5852910000000  0.4657550000000  0.4869340000000 1.0
C      1  0.5015300000000  0.4702020000000  0.5802820000000 1.0
C      1  0.4540960000000  0.5406660000000  0.5502790000000 1.0
C      1  0.4816520000000  0.5091350000000  0.4435360000000 1.0
C      1  0.4548650000000  0.5681790000000  0.4990570000000 1.0
C      1  0.4874310000000  0.4983070000000  0.5732330000000 1.0
C      1  0.4365980000000  0.5396170000000  0.5021780000000 1.0
C      1  0.5489260000000  0.5271110000000  0.4882070000000 1.0
C      1  0.5329730000000  0.5472540000000  0.4286430000000 1.0
C      1  0.4522930000000  0.5511530000000  0.4454650000000 1.0
C      1  0.5072840000000  0.4931490000000  0.4592440000000 1.0
C      1  0.5057070000000  0.4421950000000  0.5799670000000 1.0
C      1  0.5121040000000  0.5341710000000  0.4497820000000 1.0
C      1  0.5259080000000  0.4712370000000  0.5323930000000 1.0
C      1  0.5078190000000  0.5243990000000  0.4811990000000 1.0
C      1  0.5512320000000  0.5071660000000  0.4632310000000 1.0
C      1  0.4213470000000  0.4981880000000  0.5268140000000 1.0
C      1  0.4492320000000  0.4756990000000  0.4874130000000 1.0
C      1  0.4928760000000  0.4590570000000  0.5134480000000 1.0
C      1  0.4388040000000  0.5546850000000  0.4718730000000 1.0
C      1  0.4858580000000  0.4829920000000  0.5009520000000 1.0
C      1  0.5103610000000  0.4642290000000  0.4756090000000 1.0
C      1  0.5720340000000  0.5032610000000  0.4899490000000 1.0
C      1  0.5360380000000  0.5159900000000  0.4361120000000 1.0
C      1  0.5309200000000  0.5885440000000  0.4999150000000 1.0
C      1  0.5049420000000  0.5869630000000  0.5177490000000 1.0
C      1  0.5355260000000  0.5395710000000  0.5355520000000 1.0
C      1  0.4377780000000  0.4430970000000  0.5190200000000 1.0
C      1  0.5498740000000  0.4405590000000  0.5120760000000 1.0
C      1  0.4574630000000  0.4903820000000  0.4512370000000 1.0
C      1  0.4718740000000  0.4823860000000  0.5382190000000 1.0
C      1  0.5218950000000  0.4899880000000  0.4221970000000 1.0
C      1  0.4283280000000  0.4915540000000  0.4677240000000 1.0
C      1  0.4489470000000  0.4701840000000  0.5583580000000 1.0
C      1  0.5549490000000  0.5740860000000  0.5032840000000 1.0
C      1  0.5201010000000  0.4409930000000  0.4520180000000 1.0
C      1  0.5678010000000  0.5323640000000  0.5404780000000 1.0
C      1  0.5519190000000  0.4691900000000  0.4844500000000 1.0
C      1  0.4837720000000  0.4367150000000  0.5358690000000 1.0
C      1  0.4633860000000  0.5326710000000  0.4827730000000 1.0
C      1  0.4385300000000  0.5235650000000  0.5260960000000 1.0
C      1  0.4681030000000  0.5033730000000  0.4807230000000 1.0
C      1  0.4544450000000  0.4449350000000  0.5442200000000 1.0
C      1  0.4720720000000  0.5178960000000  0.5622760000000 1.0
C      1  0.5382500000000  0.4806160000000  0.5083620000000 1.0
C      1  0.5696510000000  0.4782180000000  0.4429910000000 1.0
C      1  0.5871850000000  0.4950890000000  0.5635780000000 1.0
C      1  0.4946190000000  0.5681620000000  0.5353420000000 1.0
C      1  0.5599010000000  0.5553350000000  0.4824630000000 1.0
C      1  0.4940410000000  0.5002770000000  0.4178850000000 1.0
C      1  0.5125290000000  0.5535780000000  0.5503200000000 1.0
C      1  0.4746410000000  0.4177010000000  0.5106230000000 1.0
C      1  0.5592900000000  0.5613610000000  0.5285840000000 1.0
C      1  0.4584680000000  0.4477500000000  0.4752150000000 1.0
C      1  0.4911670000000  0.5277060000000  0.5109210000000 1.0
C      1  0.5376730000000  0.4789860000000  0.4505060000000 1.0
C      1  0.5857000000000  0.4860490000000  0.4638950000000 1.0
C      1  0.4443160000000  0.4754450000000  0.5190340000000 1.0
C      1  0.4883010000000  0.4411920000000  0.4641850000000 1.0
C      1  0.5024730000000  0.4660550000000  0.4367900000000 1.0
END
