TITL C-2778429-3646-1362 0.00230114457670463 125000 -970.287465834843 0 0 166 (C1) n - 1
REM
REM in /home/nfs/bkarasulu/CARBON/AIRSS/Generating-Clusters/REBO/Only-C1/SD-CG/HFTN-CG
REM
REM
REM
REM
REM
REM ./C.cell (11c1c37f851c82e70ff6c80c92926a4b)
REM
REM compiler GCC version 9.2.1 20190827 (Red Hat 9.2.1-1)
REM options -cpp -mtune=generic -march=x86-64 -g -O0 -fpre-include=/usr/include/finclude/math-vector-fortran.h
REM seed 17220155 -1349107208 -1078999124 770367971 -1360348619 637288423 -47847861 1248217274 -852028019 -1781144301 1708646929 364132638 -1063974570 1390096644 1482946587 2145959518 99555787 764845248 -1907667041 619780208 -787789353 200061179 -614258864 -846739896 -1796253600 1668906894 2003139229 1586754820 -953830551 1181254814 1288327713 1004207453 -1022420377
REM
CELL 1.54180   50.00000   50.00000   50.00000   90.00000   90.00000   90.00000
LATT -1
SFAC C  
C      1  0.4695700000000  0.4301890000000  0.4655510000000 1.0
C      1  0.4991310000000  0.4268550000000  0.5489600000000 1.0
C      1  0.4018370000000  0.5550270000000  0.5260340000000 1.0
C      1  0.4770720000000  0.5154020000000  0.5626570000000 1.0
C      1  0.4670140000000  0.4852890000000  0.5733770000000 1.0
C      1  0.4955730000000  0.4701830000000  0.4560200000000 1.0
C      1  0.5924440000000  0.4405930000000  0.4944410000000 1.0
C      1  0.5200220000000  0.5405350000000  0.4755350000000 1.0
C      1  0.5508400000000  0.5389140000000  0.4638990000000 1.0
C      1  0.4851270000000  0.5584960000000  0.4831290000000 1.0
C      1  0.4298130000000  0.5368540000000  0.5480090000000 1.0
C      1  0.4966560000000  0.4198240000000  0.4436760000000 1.0
C      1  0.6120800000000  0.4801710000000  0.5169410000000 1.0
C      1  0.4852460000000  0.4916620000000  0.4240440000000 1.0
C      1  0.4430060000000  0.5132510000000  0.4134460000000 1.0
C      1  0.5779190000000  0.5068130000000  0.5617290000000 1.0
C      1  0.4015800000000  0.5293160000000  0.5408810000000 1.0
C      1  0.5558650000000  0.5852070000000  0.5078870000000 1.0
C      1  0.3968920000000  0.5016810000000  0.5414140000000 1.0
C      1  0.5879090000000  0.5190550000000  0.4375360000000 1.0
C      1  0.4552420000000  0.4570670000000  0.4214030000000 1.0
C      1  0.5300700000000  0.4400530000000  0.4319720000000 1.0
C      1  0.4543480000000  0.5512290000000  0.4897190000000 1.0
C      1  0.5233210000000  0.5284420000000  0.5373150000000 1.0
C      1  0.4748020000000  0.3994730000000  0.4550250000000 1.0
C      1  0.4986040000000  0.5097590000000  0.5416180000000 1.0
C      1  0.5715070000000  0.5634800000000  0.4877200000000 1.0
C      1  0.5511360000000  0.5236170000000  0.5482170000000 1.0
C      1  0.4232990000000  0.5273950000000  0.4823700000000 1.0
C      1  0.4274670000000  0.4744910000000  0.4997060000000 1.0
C      1  0.5567770000000  0.5595490000000  0.4078810000000 1.0
C      1  0.5295460000000  0.4918920000000  0.5592570000000 1.0
C      1  0.4361240000000  0.5612200000000  0.4649960000000 1.0
C      1  0.4375150000000  0.5448570000000  0.5758150000000 1.0
C      1  0.4244440000000  0.5555890000000  0.4438420000000 1.0
C      1  0.5420570000000  0.5761640000000  0.5587800000000 1.0
C      1  0.4134560000000  0.3647880000000  0.4768070000000 1.0
C      1  0.5161830000000  0.4248480000000  0.4810930000000 1.0
C      1  0.4936040000000  0.4660960000000  0.4148330000000 1.0
C      1  0.5477320000000  0.4519310000000  0.4157180000000 1.0
C      1  0.5847320000000  0.5146570000000  0.4698520000000 1.0
C      1  0.4997000000000  0.5123370000000  0.4110870000000 1.0
C      1  0.3978610000000  0.4702490000000  0.4850610000000 1.0
C      1  0.4418330000000  0.4719510000000  0.4483970000000 1.0
C      1  0.5119390000000  0.5950630000000  0.5111520000000 1.0
C      1  0.4559470000000  0.3812010000000  0.4595800000000 1.0
C      1  0.5500530000000  0.6070310000000  0.4886760000000 1.0
C      1  0.5157140000000  0.4672120000000  0.3972530000000 1.0
C      1  0.5663790000000  0.4631480000000  0.4583590000000 1.0
C      1  0.4641290000000  0.5262920000000  0.5104260000000 1.0
C      1  0.4322830000000  0.4491900000000  0.5407230000000 1.0
C      1  0.5515240000000  0.5165120000000  0.5816310000000 1.0
C      1  0.5544670000000  0.5268350000000  0.4956540000000 1.0
C      1  0.5012610000000  0.5651100000000  0.4115410000000 1.0
C      1  0.4442170000000  0.5230950000000  0.4560430000000 1.0
C      1  0.4445510000000  0.5708620000000  0.5624660000000 1.0
C      1  0.3992700000000  0.4878610000000  0.5144800000000 1.0
C      1  0.5181290000000  0.4899450000000  0.4533450000000 1.0
C      1  0.6024970000000  0.5386390000000  0.5184490000000 1.0
C      1  0.5162830000000  0.5378580000000  0.5847810000000 1.0
C      1  0.5544970000000  0.5796850000000  0.4282090000000 1.0
C      1  0.5242430000000  0.5813360000000  0.4398960000000 1.0
C      1  0.5831670000000  0.4633060000000  0.5175710000000 1.0
C      1  0.4123950000000  0.4877500000000  0.5670870000000 1.0
C      1  0.4213980000000  0.4680650000000  0.5933120000000 1.0
C      1  0.4330950000000  0.4984110000000  0.5920470000000 1.0
C      1  0.4423540000000  0.5038580000000  0.5220700000000 1.0
C      1  0.5327140000000  0.5935890000000  0.4680860000000 1.0
C      1  0.4964870000000  0.5481070000000  0.5590870000000 1.0
C      1  0.5115500000000  0.5564440000000  0.5309190000000 1.0
C      1  0.5066350000000  0.3961390000000  0.5197740000000 1.0
C      1  0.4326890000000  0.3839320000000  0.4753600000000 1.0
C      1  0.5570950000000  0.5710740000000  0.4598380000000 1.0
C      1  0.5698930000000  0.5144670000000  0.5234560000000 1.0
C      1  0.4068560000000  0.5072850000000  0.4519690000000 1.0
C      1  0.5106070000000  0.5808940000000  0.5624820000000 1.0
C      1  0.5560670000000  0.4842640000000  0.5584450000000 1.0
C      1  0.5622400000000  0.4857810000000  0.5099720000000 1.0
C      1  0.4473350000000  0.5016020000000  0.5536510000000 1.0
C      1  0.4845160000000  0.5228100000000  0.3865750000000 1.0
C      1  0.5629550000000  0.4556780000000  0.5609050000000 1.0
C      1  0.4920940000000  0.5846100000000  0.4353070000000 1.0
C      1  0.5283200000000  0.5538900000000  0.4017090000000 1.0
C      1  0.4690410000000  0.5993850000000  0.4896010000000 1.0
C      1  0.4655070000000  0.4653630000000  0.6077710000000 1.0
C      1  0.4715270000000  0.5781990000000  0.5670300000000 1.0
C      1  0.4622730000000  0.4414670000000  0.5468950000000 1.0
C      1  0.4297040000000  0.5731510000000  0.5318230000000 1.0
C      1  0.5127520000000  0.5142830000000  0.4873850000000 1.0
C      1  0.4408320000000  0.4527900000000  0.6051530000000 1.0
C      1  0.5893300000000  0.5497430000000  0.5394340000000 1.0
C      1  0.5557200000000  0.4323940000000  0.4635110000000 1.0
C      1  0.4818000000000  0.5443520000000  0.4304720000000 1.0
C      1  0.4631310000000  0.4980920000000  0.6090830000000 1.0
C      1  0.4947790000000  0.5646310000000  0.5881230000000 1.0
C      1  0.5485240000000  0.5257420000000  0.4368590000000 1.0
C      1  0.4812820000000  0.4624610000000  0.5584210000000 1.0
C      1  0.4887170000000  0.4564030000000  0.5903990000000 1.0
C      1  0.6087150000000  0.4650890000000  0.4872030000000 1.0
C      1  0.4809370000000  0.5884720000000  0.4620870000000 1.0
C      1  0.5318670000000  0.5806490000000  0.5287680000000 1.0
C      1  0.4485040000000  0.4537300000000  0.5047530000000 1.0
C      1  0.5981330000000  0.5037620000000  0.5372780000000 1.0
C      1  0.4811760000000  0.4409810000000  0.4246720000000 1.0
C      1  0.5556320000000  0.4170140000000  0.5124270000000 1.0
C      1  0.4466990000000  0.4849820000000  0.4109800000000 1.0
C      1  0.4825990000000  0.3945020000000  0.5323070000000 1.0
C      1  0.5302310000000  0.4812780000000  0.5209460000000 1.0
C      1  0.5393540000000  0.5574030000000  0.4972050000000 1.0
C      1  0.4419040000000  0.5011280000000  0.4893210000000 1.0
C      1  0.5614790000000  0.4760710000000  0.4287400000000 1.0
C      1  0.5714290000000  0.4234170000000  0.4869860000000 1.0
C      1  0.5190260000000  0.5312300000000  0.4228530000000 1.0
C      1  0.5314820000000  0.5110430000000  0.5132460000000 1.0
C      1  0.4944020000000  0.5051730000000  0.6124590000000 1.0
C      1  0.5068160000000  0.5875830000000  0.4840780000000 1.0
C      1  0.4541830000000  0.5225230000000  0.5869200000000 1.0
C      1  0.5984070000000  0.4749800000000  0.4632880000000 1.0
C      1  0.4156650000000  0.4798300000000  0.4591470000000 1.0
C      1  0.4604760000000  0.4081910000000  0.5420250000000 1.0
C      1  0.6141300000000  0.5192470000000  0.4863210000000 1.0
C      1  0.5172420000000  0.4504530000000  0.4585870000000 1.0
C      1  0.5014670000000  0.4777350000000  0.5376020000000 1.0
C      1  0.5292830000000  0.4136980000000  0.4520170000000 1.0
C      1  0.4637100000000  0.4969530000000  0.4452960000000 1.0
C      1  0.4317430000000  0.4077610000000  0.4911100000000 1.0
C      1  0.4828670000000  0.5611250000000  0.5163120000000 1.0
C      1  0.5200660000000  0.5040230000000  0.5902780000000 1.0
C      1  0.5382480000000  0.4974100000000  0.4319330000000 1.0
C      1  0.5346400000000  0.4534260000000  0.5720500000000 1.0
C      1  0.4965060000000  0.4484650000000  0.4926730000000 1.0
C      1  0.5104460000000  0.5513360000000  0.4477710000000 1.0
C      1  0.5259230000000  0.4597500000000  0.4978480000000 1.0
C      1  0.4874320000000  0.4264790000000  0.5742870000000 1.0
C      1  0.4893320000000  0.4820250000000  0.4936420000000 1.0
C      1  0.4827520000000  0.4342750000000  0.5204940000000 1.0
C      1  0.5904370000000  0.5426110000000  0.4887120000000 1.0
C      1  0.5256020000000  0.4081040000000  0.5047310000000 1.0
C      1  0.5327330000000  0.4873160000000  0.4812400000000 1.0
C      1  0.4723420000000  0.5996060000000  0.5141730000000 1.0
C      1  0.5649410000000  0.4909920000000  0.4780500000000 1.0
C      1  0.5887660000000  0.4893720000000  0.4385180000000 1.0
C      1  0.4173590000000  0.4075740000000  0.5155520000000 1.0
C      1  0.4763360000000  0.5330850000000  0.4619300000000 1.0
C      1  0.4703930000000  0.4597140000000  0.4582110000000 1.0
C      1  0.4899440000000  0.5115770000000  0.5107760000000 1.0
C      1  0.4285810000000  0.4780760000000  0.5397890000000 1.0
C      1  0.4247930000000  0.5546720000000  0.5027000000000 1.0
C      1  0.4541040000000  0.5501960000000  0.5295350000000 1.0
C      1  0.4710950000000  0.5025640000000  0.4767840000000 1.0
C      1  0.4745090000000  0.4673990000000  0.5193580000000 1.0
C      1  0.4213440000000  0.5258610000000  0.4319900000000 1.0
C      1  0.5176190000000  0.4693970000000  0.5898310000000 1.0
C      1  0.5370630000000  0.4420520000000  0.5222600000000 1.0
C      1  0.5720770000000  0.5358810000000  0.4182720000000 1.0
C      1  0.3984070000000  0.5049450000000  0.4848590000000 1.0
C      1  0.5468150000000  0.5493010000000  0.5784260000000 1.0
C      1  0.4497320000000  0.4297300000000  0.4884750000000 1.0
C      1  0.4860690000000  0.5858560000000  0.5398190000000 1.0
C      1  0.5677110000000  0.4416260000000  0.5334390000000 1.0
C      1  0.5707990000000  0.5585620000000  0.5561680000000 1.0
C      1  0.5342250000000  0.4868530000000  0.4016620000000 1.0
C      1  0.5232370000000  0.4395040000000  0.5489300000000 1.0
C      1  0.6227440000000  0.5114080000000  0.5159140000000 1.0
C      1  0.4311090000000  0.4185690000000  0.5376930000000 1.0
C      1  0.4644950000000  0.5306720000000  0.4084020000000 1.0
END
