TITL C-2778431-5191-555 0.00314526426789961 125000 -1131.13766553517 0 0 195 (C1) n - 1
REM
REM in /home/nfs/bkarasulu/CARBON/AIRSS/Generating-Clusters/REBO/Only-C1/SD-CG/HFTN-CG
REM
REM
REM
REM
REM
REM ./C.cell (11c1c37f851c82e70ff6c80c92926a4b)
REM
REM compiler GCC version 9.2.1 20190827 (Red Hat 9.2.1-1)
REM options -cpp -mtune=generic -march=x86-64 -g -O0 -fpre-include=/usr/include/finclude/math-vector-fortran.h
REM seed -1677570347 -576279520 1981922895 940453006 -1200344260 923032913 -706533261 -468014410 1706881135 -1122375532 -102646433 1358121660 -1954497714 1877851654 -983013389 1981136987 336353917 -1895798950 -253991148 1055840997 126703227 -1961406025 1149477904 -1883107819 -568358592 -725385776 2072765054 1095765394 1942968290 -873065118 -1594059271 -1337609035 1559332777
REM
CELL 1.54180   50.00000   50.00000   50.00000   90.00000   90.00000   90.00000
LATT -1
SFAC C  
C      1  0.5617160000000  0.4281500000000  0.5702420000000 1.0
C      1  0.5191030000000  0.5445780000000  0.5461250000000 1.0
C      1  0.5688430000000  0.4368250000000  0.5188280000000 1.0
C      1  0.4213780000000  0.5055280000000  0.4679130000000 1.0
C      1  0.5366970000000  0.4389540000000  0.5703440000000 1.0
C      1  0.4073510000000  0.4508000000000  0.4801260000000 1.0
C      1  0.4754540000000  0.4981020000000  0.5622120000000 1.0
C      1  0.4874650000000  0.4246000000000  0.5053410000000 1.0
C      1  0.4942980000000  0.5119620000000  0.5139990000000 1.0
C      1  0.5641950000000  0.4952050000000  0.5967560000000 1.0
C      1  0.4963450000000  0.5080170000000  0.4587840000000 1.0
C      1  0.5032740000000  0.5030880000000  0.5428580000000 1.0
C      1  0.5575050000000  0.4834600000000  0.4358640000000 1.0
C      1  0.5925620000000  0.5623370000000  0.5132740000000 1.0
C      1  0.5381400000000  0.6152610000000  0.4890510000000 1.0
C      1  0.4996380000000  0.5339980000000  0.4494760000000 1.0
C      1  0.5114920000000  0.5509930000000  0.5982620000000 1.0
C      1  0.4181660000000  0.5379030000000  0.5150930000000 1.0
C      1  0.4173940000000  0.4882190000000  0.4935720000000 1.0
C      1  0.5131080000000  0.5973960000000  0.5272630000000 1.0
C      1  0.5161140000000  0.5281750000000  0.4990140000000 1.0
C      1  0.4716510000000  0.4855290000000  0.4944790000000 1.0
C      1  0.4697080000000  0.3997270000000  0.4439470000000 1.0
C      1  0.5246350000000  0.3899210000000  0.5088380000000 1.0
C      1  0.5678200000000  0.5172630000000  0.5024070000000 1.0
C      1  0.4967690000000  0.5558750000000  0.5039930000000 1.0
C      1  0.4453660000000  0.5283240000000  0.4683390000000 1.0
C      1  0.5747880000000  0.5821950000000  0.5431010000000 1.0
C      1  0.5375300000000  0.5060000000000  0.5433650000000 1.0
C      1  0.4493640000000  0.5181160000000  0.5534540000000 1.0
C      1  0.5711250000000  0.4361090000000  0.4237220000000 1.0
C      1  0.4410730000000  0.5666680000000  0.5451430000000 1.0
C      1  0.5131410000000  0.6079200000000  0.4755480000000 1.0
C      1  0.5471060000000  0.4738730000000  0.5220790000000 1.0
C      1  0.4770160000000  0.4693090000000  0.6049930000000 1.0
C      1  0.4386570000000  0.4325770000000  0.4633230000000 1.0
C      1  0.4577990000000  0.4721240000000  0.5764570000000 1.0
C      1  0.4599210000000  0.4493600000000  0.4128810000000 1.0
C      1  0.5585980000000  0.5620940000000  0.4737710000000 1.0
C      1  0.5020900000000  0.4976610000000  0.6174200000000 1.0
C      1  0.5191850000000  0.5441140000000  0.3895620000000 1.0
C      1  0.6086570000000  0.5029210000000  0.4967780000000 1.0
C      1  0.4738380000000  0.4287160000000  0.4358500000000 1.0
C      1  0.4593150000000  0.4563230000000  0.4703530000000 1.0
C      1  0.4999740000000  0.4656180000000  0.5711860000000 1.0
C      1  0.5326830000000  0.4648590000000  0.5486710000000 1.0
C      1  0.5138560000000  0.5981840000000  0.4492870000000 1.0
C      1  0.4334290000000  0.4534850000000  0.5539400000000 1.0
C      1  0.5354670000000  0.4788790000000  0.6059420000000 1.0
C      1  0.4488410000000  0.5700230000000  0.4363290000000 1.0
C      1  0.4111190000000  0.4816530000000  0.5416610000000 1.0
C      1  0.4644120000000  0.3952490000000  0.4719460000000 1.0
C      1  0.3929660000000  0.5074000000000  0.5443640000000 1.0
C      1  0.5687830000000  0.5474440000000  0.5012480000000 1.0
C      1  0.4713670000000  0.4966340000000  0.4693790000000 1.0
C      1  0.4539820000000  0.4766640000000  0.3977770000000 1.0
C      1  0.5713520000000  0.4171510000000  0.4751090000000 1.0
C      1  0.5549950000000  0.4128670000000  0.5339270000000 1.0
C      1  0.5079860000000  0.4643290000000  0.6123920000000 1.0
C      1  0.5774570000000  0.4880410000000  0.5682330000000 1.0
C      1  0.4939970000000  0.3955200000000  0.4262830000000 1.0
C      1  0.6124350000000  0.5747980000000  0.5233250000000 1.0
C      1  0.4298170000000  0.5075150000000  0.5866120000000 1.0
C      1  0.5079360000000  0.4891400000000  0.4385300000000 1.0
C      1  0.5576360000000  0.5609230000000  0.4131220000000 1.0
C      1  0.3909370000000  0.5199270000000  0.4664010000000 1.0
C      1  0.4528260000000  0.5953810000000  0.4485020000000 1.0
C      1  0.4927490000000  0.5593390000000  0.4644810000000 1.0
C      1  0.4900990000000  0.4477820000000  0.4821010000000 1.0
C      1  0.4198460000000  0.5598570000000  0.4818120000000 1.0
C      1  0.5476020000000  0.5370760000000  0.5345640000000 1.0
C      1  0.4704710000000  0.5545700000000  0.5990150000000 1.0
C      1  0.4315750000000  0.4895330000000  0.4081100000000 1.0
C      1  0.4722970000000  0.5154770000000  0.4111830000000 1.0
C      1  0.4814720000000  0.4929090000000  0.3908340000000 1.0
C      1  0.4446590000000  0.5273070000000  0.4083340000000 1.0
C      1  0.3970860000000  0.4360460000000  0.4306410000000 1.0
C      1  0.5397570000000  0.5600670000000  0.5103800000000 1.0
C      1  0.4608050000000  0.4426700000000  0.5930850000000 1.0
C      1  0.5882620000000  0.5337780000000  0.4381790000000 1.0
C      1  0.5742450000000  0.5014540000000  0.4764870000000 1.0
C      1  0.5117650000000  0.4964290000000  0.5794610000000 1.0
C      1  0.4284130000000  0.4891170000000  0.4407620000000 1.0
C      1  0.5115640000000  0.4402360000000  0.5909040000000 1.0
C      1  0.4889840000000  0.4394110000000  0.4005950000000 1.0
C      1  0.4602840000000  0.4037300000000  0.5576390000000 1.0
C      1  0.4356150000000  0.4198580000000  0.5096180000000 1.0
C      1  0.5462020000000  0.4773610000000  0.5736720000000 1.0
C      1  0.5605080000000  0.5229650000000  0.4357340000000 1.0
C      1  0.4992240000000  0.5874860000000  0.4239060000000 1.0
C      1  0.4986620000000  0.4324250000000  0.5607140000000 1.0
C      1  0.5968100000000  0.5327930000000  0.5398760000000 1.0
C      1  0.5009870000000  0.5656550000000  0.5320720000000 1.0
C      1  0.3715750000000  0.4956360000000  0.4781400000000 1.0
C      1  0.5290970000000  0.4102830000000  0.5290360000000 1.0
C      1  0.3988100000000  0.4634500000000  0.5187690000000 1.0
C      1  0.4761420000000  0.5016040000000  0.5958060000000 1.0
C      1  0.4784940000000  0.5830670000000  0.5831590000000 1.0
C      1  0.4898210000000  0.3949050000000  0.4894510000000 1.0
C      1  0.4932720000000  0.6058610000000  0.5033450000000 1.0
C      1  0.4578390000000  0.5931020000000  0.4761860000000 1.0
C      1  0.4601540000000  0.4364430000000  0.5528940000000 1.0
C      1  0.4556180000000  0.4692140000000  0.4406470000000 1.0
C      1  0.5442380000000  0.3980700000000  0.4833750000000 1.0
C      1  0.4019110000000  0.5298910000000  0.5586190000000 1.0
C      1  0.5380220000000  0.5828900000000  0.4307030000000 1.0
C      1  0.4463920000000  0.5875690000000  0.5210830000000 1.0
C      1  0.4108460000000  0.5422880000000  0.4540620000000 1.0
C      1  0.5682000000000  0.4704820000000  0.4741700000000 1.0
C      1  0.5789930000000  0.4385210000000  0.5514620000000 1.0
C      1  0.4281100000000  0.5225590000000  0.4327710000000 1.0
C      1  0.5444640000000  0.4517850000000  0.5001980000000 1.0
C      1  0.4383920000000  0.5839150000000  0.4940720000000 1.0
C      1  0.4635800000000  0.5503380000000  0.4511110000000 1.0
C      1  0.5979700000000  0.5072040000000  0.5565170000000 1.0
C      1  0.5411850000000  0.4075750000000  0.4507850000000 1.0
C      1  0.4744470000000  0.6036540000000  0.5317460000000 1.0
C      1  0.4655440000000  0.5277000000000  0.5130090000000 1.0
C      1  0.4111800000000  0.4394740000000  0.4530230000000 1.0
C      1  0.5510150000000  0.5059850000000  0.4106740000000 1.0
C      1  0.6009100000000  0.4695630000000  0.4964800000000 1.0
C      1  0.5381640000000  0.5357880000000  0.4766540000000 1.0
C      1  0.5032120000000  0.5265520000000  0.5660330000000 1.0
C      1  0.6204830000000  0.4883200000000  0.5432520000000 1.0
C      1  0.4886550000000  0.4658200000000  0.4347500000000 1.0
C      1  0.5303670000000  0.4791290000000  0.4070790000000 1.0
C      1  0.3840070000000  0.5287630000000  0.4966100000000 1.0
C      1  0.4781390000000  0.5418770000000  0.5694970000000 1.0
C      1  0.5946380000000  0.4809370000000  0.5267220000000 1.0
C      1  0.4993770000000  0.4417010000000  0.4510940000000 1.0
C      1  0.4030610000000  0.5094050000000  0.5140330000000 1.0
C      1  0.4361560000000  0.4633140000000  0.4931330000000 1.0
C      1  0.4961380000000  0.4138460000000  0.4046490000000 1.0
C      1  0.4823030000000  0.5643360000000  0.4151870000000 1.0
C      1  0.4957020000000  0.3895010000000  0.5225510000000 1.0
C      1  0.5487340000000  0.4491010000000  0.4679040000000 1.0
C      1  0.5264510000000  0.5808660000000  0.5609420000000 1.0
C      1  0.5442790000000  0.5762320000000  0.5392050000000 1.0
C      1  0.4942250000000  0.5360920000000  0.4196670000000 1.0
C      1  0.4428750000000  0.4108580000000  0.4811760000000 1.0
C      1  0.5166200000000  0.3883620000000  0.4412560000000 1.0
C      1  0.5459870000000  0.4554330000000  0.4239480000000 1.0
C      1  0.5205510000000  0.5642740000000  0.4828280000000 1.0
C      1  0.6053970000000  0.5245010000000  0.5139990000000 1.0
C      1  0.5381140000000  0.5045730000000  0.5099080000000 1.0
C      1  0.5009340000000  0.5201910000000  0.3838390000000 1.0
C      1  0.5404350000000  0.6091830000000  0.5169890000000 1.0
C      1  0.4908820000000  0.4013650000000  0.5485190000000 1.0
C      1  0.5722120000000  0.4672800000000  0.5442280000000 1.0
C      1  0.5889050000000  0.4843400000000  0.4434860000000 1.0
C      1  0.5663310000000  0.6078710000000  0.5292820000000 1.0
C      1  0.5974990000000  0.4623450000000  0.4634070000000 1.0
C      1  0.4621140000000  0.4175230000000  0.5260310000000 1.0
C      1  0.4220700000000  0.5619280000000  0.4307920000000 1.0
C      1  0.5456080000000  0.5377020000000  0.4017630000000 1.0
C      1  0.5317000000000  0.4842920000000  0.4585940000000 1.0
C      1  0.5725500000000  0.5501080000000  0.5499930000000 1.0
C      1  0.4903690000000  0.5286530000000  0.6083510000000 1.0
C      1  0.3942770000000  0.5583240000000  0.5020350000000 1.0
C      1  0.4503660000000  0.5302990000000  0.5853920000000 1.0
C      1  0.5006300000000  0.4638410000000  0.5362010000000 1.0
C      1  0.5702430000000  0.5044760000000  0.5326800000000 1.0
C      1  0.5972140000000  0.5114240000000  0.4543280000000 1.0
C      1  0.5559130000000  0.5476990000000  0.5789480000000 1.0
C      1  0.5486790000000  0.5126410000000  0.4617570000000 1.0
C      1  0.5711820000000  0.4182000000000  0.4442670000000 1.0
C      1  0.4846420000000  0.5817350000000  0.4851720000000 1.0
C      1  0.5851170000000  0.4393860000000  0.4921550000000 1.0
C      1  0.4998280000000  0.4792270000000  0.5071870000000 1.0
C      1  0.5291370000000  0.4376590000000  0.4464840000000 1.0
C      1  0.5182410000000  0.4672690000000  0.4848960000000 1.0
C      1  0.5635020000000  0.5753520000000  0.4495520000000 1.0
C      1  0.4574650000000  0.5918350000000  0.5588900000000 1.0
C      1  0.4442220000000  0.5411950000000  0.4969080000000 1.0
C      1  0.4564360000000  0.4991610000000  0.5128550000000 1.0
C      1  0.5291420000000  0.5122760000000  0.6042880000000 1.0
C      1  0.5834290000000  0.5611900000000  0.4305760000000 1.0
C      1  0.4603570000000  0.5126110000000  0.4419650000000 1.0
C      1  0.5200200000000  0.5708020000000  0.4042280000000 1.0
C      1  0.4967260000000  0.5960170000000  0.5573200000000 1.0
C      1  0.5140080000000  0.3876590000000  0.4715710000000 1.0
C      1  0.4994960000000  0.4702870000000  0.4036410000000 1.0
C      1  0.4281330000000  0.5410240000000  0.5444550000000 1.0
C      1  0.4421530000000  0.4517520000000  0.5209630000000 1.0
C      1  0.4561350000000  0.4165930000000  0.5872540000000 1.0
C      1  0.4442250000000  0.4889570000000  0.5386340000000 1.0
C      1  0.3846720000000  0.4790690000000  0.4961040000000 1.0
C      1  0.4076700000000  0.4368540000000  0.5082740000000 1.0
C      1  0.5312710000000  0.5623780000000  0.5815570000000 1.0
C      1  0.5073320000000  0.4314000000000  0.5284660000000 1.0
C      1  0.4748170000000  0.5636710000000  0.5485360000000 1.0
C      1  0.4680120000000  0.4648580000000  0.5386490000000 1.0
C      1  0.4260860000000  0.4808020000000  0.5729470000000 1.0
C      1  0.5113950000000  0.5072110000000  0.4129150000000 1.0
C      1  0.5567740000000  0.5261900000000  0.5967840000000 1.0
END
