TITL C-2778429-3646-116 -0.00118237726985474 125000 -815.385841204936 0 0 141 (C1) n - 1
REM
REM in /home/nfs/bkarasulu/CARBON/AIRSS/Generating-Clusters/REBO/Only-C1/SD-CG/HFTN-CG
REM
REM
REM
REM
REM
REM ./C.cell (11c1c37f851c82e70ff6c80c92926a4b)
REM
REM compiler GCC version 9.2.1 20190827 (Red Hat 9.2.1-1)
REM options -cpp -mtune=generic -march=x86-64 -g -O0 -fpre-include=/usr/include/finclude/math-vector-fortran.h
REM seed 192665038 1667934990 1731263322 -1745536469 -630744633 -1036953081 580556250 -517965889 2121936812 -1651856291 124685757 1218824017 -1436776185 1400236005 1987809250 54920426 1448734468 2143815993 114522467 -181874743 1553370654 -1916012777 -256525012 494703988 -1240408584 1571586045 1358748629 909017788 91354478 373050494 447168440 1669105589 612543335
REM
CELL 1.54180   50.00000   50.00000   50.00000   90.00000   90.00000   90.00000
LATT -1
SFAC C  
C      1  0.4445810000000  0.4480570000000  0.4100410000000 1.0
C      1  0.4036660000000  0.4438920000000  0.4995740000000 1.0
C      1  0.5528610000000  0.5084410000000  0.4092470000000 1.0
C      1  0.4744900000000  0.4330530000000  0.5297260000000 1.0
C      1  0.5502910000000  0.5327130000000  0.5849820000000 1.0
C      1  0.4342580000000  0.4727710000000  0.4774470000000 1.0
C      1  0.4976590000000  0.4236320000000  0.4725350000000 1.0
C      1  0.5002570000000  0.5829730000000  0.4329250000000 1.0
C      1  0.5517710000000  0.4819100000000  0.4123100000000 1.0
C      1  0.5132750000000  0.4848080000000  0.5092640000000 1.0
C      1  0.4154310000000  0.5171070000000  0.5391320000000 1.0
C      1  0.4848520000000  0.4664200000000  0.4540490000000 1.0
C      1  0.4927180000000  0.4453950000000  0.4286590000000 1.0
C      1  0.4100140000000  0.4873040000000  0.5231680000000 1.0
C      1  0.4244040000000  0.4615670000000  0.4509800000000 1.0
C      1  0.5285270000000  0.5742320000000  0.5594460000000 1.0
C      1  0.4631020000000  0.5536740000000  0.5039550000000 1.0
C      1  0.5655120000000  0.4664160000000  0.5428250000000 1.0
C      1  0.5315870000000  0.4280650000000  0.5581960000000 1.0
C      1  0.4929120000000  0.5955840000000  0.5165600000000 1.0
C      1  0.5283490000000  0.4166390000000  0.4807320000000 1.0
C      1  0.5493840000000  0.4661830000000  0.4850090000000 1.0
C      1  0.4504650000000  0.4883300000000  0.5926480000000 1.0
C      1  0.4186570000000  0.4562360000000  0.5344990000000 1.0
C      1  0.4513900000000  0.4995490000000  0.4747430000000 1.0
C      1  0.4421670000000  0.5211220000000  0.4516030000000 1.0
C      1  0.5650140000000  0.6027630000000  0.4542730000000 1.0
C      1  0.4914390000000  0.6038860000000  0.5449940000000 1.0
C      1  0.4592950000000  0.5222950000000  0.5564130000000 1.0
C      1  0.4635940000000  0.5150180000000  0.5863060000000 1.0
C      1  0.4850950000000  0.5354780000000  0.4755310000000 1.0
C      1  0.5419280000000  0.5322320000000  0.4292480000000 1.0
C      1  0.4732530000000  0.5846130000000  0.4922020000000 1.0
C      1  0.5659510000000  0.5603120000000  0.5200370000000 1.0
C      1  0.5256330000000  0.5135270000000  0.5847080000000 1.0
C      1  0.5145760000000  0.5990480000000  0.5606700000000 1.0
C      1  0.4599900000000  0.4970590000000  0.4094230000000 1.0
C      1  0.6117290000000  0.5273180000000  0.5005230000000 1.0
C      1  0.4545530000000  0.5057930000000  0.5066710000000 1.0
C      1  0.4330300000000  0.4812090000000  0.5711120000000 1.0
C      1  0.5632310000000  0.5225690000000  0.4544320000000 1.0
C      1  0.5495110000000  0.4195190000000  0.5375380000000 1.0
C      1  0.4768210000000  0.4443300000000  0.5678850000000 1.0
C      1  0.5224320000000  0.5157620000000  0.5035600000000 1.0
C      1  0.5361910000000  0.5643640000000  0.5296200000000 1.0
C      1  0.5476630000000  0.5812640000000  0.4530900000000 1.0
C      1  0.5330610000000  0.5651130000000  0.4956530000000 1.0
C      1  0.5031770000000  0.5079260000000  0.4784100000000 1.0
C      1  0.4784030000000  0.4780970000000  0.5888590000000 1.0
C      1  0.5530470000000  0.5168090000000  0.5039360000000 1.0
C      1  0.4992070000000  0.5660590000000  0.5154710000000 1.0
C      1  0.5667870000000  0.4893140000000  0.4977380000000 1.0
C      1  0.5633830000000  0.4550870000000  0.5715950000000 1.0
C      1  0.5956380000000  0.4623360000000  0.4944850000000 1.0
C      1  0.5144060000000  0.5410330000000  0.5422870000000 1.0
C      1  0.4889190000000  0.5832480000000  0.4646730000000 1.0
C      1  0.4180070000000  0.5380550000000  0.4649380000000 1.0
C      1  0.5454600000000  0.5290340000000  0.5409190000000 1.0
C      1  0.5860560000000  0.5089090000000  0.4599680000000 1.0
C      1  0.5184780000000  0.5669450000000  0.4647210000000 1.0
C      1  0.5442340000000  0.4390560000000  0.4376520000000 1.0
C      1  0.4512650000000  0.5812020000000  0.5183860000000 1.0
C      1  0.5278160000000  0.4645790000000  0.4635720000000 1.0
C      1  0.4628450000000  0.4672000000000  0.4951930000000 1.0
C      1  0.5806050000000  0.4958710000000  0.5510290000000 1.0
C      1  0.4515700000000  0.4237780000000  0.5074590000000 1.0
C      1  0.5877920000000  0.4788010000000  0.5223820000000 1.0
C      1  0.4058290000000  0.4763350000000  0.4356660000000 1.0
C      1  0.5387690000000  0.4668330000000  0.5234800000000 1.0
C      1  0.5078700000000  0.4993560000000  0.6053720000000 1.0
C      1  0.5692270000000  0.4726810000000  0.4604580000000 1.0
C      1  0.4565240000000  0.3905680000000  0.4683150000000 1.0
C      1  0.5535410000000  0.4750570000000  0.5890800000000 1.0
C      1  0.4457150000000  0.5509680000000  0.5579230000000 1.0
C      1  0.5754880000000  0.4367070000000  0.4919340000000 1.0
C      1  0.5238300000000  0.4875790000000  0.4509460000000 1.0
C      1  0.4662140000000  0.4389150000000  0.4532500000000 1.0
C      1  0.4724850000000  0.5620440000000  0.5736280000000 1.0
C      1  0.4976620000000  0.4311370000000  0.3775870000000 1.0
C      1  0.4563130000000  0.5768620000000  0.4568550000000 1.0
C      1  0.4842630000000  0.5501350000000  0.5376740000000 1.0
C      1  0.5079380000000  0.5436170000000  0.4953940000000 1.0
C      1  0.4390510000000  0.5666480000000  0.4831880000000 1.0
C      1  0.5038680000000  0.4416620000000  0.4004120000000 1.0
C      1  0.5295130000000  0.4837460000000  0.5584120000000 1.0
C      1  0.5745130000000  0.4226530000000  0.5231180000000 1.0
C      1  0.5138290000000  0.4391270000000  0.4511310000000 1.0
C      1  0.4227400000000  0.5455540000000  0.5405270000000 1.0
C      1  0.4887110000000  0.5226180000000  0.5968720000000 1.0
C      1  0.5010500000000  0.4137460000000  0.5102490000000 1.0
C      1  0.5036660000000  0.4787740000000  0.5380370000000 1.0
C      1  0.4765260000000  0.4638320000000  0.5407580000000 1.0
C      1  0.4874990000000  0.5249970000000  0.4439430000000 1.0
C      1  0.4731770000000  0.5434260000000  0.4236630000000 1.0
C      1  0.4472020000000  0.4363920000000  0.5718630000000 1.0
C      1  0.5218520000000  0.4737740000000  0.5892670000000 1.0
C      1  0.4254210000000  0.4314980000000  0.5155850000000 1.0
C      1  0.5711470000000  0.5273710000000  0.5591460000000 1.0
C      1  0.4869960000000  0.5030490000000  0.4106420000000 1.0
C      1  0.5515580000000  0.4283710000000  0.4687730000000 1.0
C      1  0.4918890000000  0.4784120000000  0.4836160000000 1.0
C      1  0.5922920000000  0.5108210000000  0.4993160000000 1.0
C      1  0.4248410000000  0.5600210000000  0.5133540000000 1.0
C      1  0.4645650000000  0.4161620000000  0.4769570000000 1.0
C      1  0.4401690000000  0.4982570000000  0.5468860000000 1.0
C      1  0.4855830000000  0.4419230000000  0.4986510000000 1.0
C      1  0.4961570000000  0.5484430000000  0.5855630000000 1.0
C      1  0.4915460000000  0.4888570000000  0.5680570000000 1.0
C      1  0.5450970000000  0.4428090000000  0.5054810000000 1.0
C      1  0.4988000000000  0.4249280000000  0.5519370000000 1.0
C      1  0.4697230000000  0.5800880000000  0.5451830000000 1.0
C      1  0.5333510000000  0.5141770000000  0.4635610000000 1.0
C      1  0.5121110000000  0.5133670000000  0.5561600000000 1.0
C      1  0.4733310000000  0.5702380000000  0.4303230000000 1.0
C      1  0.5604230000000  0.4654160000000  0.4353070000000 1.0
C      1  0.4232450000000  0.5091440000000  0.5014680000000 1.0
C      1  0.5098000000000  0.4470240000000  0.5764840000000 1.0
C      1  0.5871560000000  0.5734280000000  0.5316210000000 1.0
C      1  0.5162380000000  0.5390540000000  0.4507370000000 1.0
C      1  0.5446500000000  0.4985820000000  0.5317780000000 1.0
C      1  0.4129840000000  0.4982900000000  0.4206020000000 1.0
C      1  0.4530000000000  0.4715460000000  0.3986220000000 1.0
C      1  0.5149250000000  0.5188590000000  0.4154850000000 1.0
C      1  0.4158730000000  0.5354990000000  0.4922690000000 1.0
C      1  0.4389230000000  0.5095260000000  0.4242870000000 1.0
C      1  0.5318480000000  0.4135830000000  0.5122020000000 1.0
C      1  0.4415780000000  0.4441090000000  0.4379400000000 1.0
C      1  0.4098780000000  0.4704690000000  0.4956240000000 1.0
C      1  0.5276590000000  0.4577980000000  0.4139510000000 1.0
C      1  0.5561370000000  0.5562280000000  0.4722180000000 1.0
C      1  0.5266670000000  0.5825680000000  0.4288800000000 1.0
C      1  0.4280250000000  0.4550800000000  0.5616470000000 1.0
C      1  0.5659450000000  0.5426420000000  0.4978030000000 1.0
C      1  0.4574810000000  0.5444490000000  0.4655380000000 1.0
C      1  0.4559570000000  0.4798510000000  0.5255120000000 1.0
C      1  0.5956690000000  0.4818160000000  0.4711340000000 1.0
C      1  0.4747050000000  0.4969730000000  0.4527440000000 1.0
C      1  0.4648110000000  0.5287120000000  0.5231240000000 1.0
C      1  0.5657650000000  0.5021140000000  0.5813700000000 1.0
C      1  0.5134190000000  0.4862250000000  0.4226730000000 1.0
C      1  0.5241320000000  0.5535980000000  0.5789750000000 1.0
END
