TITL C-2778431-5191-322 0.00372323006454908 125000 -844.381400071458 0 0 146 (C1) n - 1
REM
REM in /home/nfs/bkarasulu/CARBON/AIRSS/Generating-Clusters/REBO/Only-C1/SD-CG/HFTN-CG
REM
REM
REM
REM
REM
REM ./C.cell (11c1c37f851c82e70ff6c80c92926a4b)
REM
REM compiler GCC version 9.2.1 20190827 (Red Hat 9.2.1-1)
REM options -cpp -mtune=generic -march=x86-64 -g -O0 -fpre-include=/usr/include/finclude/math-vector-fortran.h
REM seed 1494896494 -171102989 1169971458 -9732610 677142291 367448229 1180676147 -1844559290 -973021757 992639850 -1968979959 -2073325783 1051710449 947470538 540122542 -1882835927 1298451379 1167856551 1538130385 -1318150080 -1317765820 -81882932 1488916926 1248543377 -1800971952 2030144759 -1240728637 -250077348 -186246621 2113565134 1254201627 517515414 -1937138635
REM
CELL 1.54180   50.00000   50.00000   50.00000   90.00000   90.00000   90.00000
LATT -1
SFAC C  
C      1  0.5698520000000  0.5528820000000  0.5157520000000 1.0
C      1  0.4864540000000  0.5778290000000  0.5589550000000 1.0
C      1  0.4797410000000  0.5067100000000  0.4396220000000 1.0
C      1  0.5124280000000  0.4300690000000  0.4099120000000 1.0
C      1  0.4583130000000  0.4917220000000  0.4214320000000 1.0
C      1  0.5851780000000  0.5215420000000  0.4657150000000 1.0
C      1  0.5168120000000  0.4652140000000  0.4279310000000 1.0
C      1  0.4555360000000  0.4641920000000  0.5028970000000 1.0
C      1  0.5413620000000  0.4644730000000  0.5505640000000 1.0
C      1  0.4824710000000  0.3977480000000  0.5012040000000 1.0
C      1  0.5767130000000  0.4800000000000  0.4173810000000 1.0
C      1  0.4293760000000  0.4688130000000  0.4393570000000 1.0
C      1  0.5443530000000  0.5378420000000  0.5184050000000 1.0
C      1  0.5636010000000  0.4323020000000  0.5424680000000 1.0
C      1  0.5368580000000  0.4623710000000  0.4552620000000 1.0
C      1  0.5792500000000  0.4435290000000  0.4866740000000 1.0
C      1  0.5147230000000  0.4955820000000  0.4119800000000 1.0
C      1  0.5801790000000  0.5033090000000  0.5642310000000 1.0
C      1  0.4945890000000  0.5384990000000  0.5231790000000 1.0
C      1  0.4625740000000  0.4401950000000  0.4928080000000 1.0
C      1  0.4943450000000  0.4773990000000  0.6001240000000 1.0
C      1  0.5132320000000  0.5891550000000  0.5027800000000 1.0
C      1  0.4553610000000  0.5206970000000  0.5468960000000 1.0
C      1  0.5887130000000  0.5497840000000  0.5508850000000 1.0
C      1  0.5332750000000  0.4531170000000  0.4004540000000 1.0
C      1  0.4166650000000  0.4432400000000  0.4580900000000 1.0
C      1  0.4117920000000  0.4984040000000  0.4595120000000 1.0
C      1  0.5441320000000  0.5017520000000  0.4714790000000 1.0
C      1  0.4579030000000  0.5631930000000  0.4291840000000 1.0
C      1  0.5681770000000  0.4634510000000  0.4641190000000 1.0
C      1  0.5415700000000  0.4932270000000  0.4410380000000 1.0
C      1  0.5454970000000  0.4233570000000  0.5152770000000 1.0
C      1  0.4882540000000  0.4799740000000  0.4515780000000 1.0
C      1  0.5517370000000  0.5113890000000  0.5303250000000 1.0
C      1  0.5909870000000  0.5319090000000  0.5142050000000 1.0
C      1  0.4405680000000  0.4674650000000  0.5866340000000 1.0
C      1  0.4608980000000  0.4110930000000  0.4522270000000 1.0
C      1  0.4174680000000  0.4240600000000  0.4833750000000 1.0
C      1  0.5163170000000  0.4898510000000  0.5256370000000 1.0
C      1  0.4625770000000  0.5165410000000  0.4636730000000 1.0
C      1  0.5981190000000  0.5187210000000  0.5435490000000 1.0
C      1  0.4824080000000  0.5231390000000  0.4850610000000 1.0
C      1  0.4072540000000  0.4667950000000  0.5052840000000 1.0
C      1  0.4025460000000  0.5117430000000  0.4896170000000 1.0
C      1  0.4636290000000  0.4192120000000  0.5100780000000 1.0
C      1  0.5449650000000  0.4624360000000  0.5227270000000 1.0
C      1  0.5391260000000  0.4101000000000  0.5444460000000 1.0
C      1  0.4055610000000  0.4969890000000  0.5205740000000 1.0
C      1  0.5133090000000  0.5123840000000  0.4406400000000 1.0
C      1  0.4850480000000  0.5936810000000  0.5307810000000 1.0
C      1  0.4497370000000  0.4858160000000  0.4598790000000 1.0
C      1  0.5220830000000  0.4434280000000  0.5075080000000 1.0
C      1  0.5082560000000  0.4205250000000  0.4633100000000 1.0
C      1  0.5648370000000  0.4209950000000  0.4920110000000 1.0
C      1  0.4638900000000  0.5592120000000  0.5598170000000 1.0
C      1  0.5053650000000  0.4792910000000  0.4727480000000 1.0
C      1  0.5037510000000  0.5605040000000  0.4393060000000 1.0
C      1  0.5762190000000  0.4754450000000  0.5667250000000 1.0
C      1  0.5373630000000  0.4983730000000  0.5912420000000 1.0
C      1  0.5166580000000  0.4480080000000  0.4785430000000 1.0
C      1  0.5832290000000  0.4563210000000  0.5409930000000 1.0
C      1  0.4130350000000  0.4897140000000  0.5530980000000 1.0
C      1  0.5624870000000  0.5966500000000  0.4877820000000 1.0
C      1  0.4482200000000  0.5300580000000  0.4242880000000 1.0
C      1  0.5372180000000  0.5912130000000  0.4809480000000 1.0
C      1  0.4886340000000  0.4013200000000  0.5345080000000 1.0
C      1  0.5573630000000  0.5196290000000  0.5776480000000 1.0
C      1  0.5568620000000  0.4714590000000  0.5865930000000 1.0
C      1  0.5199460000000  0.5514850000000  0.5339780000000 1.0
C      1  0.4182490000000  0.4361910000000  0.5081440000000 1.0
C      1  0.4671300000000  0.4593560000000  0.4466980000000 1.0
C      1  0.4733830000000  0.5042930000000  0.5817510000000 1.0
C      1  0.5464580000000  0.4833830000000  0.4087290000000 1.0
C      1  0.5740580000000  0.4998260000000  0.5180250000000 1.0
C      1  0.4700900000000  0.4590780000000  0.5844420000000 1.0
C      1  0.5634980000000  0.5240640000000  0.3978980000000 1.0
C      1  0.5534840000000  0.5331870000000  0.4217200000000 1.0
C      1  0.5184290000000  0.5653530000000  0.4761550000000 1.0
C      1  0.4348230000000  0.4327560000000  0.5340850000000 1.0
C      1  0.5153730000000  0.4185900000000  0.4358320000000 1.0
C      1  0.4843410000000  0.6028680000000  0.4977100000000 1.0
C      1  0.5136150000000  0.3994930000000  0.5471700000000 1.0
C      1  0.4781530000000  0.5743540000000  0.4455540000000 1.0
C      1  0.5693460000000  0.5288200000000  0.4449700000000 1.0
C      1  0.4425030000000  0.5424140000000  0.5775270000000 1.0
C      1  0.4697740000000  0.4368760000000  0.4668600000000 1.0
C      1  0.4912610000000  0.5528970000000  0.4860630000000 1.0
C      1  0.5744800000000  0.5849690000000  0.5085290000000 1.0
C      1  0.4426990000000  0.4368360000000  0.4381070000000 1.0
C      1  0.5934370000000  0.4558390000000  0.5085260000000 1.0
C      1  0.4908050000000  0.4833850000000  0.5607860000000 1.0
C      1  0.6056190000000  0.4850030000000  0.4998060000000 1.0
C      1  0.5723430000000  0.4835140000000  0.4890920000000 1.0
C      1  0.4452110000000  0.5141390000000  0.5849800000000 1.0
C      1  0.4277960000000  0.5633360000000  0.5256560000000 1.0
C      1  0.5226720000000  0.4860990000000  0.5649040000000 1.0
C      1  0.5170660000000  0.5379290000000  0.4594660000000 1.0
C      1  0.5180400000000  0.4466240000000  0.5619280000000 1.0
C      1  0.5146390000000  0.5135640000000  0.5500420000000 1.0
C      1  0.4869470000000  0.4014260000000  0.4719640000000 1.0
C      1  0.4219310000000  0.4642450000000  0.5361170000000 1.0
C      1  0.5407640000000  0.5756940000000  0.5577300000000 1.0
C      1  0.4297230000000  0.5430130000000  0.5483370000000 1.0
C      1  0.4318550000000  0.5202040000000  0.4736200000000 1.0
C      1  0.4973200000000  0.5446410000000  0.4112100000000 1.0
C      1  0.4317020000000  0.5752910000000  0.4949100000000 1.0
C      1  0.4690860000000  0.4926340000000  0.5386600000000 1.0
C      1  0.4354380000000  0.5059050000000  0.5107880000000 1.0
C      1  0.5281390000000  0.5443270000000  0.4216800000000 1.0
C      1  0.4728790000000  0.4747790000000  0.4009910000000 1.0
C      1  0.4545590000000  0.5834370000000  0.5187440000000 1.0
C      1  0.4664400000000  0.5463730000000  0.5295630000000 1.0
C      1  0.4870050000000  0.5230930000000  0.5592460000000 1.0
C      1  0.5699780000000  0.5761920000000  0.5402480000000 1.0
C      1  0.5616410000000  0.5516260000000  0.5700960000000 1.0
C      1  0.4681240000000  0.5116450000000  0.5103740000000 1.0
C      1  0.5030850000000  0.4503680000000  0.5847370000000 1.0
C      1  0.4259070000000  0.5466840000000  0.4443560000000 1.0
C      1  0.5134990000000  0.5112960000000  0.4805770000000 1.0
C      1  0.5102710000000  0.5671490000000  0.5702130000000 1.0
C      1  0.4796680000000  0.4519140000000  0.5524200000000 1.0
C      1  0.5846780000000  0.4707110000000  0.4391960000000 1.0
C      1  0.5990860000000  0.4858590000000  0.5337010000000 1.0
C      1  0.4770620000000  0.5923410000000  0.4661880000000 1.0
C      1  0.4509810000000  0.5410260000000  0.5020370000000 1.0
C      1  0.4764550000000  0.5265990000000  0.4053220000000 1.0
C      1  0.4184880000000  0.5355290000000  0.5080410000000 1.0
C      1  0.5045950000000  0.5407590000000  0.5812200000000 1.0
C      1  0.5062650000000  0.4598180000000  0.5324230000000 1.0
C      1  0.5171920000000  0.5823170000000  0.5338570000000 1.0
C      1  0.5402460000000  0.4867720000000  0.5013540000000 1.0
C      1  0.4882900000000  0.5012660000000  0.3972750000000 1.0
C      1  0.4526930000000  0.4680640000000  0.5308410000000 1.0
C      1  0.4906490000000  0.4538430000000  0.4089550000000 1.0
C      1  0.5055810000000  0.5087350000000  0.5930490000000 1.0
C      1  0.4660650000000  0.4260560000000  0.5417020000000 1.0
C      1  0.4776480000000  0.5702490000000  0.4994930000000 1.0
C      1  0.4273230000000  0.5726650000000  0.4275470000000 1.0
C      1  0.4079990000000  0.4703630000000  0.4737680000000 1.0
C      1  0.4458420000000  0.4858540000000  0.4895730000000 1.0
C      1  0.5971760000000  0.5147760000000  0.4890860000000 1.0
C      1  0.4336480000000  0.5520860000000  0.4746760000000 1.0
C      1  0.5177990000000  0.5190380000000  0.5107740000000 1.0
C      1  0.4278040000000  0.4920420000000  0.5776930000000 1.0
C      1  0.5357730000000  0.5356280000000  0.5573020000000 1.0
C      1  0.4289800000000  0.5021050000000  0.4302870000000 1.0
END
