TITL C-2778432-5617-718 0.00321156651401814 125000 -863.30607994359 0 0 149 (C1) n - 1
REM
REM in /home/nfs/bkarasulu/CARBON/AIRSS/Generating-Clusters/REBO/Only-C1/SD-CG/HFTN-CG
REM
REM
REM
REM
REM
REM ./C.cell (11c1c37f851c82e70ff6c80c92926a4b)
REM
REM compiler GCC version 9.2.1 20190827 (Red Hat 9.2.1-1)
REM options -cpp -mtune=generic -march=x86-64 -g -O0 -fpre-include=/usr/include/finclude/math-vector-fortran.h
REM seed 340415246 -828560910 -138830540 212141249 1418090235 -2081617364 -1669866109 -1969680833 473982901 -598028949 -1479995268 -2032824735 2101540740 -624443241 1040460904 -7057441 1444135884 -1395153848 -363636962 470175179 -600349453 1634565021 243584025 1471011328 1946735869 1002557239 1934532743 1689851387 -1315725581 -761997431 2077009399 -1740925845 -1168052976
REM
CELL 1.54180   50.00000   50.00000   50.00000   90.00000   90.00000   90.00000
LATT -1
SFAC C  
C      1  0.4999860000000  0.5160270000000  0.5112200000000 1.0
C      1  0.4101030000000  0.4399060000000  0.5529850000000 1.0
C      1  0.4674500000000  0.5711160000000  0.5510000000000 1.0
C      1  0.5319200000000  0.4762140000000  0.5963990000000 1.0
C      1  0.4882540000000  0.4479270000000  0.5009820000000 1.0
C      1  0.5527740000000  0.5469540000000  0.4494680000000 1.0
C      1  0.5778640000000  0.4805490000000  0.4396270000000 1.0
C      1  0.4280630000000  0.4918850000000  0.4507000000000 1.0
C      1  0.4473850000000  0.4767580000000  0.4282840000000 1.0
C      1  0.5338460000000  0.4792270000000  0.4945080000000 1.0
C      1  0.5624660000000  0.5537560000000  0.4873340000000 1.0
C      1  0.4487350000000  0.5251790000000  0.4911400000000 1.0
C      1  0.5372060000000  0.5682890000000  0.5605420000000 1.0
C      1  0.4794900000000  0.4941030000000  0.4828060000000 1.0
C      1  0.5833220000000  0.4555510000000  0.5389660000000 1.0
C      1  0.5837570000000  0.4687530000000  0.4663040000000 1.0
C      1  0.4830950000000  0.4471110000000  0.5688020000000 1.0
C      1  0.4332560000000  0.5060040000000  0.4209020000000 1.0
C      1  0.4781780000000  0.4649560000000  0.4741290000000 1.0
C      1  0.4866090000000  0.5722110000000  0.5771820000000 1.0
C      1  0.5143910000000  0.4705460000000  0.5612410000000 1.0
C      1  0.4890510000000  0.5947960000000  0.5274440000000 1.0
C      1  0.5572330000000  0.4700720000000  0.4224160000000 1.0
C      1  0.4191040000000  0.4448770000000  0.4562960000000 1.0
C      1  0.5324500000000  0.5079370000000  0.4514310000000 1.0
C      1  0.5114610000000  0.4720150000000  0.3796930000000 1.0
C      1  0.5408920000000  0.5298190000000  0.4763230000000 1.0
C      1  0.4737180000000  0.4770170000000  0.5117200000000 1.0
C      1  0.5022820000000  0.5158340000000  0.5895570000000 1.0
C      1  0.5461010000000  0.4978080000000  0.5529660000000 1.0
C      1  0.4398310000000  0.4700340000000  0.5894950000000 1.0
C      1  0.5780040000000  0.5274930000000  0.4618260000000 1.0
C      1  0.5089640000000  0.5414820000000  0.4193650000000 1.0
C      1  0.4831430000000  0.4174910000000  0.4552330000000 1.0
C      1  0.4697350000000  0.5218790000000  0.5594040000000 1.0
C      1  0.4881880000000  0.4142760000000  0.5672540000000 1.0
C      1  0.5414700000000  0.5382300000000  0.4235060000000 1.0
C      1  0.5524610000000  0.5212800000000  0.5758600000000 1.0
C      1  0.5334620000000  0.5815600000000  0.4565610000000 1.0
C      1  0.5629730000000  0.4293340000000  0.5308040000000 1.0
C      1  0.4401690000000  0.5473600000000  0.5680470000000 1.0
C      1  0.4588250000000  0.5959840000000  0.5159820000000 1.0
C      1  0.4550220000000  0.4286190000000  0.4515540000000 1.0
C      1  0.5344110000000  0.4526230000000  0.5154930000000 1.0
C      1  0.5067730000000  0.4439540000000  0.5270150000000 1.0
C      1  0.5402510000000  0.5502520000000  0.5250300000000 1.0
C      1  0.5250940000000  0.4134180000000  0.4845730000000 1.0
C      1  0.6279210000000  0.5352940000000  0.4832950000000 1.0
C      1  0.5729230000000  0.5605320000000  0.5314090000000 1.0
C      1  0.4841720000000  0.5032780000000  0.5374230000000 1.0
C      1  0.4175700000000  0.5280120000000  0.4165210000000 1.0
C      1  0.4584840000000  0.5842230000000  0.4504310000000 1.0
C      1  0.5057480000000  0.4285280000000  0.4382330000000 1.0
C      1  0.5144360000000  0.5128730000000  0.4861130000000 1.0
C      1  0.5038460000000  0.4995670000000  0.4358710000000 1.0
C      1  0.5319640000000  0.5048750000000  0.5967160000000 1.0
C      1  0.4888650000000  0.5429100000000  0.4565790000000 1.0
C      1  0.4604460000000  0.5949620000000  0.4823490000000 1.0
C      1  0.4026460000000  0.5442410000000  0.5361420000000 1.0
C      1  0.6008710000000  0.4795600000000  0.5217200000000 1.0
C      1  0.5031340000000  0.5116450000000  0.4053510000000 1.0
C      1  0.4412740000000  0.4766120000000  0.5148670000000 1.0
C      1  0.4708370000000  0.5032450000000  0.4138460000000 1.0
C      1  0.5431260000000  0.5802530000000  0.4829710000000 1.0
C      1  0.4234630000000  0.5603650000000  0.5476060000000 1.0
C      1  0.4265110000000  0.4275100000000  0.5345140000000 1.0
C      1  0.5777610000000  0.5089450000000  0.4369910000000 1.0
C      1  0.5474440000000  0.4918450000000  0.4047690000000 1.0
C      1  0.4299150000000  0.5077320000000  0.5105530000000 1.0
C      1  0.5165900000000  0.4369080000000  0.4121790000000 1.0
C      1  0.4793890000000  0.4087210000000  0.5060100000000 1.0
C      1  0.5023450000000  0.4326470000000  0.4774050000000 1.0
C      1  0.5784970000000  0.4887230000000  0.5461120000000 1.0
C      1  0.5182600000000  0.4825670000000  0.4690020000000 1.0
C      1  0.5806700000000  0.4333980000000  0.5020360000000 1.0
C      1  0.6194130000000  0.5306420000000  0.5114560000000 1.0
C      1  0.4191370000000  0.4358640000000  0.5056710000000 1.0
C      1  0.4738370000000  0.5286250000000  0.5985260000000 1.0
C      1  0.5111420000000  0.4173580000000  0.5458940000000 1.0
C      1  0.4417850000000  0.5490370000000  0.4700800000000 1.0
C      1  0.4568120000000  0.4235390000000  0.5032360000000 1.0
C      1  0.5463300000000  0.4637030000000  0.5699580000000 1.0
C      1  0.3998560000000  0.5321550000000  0.4615980000000 1.0
C      1  0.5947140000000  0.5112830000000  0.5174170000000 1.0
C      1  0.5169820000000  0.5098560000000  0.5393050000000 1.0
C      1  0.4768790000000  0.3940540000000  0.5790870000000 1.0
C      1  0.5745680000000  0.5706160000000  0.4603780000000 1.0
C      1  0.4931410000000  0.5140080000000  0.4615600000000 1.0
C      1  0.5745640000000  0.5126880000000  0.4907190000000 1.0
C      1  0.4015540000000  0.5254000000000  0.5171340000000 1.0
C      1  0.5004510000000  0.4569680000000  0.4008150000000 1.0
C      1  0.4524340000000  0.4461670000000  0.5251130000000 1.0
C      1  0.4373970000000  0.5163620000000  0.5640510000000 1.0
C      1  0.5220520000000  0.5272150000000  0.5653580000000 1.0
C      1  0.4250190000000  0.5132150000000  0.4713670000000 1.0
C      1  0.5064250000000  0.5797120000000  0.5514620000000 1.0
C      1  0.5577490000000  0.5260820000000  0.5156500000000 1.0
C      1  0.5668820000000  0.4838000000000  0.4874270000000 1.0
C      1  0.4100070000000  0.4664820000000  0.5122320000000 1.0
C      1  0.5569840000000  0.4276160000000  0.4531960000000 1.0
C      1  0.4219810000000  0.5004080000000  0.5404400000000 1.0
C      1  0.4666430000000  0.4991600000000  0.5850330000000 1.0
C      1  0.4705670000000  0.4582620000000  0.4452510000000 1.0
C      1  0.4938500000000  0.5430320000000  0.5609540000000 1.0
C      1  0.4007840000000  0.5393790000000  0.4355600000000 1.0
C      1  0.5486050000000  0.4957380000000  0.5205820000000 1.0
C      1  0.5522160000000  0.5801640000000  0.5154700000000 1.0
C      1  0.4866600000000  0.4742820000000  0.4224720000000 1.0
C      1  0.4910430000000  0.5924810000000  0.4933840000000 1.0
C      1  0.4797370000000  0.4566950000000  0.5389790000000 1.0
C      1  0.4722630000000  0.4675410000000  0.5910220000000 1.0
C      1  0.5351000000000  0.4190660000000  0.5140090000000 1.0
C      1  0.4619360000000  0.5576110000000  0.5265110000000 1.0
C      1  0.5233370000000  0.4955660000000  0.3897020000000 1.0
C      1  0.5636340000000  0.4664640000000  0.5165320000000 1.0
C      1  0.5954970000000  0.5458570000000  0.4834910000000 1.0
C      1  0.5198520000000  0.5810130000000  0.5069020000000 1.0
C      1  0.4550120000000  0.6012020000000  0.4304710000000 1.0
C      1  0.5155570000000  0.4405050000000  0.5777040000000 1.0
C      1  0.5416810000000  0.4066600000000  0.4641910000000 1.0
C      1  0.3984870000000  0.4803480000000  0.4879200000000 1.0
C      1  0.4258650000000  0.4854730000000  0.5706970000000 1.0
C      1  0.4611030000000  0.5518740000000  0.4454800000000 1.0
C      1  0.4944520000000  0.4914660000000  0.5666120000000 1.0
C      1  0.4364900000000  0.5784740000000  0.5271680000000 1.0
C      1  0.5759200000000  0.5225930000000  0.5435130000000 1.0
C      1  0.4718720000000  0.5348680000000  0.5076330000000 1.0
C      1  0.4966980000000  0.5554990000000  0.5069050000000 1.0
C      1  0.4358890000000  0.4461590000000  0.4303040000000 1.0
C      1  0.5601700000000  0.5484430000000  0.5595710000000 1.0
C      1  0.3966480000000  0.5120470000000  0.4888910000000 1.0
C      1  0.5006710000000  0.5653580000000  0.4759140000000 1.0
C      1  0.4101020000000  0.4705210000000  0.4635440000000 1.0
C      1  0.5396780000000  0.4340060000000  0.5543520000000 1.0
C      1  0.4353680000000  0.5737680000000  0.4812000000000 1.0
C      1  0.5123720000000  0.5522600000000  0.5336810000000 1.0
C      1  0.5038660000000  0.4054650000000  0.5168190000000 1.0
C      1  0.5162610000000  0.4555470000000  0.4564010000000 1.0
C      1  0.4626940000000  0.5517910000000  0.5855830000000 1.0
C      1  0.5583090000000  0.5162570000000  0.4162750000000 1.0
C      1  0.4754160000000  0.5354840000000  0.4200490000000 1.0
C      1  0.4075940000000  0.4706870000000  0.5460250000000 1.0
C      1  0.5143760000000  0.5620020000000  0.4449420000000 1.0
C      1  0.5037600000000  0.4630920000000  0.5990330000000 1.0
C      1  0.4357890000000  0.4279440000000  0.4789600000000 1.0
C      1  0.5756100000000  0.4383390000000  0.4712800000000 1.0
C      1  0.5974040000000  0.4598900000000  0.4964210000000 1.0
C      1  0.5960120000000  0.5512320000000  0.5171470000000 1.0
C      1  0.5407300000000  0.4471410000000  0.4339500000000 1.0
END
