TITL C-2778435-5768-1369 0.000827095689593738 125000 -409.058330332298 0 0 73 (C1) n - 1
REM
REM in /home/nfs/bkarasulu/CARBON/AIRSS/Generating-Clusters/REBO/Only-C1/SD-CG/HFTN-CG
REM
REM
REM
REM
REM
REM ./C.cell (11c1c37f851c82e70ff6c80c92926a4b)
REM
REM compiler GCC version 9.2.1 20190827 (Red Hat 9.2.1-1)
REM options -cpp -mtune=generic -march=x86-64 -g -O0 -fpre-include=/usr/include/finclude/math-vector-fortran.h
REM seed -349034987 -622833563 -1394447714 -1066739566 -1880394516 -671827912 -819075694 -33214981 -1335930052 -1768813680 -1867250179 -571574510 -224387896 -1400551482 867383012 -1943811523 1976183261 -1831644865 1424142380 -996231201 1332930184 -267066942 -1785242209 -1186186657 880750668 -1443073485 892954706 1475384385 -584951650 -1330356358 -2129096211 -918467426 2070027876
REM
CELL 1.54180   50.00000   50.00000   50.00000   90.00000   90.00000   90.00000
LATT -1
SFAC C  
C      1  0.5486920000000  0.4597840000000  0.4791840000000 1.0
C      1  0.4953890000000  0.4459340000000  0.5535880000000 1.0
C      1  0.4691720000000  0.4850450000000  0.5690510000000 1.0
C      1  0.4539550000000  0.4393620000000  0.4819760000000 1.0
C      1  0.5423500000000  0.4935620000000  0.4392990000000 1.0
C      1  0.4921980000000  0.4696350000000  0.5743170000000 1.0
C      1  0.4285960000000  0.5466470000000  0.5171880000000 1.0
C      1  0.4916100000000  0.4464130000000  0.4574000000000 1.0
C      1  0.4284240000000  0.4922100000000  0.4635050000000 1.0
C      1  0.5305920000000  0.5502260000000  0.5131200000000 1.0
C      1  0.5198230000000  0.4489010000000  0.5297420000000 1.0
C      1  0.4458950000000  0.4699030000000  0.5405760000000 1.0
C      1  0.4836270000000  0.4889830000000  0.4341700000000 1.0
C      1  0.5416490000000  0.5543640000000  0.4528330000000 1.0
C      1  0.4614230000000  0.4416690000000  0.5522510000000 1.0
C      1  0.5239830000000  0.5223830000000  0.5207000000000 1.0
C      1  0.5781140000000  0.4974260000000  0.4698190000000 1.0
C      1  0.4916780000000  0.5333410000000  0.5614900000000 1.0
C      1  0.5052400000000  0.4361850000000  0.5017310000000 1.0
C      1  0.5120700000000  0.5160440000000  0.5702300000000 1.0
C      1  0.4240520000000  0.5095890000000  0.4857570000000 1.0
C      1  0.4739390000000  0.5612970000000  0.5023530000000 1.0
C      1  0.5626210000000  0.5568990000000  0.4757880000000 1.0
C      1  0.5080550000000  0.6016540000000  0.5491200000000 1.0
C      1  0.5777620000000  0.5015590000000  0.5254620000000 1.0
C      1  0.5324060000000  0.5191100000000  0.4775030000000 1.0
C      1  0.5594350000000  0.4789190000000  0.4596720000000 1.0
C      1  0.4897270000000  0.4459730000000  0.4064200000000 1.0
C      1  0.4708570000000  0.4925880000000  0.5362910000000 1.0
C      1  0.4958870000000  0.5672280000000  0.4774260000000 1.0
C      1  0.4797310000000  0.5598380000000  0.5495670000000 1.0
C      1  0.4794490000000  0.4682270000000  0.4799790000000 1.0
C      1  0.4732550000000  0.5185150000000  0.4291620000000 1.0
C      1  0.4788860000000  0.4277730000000  0.4955200000000 1.0
C      1  0.4472090000000  0.4426530000000  0.5209910000000 1.0
C      1  0.5342980000000  0.4903660000000  0.5195260000000 1.0
C      1  0.4521030000000  0.4692500000000  0.5003430000000 1.0
C      1  0.5065150000000  0.5682120000000  0.5097150000000 1.0
C      1  0.5577860000000  0.5534210000000  0.5060700000000 1.0
C      1  0.4827260000000  0.4195330000000  0.4567260000000 1.0
C      1  0.5210250000000  0.4899520000000  0.4727140000000 1.0
C      1  0.4610000000000  0.4915330000000  0.4559970000000 1.0
C      1  0.4983930000000  0.5213220000000  0.4819680000000 1.0
C      1  0.5350310000000  0.5086110000000  0.5482570000000 1.0
C      1  0.5339920000000  0.4740100000000  0.5483880000000 1.0
C      1  0.5120340000000  0.5328660000000  0.4538600000000 1.0
C      1  0.5134490000000  0.4854480000000  0.4438840000000 1.0
C      1  0.5156710000000  0.4850260000000  0.5733970000000 1.0
C      1  0.5749730000000  0.5337930000000  0.5179650000000 1.0
C      1  0.4666580000000  0.5378190000000  0.4431030000000 1.0
C      1  0.5618370000000  0.5248440000000  0.4784660000000 1.0
C      1  0.4743770000000  0.5235180000000  0.5347650000000 1.0
C      1  0.4322190000000  0.5008430000000  0.5363170000000 1.0
C      1  0.5490700000000  0.4539380000000  0.5127290000000 1.0
C      1  0.4979260000000  0.5786540000000  0.5379700000000 1.0
C      1  0.5705020000000  0.4757240000000  0.5279980000000 1.0
C      1  0.5408470000000  0.5233120000000  0.4387290000000 1.0
C      1  0.4147630000000  0.5339370000000  0.4970580000000 1.0
C      1  0.5158500000000  0.5721830000000  0.4581920000000 1.0
C      1  0.4458480000000  0.4986100000000  0.5056970000000 1.0
C      1  0.4689970000000  0.5464500000000  0.4732420000000 1.0
C      1  0.4439960000000  0.4624850000000  0.4621830000000 1.0
C      1  0.4891850000000  0.4798620000000  0.5104330000000 1.0
C      1  0.5883570000000  0.5125970000000  0.4963110000000 1.0
C      1  0.4652300000000  0.5134810000000  0.4816230000000 1.0
C      1  0.5768190000000  0.4448570000000  0.5302360000000 1.0
C      1  0.4792630000000  0.4536320000000  0.5258180000000 1.0
C      1  0.4947130000000  0.5136160000000  0.5121460000000 1.0
C      1  0.4437970000000  0.5020630000000  0.5640260000000 1.0
C      1  0.4580960000000  0.5498760000000  0.5256040000000 1.0
C      1  0.5177890000000  0.4504180000000  0.4763650000000 1.0
C      1  0.4886570000000  0.4584000000000  0.4294820000000 1.0
C      1  0.5184500000000  0.4757020000000  0.4995160000000 1.0
END
