TITL C-2778431-5191-496 -0.000195613491254599 125000 -1063.83744790212 0 0 182 (C1) n - 1
REM
REM in /home/nfs/bkarasulu/CARBON/AIRSS/Generating-Clusters/REBO/Only-C1/SD-CG/HFTN-CG
REM
REM
REM
REM
REM
REM ./C.cell (11c1c37f851c82e70ff6c80c92926a4b)
REM
REM compiler GCC version 9.2.1 20190827 (Red Hat 9.2.1-1)
REM options -cpp -mtune=generic -march=x86-64 -g -O0 -fpre-include=/usr/include/finclude/math-vector-fortran.h
REM seed -1692706078 -460998893 -1455957955 -1798850787 -1679198585 -1014190718 -2086540209 1496868570 -1404058127 -1892896984 -1860706729 -1367522493 -1331932583 490665481 808308603 -1394794392 1047093350 1901645094 -1405914840 -830164943 1947929919 1495998552 -223510236 -713850724 -1268311833 2123322444 -542304660 -455073654 55109176 -1622570653 -552927900 -1022492764 973606549
REM
CELL 1.54180   50.00000   50.00000   50.00000   90.00000   90.00000   90.00000
LATT -1
SFAC C  
C      1  0.5771500000000  0.4942020000000  0.4864450000000 1.0
C      1  0.4853540000000  0.4845080000000  0.6006680000000 1.0
C      1  0.4169880000000  0.5236860000000  0.5364010000000 1.0
C      1  0.4670780000000  0.3975300000000  0.4937530000000 1.0
C      1  0.4914000000000  0.5347340000000  0.5073040000000 1.0
C      1  0.5654110000000  0.4385430000000  0.4833160000000 1.0
C      1  0.4208160000000  0.5303800000000  0.5673870000000 1.0
C      1  0.4913450000000  0.6027710000000  0.5330180000000 1.0
C      1  0.4157020000000  0.5235660000000  0.4435360000000 1.0
C      1  0.5804180000000  0.5689460000000  0.5367300000000 1.0
C      1  0.4166360000000  0.5699040000000  0.4722370000000 1.0
C      1  0.5299150000000  0.4549620000000  0.4188160000000 1.0
C      1  0.4542010000000  0.5756900000000  0.4130910000000 1.0
C      1  0.5172530000000  0.5674640000000  0.4933300000000 1.0
C      1  0.4969470000000  0.4227790000000  0.5086610000000 1.0
C      1  0.5651310000000  0.4078060000000  0.4579520000000 1.0
C      1  0.4943480000000  0.4776580000000  0.4797750000000 1.0
C      1  0.5570740000000  0.4817390000000  0.5551160000000 1.0
C      1  0.4960620000000  0.4289900000000  0.5696040000000 1.0
C      1  0.4478420000000  0.4994180000000  0.5069140000000 1.0
C      1  0.5673870000000  0.5015790000000  0.5791410000000 1.0
C      1  0.4607020000000  0.4395810000000  0.3946670000000 1.0
C      1  0.5049570000000  0.4673400000000  0.5418300000000 1.0
C      1  0.5152080000000  0.5137480000000  0.4943100000000 1.0
C      1  0.4984700000000  0.5606530000000  0.6003770000000 1.0
C      1  0.5340320000000  0.4424280000000  0.4779430000000 1.0
C      1  0.4604180000000  0.5454020000000  0.4685910000000 1.0
C      1  0.5149930000000  0.6059850000000  0.5087750000000 1.0
C      1  0.4840720000000  0.5172680000000  0.4037460000000 1.0
C      1  0.4145460000000  0.4267920000000  0.4975230000000 1.0
C      1  0.4419380000000  0.5528520000000  0.5716880000000 1.0
C      1  0.3962140000000  0.5195550000000  0.4898870000000 1.0
C      1  0.3929780000000  0.4879670000000  0.4935840000000 1.0
C      1  0.4351320000000  0.4374410000000  0.5599910000000 1.0
C      1  0.4444090000000  0.5138170000000  0.5800390000000 1.0
C      1  0.4554050000000  0.4471020000000  0.5838660000000 1.0
C      1  0.5350280000000  0.4960150000000  0.5871440000000 1.0
C      1  0.5483640000000  0.4801030000000  0.4625880000000 1.0
C      1  0.4137750000000  0.4997830000000  0.4271770000000 1.0
C      1  0.5554460000000  0.4528860000000  0.5827220000000 1.0
C      1  0.4703200000000  0.5289030000000  0.5862060000000 1.0
C      1  0.3941350000000  0.5301840000000  0.4597810000000 1.0
C      1  0.4745500000000  0.5988700000000  0.4876750000000 1.0
C      1  0.5731920000000  0.4331050000000  0.5426250000000 1.0
C      1  0.5001270000000  0.4059700000000  0.5372160000000 1.0
C      1  0.5432460000000  0.5380180000000  0.4086760000000 1.0
C      1  0.4909710000000  0.5412220000000  0.4538680000000 1.0
C      1  0.4488440000000  0.5850920000000  0.4390810000000 1.0
C      1  0.5344150000000  0.5248180000000  0.6012470000000 1.0
C      1  0.5489050000000  0.4195060000000  0.5141590000000 1.0
C      1  0.5132660000000  0.5957150000000  0.4569690000000 1.0
C      1  0.4381450000000  0.5318530000000  0.5110610000000 1.0
C      1  0.5334270000000  0.5403500000000  0.4946560000000 1.0
C      1  0.4206490000000  0.4540060000000  0.5105840000000 1.0
C      1  0.5088010000000  0.4447910000000  0.4025740000000 1.0
C      1  0.4852510000000  0.4566050000000  0.3889930000000 1.0
C      1  0.4872630000000  0.5784460000000  0.5565460000000 1.0
C      1  0.4457500000000  0.4118000000000  0.5152470000000 1.0
C      1  0.4933340000000  0.4020540000000  0.4747630000000 1.0
C      1  0.5416680000000  0.5714250000000  0.4433490000000 1.0
C      1  0.5476420000000  0.5341250000000  0.4661380000000 1.0
C      1  0.5417030000000  0.6047280000000  0.4511630000000 1.0
C      1  0.5945300000000  0.4591470000000  0.4448140000000 1.0
C      1  0.5654180000000  0.5267550000000  0.5324980000000 1.0
C      1  0.5786260000000  0.5487480000000  0.5117620000000 1.0
C      1  0.4591450000000  0.4714760000000  0.6006220000000 1.0
C      1  0.5146390000000  0.5107620000000  0.4097130000000 1.0
C      1  0.4252630000000  0.4665760000000  0.5663700000000 1.0
C      1  0.4934900000000  0.5660470000000  0.4749800000000 1.0
C      1  0.4270170000000  0.4460710000000  0.4720160000000 1.0
C      1  0.5051630000000  0.4439590000000  0.5963780000000 1.0
C      1  0.5113510000000  0.5694020000000  0.5241010000000 1.0
C      1  0.4877800000000  0.5074230000000  0.5224480000000 1.0
C      1  0.6036580000000  0.4535010000000  0.5165350000000 1.0
C      1  0.4402140000000  0.5667120000000  0.5344290000000 1.0
C      1  0.4882760000000  0.5124970000000  0.6068680000000 1.0
C      1  0.5330100000000  0.5556050000000  0.5429970000000 1.0
C      1  0.5432710000000  0.4948050000000  0.4895680000000 1.0
C      1  0.5163700000000  0.5240500000000  0.4624000000000 1.0
C      1  0.5089240000000  0.5708770000000  0.4339150000000 1.0
C      1  0.4234160000000  0.5857220000000  0.4512670000000 1.0
C      1  0.4407790000000  0.4246470000000  0.4520830000000 1.0
C      1  0.5521160000000  0.4316140000000  0.5605060000000 1.0
C      1  0.6086660000000  0.5258740000000  0.5249270000000 1.0
C      1  0.5133720000000  0.5022640000000  0.5636540000000 1.0
C      1  0.5848130000000  0.4330240000000  0.4604110000000 1.0
C      1  0.4837540000000  0.5559950000000  0.5327450000000 1.0
C      1  0.5531680000000  0.4277770000000  0.4365810000000 1.0
C      1  0.4733390000000  0.4378750000000  0.4959230000000 1.0
C      1  0.4936220000000  0.4791190000000  0.5714180000000 1.0
C      1  0.5539560000000  0.4739270000000  0.4110320000000 1.0
C      1  0.5728170000000  0.5297760000000  0.5655820000000 1.0
C      1  0.5220330000000  0.4687410000000  0.4902650000000 1.0
C      1  0.4694140000000  0.5755830000000  0.4560050000000 1.0
C      1  0.5516480000000  0.5428740000000  0.5844080000000 1.0
C      1  0.5220490000000  0.5938640000000  0.5460730000000 1.0
C      1  0.4973420000000  0.4883700000000  0.4275810000000 1.0
C      1  0.5742560000000  0.4673240000000  0.5222270000000 1.0
C      1  0.5005940000000  0.5286360000000  0.5712570000000 1.0
C      1  0.4452280000000  0.4836860000000  0.3994500000000 1.0
C      1  0.4735460000000  0.4084180000000  0.5541150000000 1.0
C      1  0.5938480000000  0.4575240000000  0.5491600000000 1.0
C      1  0.5919030000000  0.5237900000000  0.4956010000000 1.0
C      1  0.4786240000000  0.4846260000000  0.3994380000000 1.0
C      1  0.5735120000000  0.5552570000000  0.4726600000000 1.0
C      1  0.5863900000000  0.4890060000000  0.4540090000000 1.0
C      1  0.5176480000000  0.5042240000000  0.5330680000000 1.0
C      1  0.4938090000000  0.5015690000000  0.4574050000000 1.0
C      1  0.5585120000000  0.5727520000000  0.5484090000000 1.0
C      1  0.4017410000000  0.4742200000000  0.5162620000000 1.0
C      1  0.5120840000000  0.5449270000000  0.4116660000000 1.0
C      1  0.4489680000000  0.4708700000000  0.4619100000000 1.0
C      1  0.4086550000000  0.4911320000000  0.5396840000000 1.0
C      1  0.4731900000000  0.4481260000000  0.5555200000000 1.0
C      1  0.5581400000000  0.4596790000000  0.4479780000000 1.0
C      1  0.6205920000000  0.5015770000000  0.5123750000000 1.0
C      1  0.4377560000000  0.4089750000000  0.4819120000000 1.0
C      1  0.5258980000000  0.4638160000000  0.5932270000000 1.0
C      1  0.4309330000000  0.4508350000000  0.4325750000000 1.0
C      1  0.5224660000000  0.4185170000000  0.4319630000000 1.0
C      1  0.5205520000000  0.4469270000000  0.4493520000000 1.0
C      1  0.4419640000000  0.5234500000000  0.4605760000000 1.0
C      1  0.5305230000000  0.3975360000000  0.5244780000000 1.0
C      1  0.5086450000000  0.5342110000000  0.6098810000000 1.0
C      1  0.3961180000000  0.5075260000000  0.5660180000000 1.0
C      1  0.4671510000000  0.5613510000000  0.5925400000000 1.0
C      1  0.4926410000000  0.4114430000000  0.4425040000000 1.0
C      1  0.4629810000000  0.5811110000000  0.5051520000000 1.0
C      1  0.5472230000000  0.3992810000000  0.4769730000000 1.0
C      1  0.4939730000000  0.4628180000000  0.4493870000000 1.0
C      1  0.5989830000000  0.5580790000000  0.4750120000000 1.0
C      1  0.4142820000000  0.4750970000000  0.4418790000000 1.0
C      1  0.4087030000000  0.4805990000000  0.4687300000000 1.0
C      1  0.5976520000000  0.5195810000000  0.4643340000000 1.0
C      1  0.5722330000000  0.5254960000000  0.4460820000000 1.0
C      1  0.5422170000000  0.5941020000000  0.5187980000000 1.0
C      1  0.4193490000000  0.5521160000000  0.4911640000000 1.0
C      1  0.5456590000000  0.5054480000000  0.4055850000000 1.0
C      1  0.5576980000000  0.5746340000000  0.5044060000000 1.0
C      1  0.5822210000000  0.4710870000000  0.5758190000000 1.0
C      1  0.4773400000000  0.4837940000000  0.5042810000000 1.0
C      1  0.4394650000000  0.4906840000000  0.5373210000000 1.0
C      1  0.5491640000000  0.4538420000000  0.5164640000000 1.0
C      1  0.5230470000000  0.5491260000000  0.5712440000000 1.0
C      1  0.4641290000000  0.5122550000000  0.5423120000000 1.0
C      1  0.4647790000000  0.4530160000000  0.4376590000000 1.0
C      1  0.5201890000000  0.4140210000000  0.4869200000000 1.0
C      1  0.5311350000000  0.4666670000000  0.5603060000000 1.0
C      1  0.4793390000000  0.4573170000000  0.5233520000000 1.0
C      1  0.4840890000000  0.5609650000000  0.4127720000000 1.0
C      1  0.4582240000000  0.5940550000000  0.5349700000000 1.0
C      1  0.4603730000000  0.4987750000000  0.4524300000000 1.0
C      1  0.5664020000000  0.4986130000000  0.4302330000000 1.0
C      1  0.4390370000000  0.4560520000000  0.4029640000000 1.0
C      1  0.5453740000000  0.5729110000000  0.4749840000000 1.0
C      1  0.5684980000000  0.4969550000000  0.5290760000000 1.0
C      1  0.4583200000000  0.5409930000000  0.5443660000000 1.0
C      1  0.5269250000000  0.4762950000000  0.5209920000000 1.0
C      1  0.4628100000000  0.5498110000000  0.4993040000000 1.0
C      1  0.5737500000000  0.4488510000000  0.4196990000000 1.0
C      1  0.5576170000000  0.5493870000000  0.4306050000000 1.0
C      1  0.4489390000000  0.4582310000000  0.4935200000000 1.0
C      1  0.5023750000000  0.6041240000000  0.4826950000000 1.0
C      1  0.5129100000000  0.5787470000000  0.5753860000000 1.0
C      1  0.5215370000000  0.4363710000000  0.5229240000000 1.0
C      1  0.4549280000000  0.5431720000000  0.4104140000000 1.0
C      1  0.4571800000000  0.5820990000000  0.5671520000000 1.0
C      1  0.4511180000000  0.5132350000000  0.3968520000000 1.0
C      1  0.4661460000000  0.4805880000000  0.5537510000000 1.0
C      1  0.6008930000000  0.5337050000000  0.5493910000000 1.0
C      1  0.4269390000000  0.5058730000000  0.4828820000000 1.0
C      1  0.5802500000000  0.4295810000000  0.5104450000000 1.0
C      1  0.4825320000000  0.4310410000000  0.4194220000000 1.0
C      1  0.4717190000000  0.5252490000000  0.4340580000000 1.0
C      1  0.3988300000000  0.5383280000000  0.5139590000000 1.0
C      1  0.4137070000000  0.5630290000000  0.5291610000000 1.0
C      1  0.6046030000000  0.4822320000000  0.5014170000000 1.0
C      1  0.4485700000000  0.4175270000000  0.5426400000000 1.0
C      1  0.4703470000000  0.4244340000000  0.4647870000000 1.0
C      1  0.4394940000000  0.4859330000000  0.5830950000000 1.0
C      1  0.5239500000000  0.4246640000000  0.5530900000000 1.0
C      1  0.5353660000000  0.5294560000000  0.5250640000000 1.0
END
