TITL C-2778422-5617-33 -0.233731036918419 125000 -460.366750154392 0 0 79 (C1) n - 1
REM
REM in /home/nfs/bkarasulu/CARBON/AIRSS/Generating-Clusters/REBO/Only-C1/SD-CG/HFTN-CG
REM
REM
REM
REM
REM
REM ./C.cell (11c1c37f851c82e70ff6c80c92926a4b)
REM
REM compiler GCC version 9.2.1 20190827 (Red Hat 9.2.1-1)
REM options -cpp -mtune=generic -march=x86-64 -g -O0 -fpre-include=/usr/include/finclude/math-vector-fortran.h
REM seed 822768918 -1824148253 1071701688 -1532620626 -2011945732 -1226689690 -1862150708 372832418 -894410425 753217653 -1660095093 26937140 1613052594 566717221 -228896789 -1690874500 -928198525 1060304172 1940290065 583933905 -857017858 -2066923060 -1484214715 505921416 -1036945984 1416148253 78828528 2106249409 -1081833258 -1405998746 820728676 -1866431627 92616224
REM
CELL 1.54180   50.00000   50.00000   50.00000   90.00000   90.00000   90.00000
LATT -1
SFAC C  
C      1  0.4147020000000  0.4804900000000  0.5283030000000 1.0
C      1  0.4202240000000  0.4567160000000  0.5045720000000 1.0
C      1  0.4521550000000  0.4395040000000  0.4691800000000 1.0
C      1  0.4959540000000  0.5060410000000  0.5672930000000 1.0
C      1  0.5382000000000  0.4531410000000  0.5045550000000 1.0
C      1  0.4690540000000  0.4151110000000  0.5660040000000 1.0
C      1  0.4485600000000  0.4857760000000  0.4806440000000 1.0
C      1  0.5010320000000  0.4846290000000  0.5339440000000 1.0
C      1  0.5020160000000  0.4305510000000  0.5330680000000 1.0
C      1  0.4355900000000  0.5308890000000  0.4693060000000 1.0
C      1  0.5298900000000  0.4478560000000  0.4719090000000 1.0
C      1  0.4560450000000  0.4972120000000  0.5095260000000 1.0
C      1  0.5643220000000  0.5392640000000  0.4467580000000 1.0
C      1  0.4584570000000  0.4663390000000  0.4096070000000 1.0
C      1  0.4933260000000  0.4765660000000  0.4880720000000 1.0
C      1  0.4604460000000  0.4544930000000  0.5376570000000 1.0
C      1  0.4484640000000  0.5518560000000  0.5482320000000 1.0
C      1  0.4292180000000  0.5339620000000  0.4984040000000 1.0
C      1  0.5578720000000  0.5471600000000  0.5230620000000 1.0
C      1  0.5754060000000  0.5449280000000  0.4945040000000 1.0
C      1  0.4714030000000  0.5655290000000  0.5482560000000 1.0
C      1  0.5311910000000  0.5182820000000  0.4209900000000 1.0
C      1  0.4980520000000  0.4196280000000  0.4549720000000 1.0
C      1  0.4927740000000  0.5987030000000  0.5059950000000 1.0
C      1  0.4372630000000  0.4594970000000  0.4819950000000 1.0
C      1  0.4656230000000  0.5404640000000  0.4601960000000 1.0
C      1  0.4431490000000  0.5046690000000  0.5713940000000 1.0
C      1  0.5854200000000  0.5439530000000  0.4647230000000 1.0
C      1  0.5170840000000  0.5377430000000  0.4384170000000 1.0
C      1  0.4747320000000  0.4685270000000  0.4302620000000 1.0
C      1  0.4846410000000  0.5353470000000  0.4330280000000 1.0
C      1  0.4911160000000  0.5173720000000  0.4609030000000 1.0
C      1  0.5967680000000  0.5243860000000  0.5090770000000 1.0
C      1  0.4917510000000  0.4948160000000  0.4350570000000 1.0
C      1  0.5128830000000  0.5165190000000  0.5394400000000 1.0
C      1  0.5277150000000  0.5661990000000  0.5054270000000 1.0
C      1  0.4158260000000  0.4973290000000  0.5554570000000 1.0
C      1  0.5463340000000  0.5225280000000  0.5375950000000 1.0
C      1  0.4723060000000  0.4780500000000  0.5281710000000 1.0
C      1  0.5245230000000  0.4951060000000  0.5709840000000 1.0
C      1  0.4960830000000  0.5086220000000  0.4880040000000 1.0
C      1  0.5427180000000  0.4869240000000  0.5042990000000 1.0
C      1  0.5178440000000  0.4935610000000  0.4205030000000 1.0
C      1  0.4989710000000  0.5716110000000  0.5464270000000 1.0
C      1  0.5587600000000  0.4886980000000  0.4776460000000 1.0
C      1  0.5591670000000  0.4987320000000  0.5263130000000 1.0
C      1  0.5907800000000  0.5012040000000  0.5217780000000 1.0
C      1  0.5557800000000  0.4669910000000  0.4621630000000 1.0
C      1  0.4610690000000  0.3978810000000  0.5840650000000 1.0
C      1  0.4702060000000  0.5029750000000  0.5757030000000 1.0
C      1  0.4775500000000  0.4334450000000  0.5467860000000 1.0
C      1  0.5160820000000  0.5631130000000  0.5671880000000 1.0
C      1  0.6123650000000  0.5447670000000  0.4589860000000 1.0
C      1  0.4327840000000  0.4525310000000  0.5332500000000 1.0
C      1  0.5315400000000  0.5441340000000  0.5791790000000 1.0
C      1  0.5089450000000  0.5805950000000  0.5207620000000 1.0
C      1  0.4463980000000  0.5052010000000  0.4590170000000 1.0
C      1  0.5594290000000  0.5239420000000  0.4229100000000 1.0
C      1  0.5003890000000  0.4556360000000  0.4720280000000 1.0
C      1  0.4674450000000  0.5658460000000  0.4792780000000 1.0
C      1  0.4580240000000  0.5449980000000  0.4991910000000 1.0
C      1  0.5032850000000  0.4186690000000  0.4869490000000 1.0
C      1  0.5434160000000  0.5532810000000  0.4863190000000 1.0
C      1  0.5298150000000  0.4680460000000  0.4189060000000 1.0
C      1  0.5286620000000  0.4733370000000  0.5501970000000 1.0
C      1  0.5165900000000  0.5007140000000  0.5095480000000 1.0
C      1  0.4324630000000  0.5263170000000  0.5487220000000 1.0
C      1  0.5401430000000  0.4522560000000  0.4396290000000 1.0
C      1  0.5404770000000  0.5196380000000  0.5681570000000 1.0
C      1  0.4283560000000  0.5105850000000  0.5202640000000 1.0
C      1  0.4619410000000  0.5094990000000  0.4352180000000 1.0
C      1  0.4760910000000  0.5911070000000  0.4857540000000 1.0
C      1  0.5156000000000  0.4309810000000  0.5085190000000 1.0
C      1  0.5377780000000  0.5460930000000  0.4586190000000 1.0
C      1  0.5488540000000  0.4611440000000  0.5343360000000 1.0
C      1  0.5781430000000  0.4734100000000  0.5361510000000 1.0
C      1  0.4737840000000  0.5218200000000  0.5039840000000 1.0
C      1  0.4720240000000  0.4172130000000  0.4757360000000 1.0
C      1  0.4787610000000  0.4473520000000  0.4505780000000 1.0
END
