TITL C-2778424-3986-961 -0.00126368173694901 125000 -693.948899054874 0 0 119 (C1) n - 1
REM
REM in /home/nfs/bkarasulu/CARBON/AIRSS/Generating-Clusters/REBO/Only-C1/SD-CG/HFTN-CG
REM
REM
REM
REM
REM
REM ./C.cell (11c1c37f851c82e70ff6c80c92926a4b)
REM
REM compiler GCC version 9.2.1 20190827 (Red Hat 9.2.1-1)
REM options -cpp -mtune=generic -march=x86-64 -g -O0 -fpre-include=/usr/include/finclude/math-vector-fortran.h
REM seed 1598977032 987354732 1313356262 597680093 -875089698 1294645787 -272833076 764555784 -987125040 -11863504 1312541842 -113944804 422153956 1845348719 3274916 447707362 -191879079 1207506307 -433145127 985032800 -735684323 755591758 -2050213616 -1340515008 -1590817807 1393352331 -1881593243 -367488496 -1673782649 -1835707487 -1288651620 1229839529 836644242
REM
CELL 1.54180   50.00000   50.00000   50.00000   90.00000   90.00000   90.00000
LATT -1
SFAC C  
C      1  0.4502250000000  0.4281540000000  0.4672720000000 1.0
C      1  0.5519790000000  0.4197490000000  0.4709040000000 1.0
C      1  0.5154450000000  0.5263910000000  0.5379890000000 1.0
C      1  0.4777920000000  0.4599970000000  0.4948260000000 1.0
C      1  0.5359940000000  0.4452220000000  0.5550630000000 1.0
C      1  0.5197030000000  0.4606030000000  0.5294370000000 1.0
C      1  0.4589950000000  0.5505350000000  0.5829110000000 1.0
C      1  0.5419840000000  0.4509410000000  0.4802700000000 1.0
C      1  0.5285970000000  0.4092860000000  0.5163070000000 1.0
C      1  0.5493270000000  0.4991650000000  0.4641430000000 1.0
C      1  0.5022270000000  0.4312230000000  0.5359460000000 1.0
C      1  0.5323240000000  0.5015840000000  0.5922780000000 1.0
C      1  0.5286940000000  0.4135330000000  0.5492390000000 1.0
C      1  0.4689930000000  0.5782830000000  0.4279540000000 1.0
C      1  0.5213990000000  0.4391430000000  0.5018200000000 1.0
C      1  0.4742160000000  0.5054350000000  0.5090490000000 1.0
C      1  0.4642320000000  0.4778800000000  0.4307230000000 1.0
C      1  0.4238030000000  0.5312430000000  0.4282760000000 1.0
C      1  0.5302060000000  0.5316620000000  0.4405190000000 1.0
C      1  0.4575700000000  0.4683540000000  0.5395100000000 1.0
C      1  0.5403180000000  0.4739320000000  0.5052920000000 1.0
C      1  0.5018930000000  0.5063330000000  0.4285510000000 1.0
C      1  0.4792670000000  0.5281750000000  0.4311670000000 1.0
C      1  0.4524930000000  0.5182820000000  0.4235670000000 1.0
C      1  0.4994400000000  0.4876290000000  0.4572430000000 1.0
C      1  0.4456130000000  0.4798800000000  0.4807590000000 1.0
C      1  0.5481870000000  0.5606220000000  0.5300190000000 1.0
C      1  0.5516680000000  0.5649030000000  0.5002220000000 1.0
C      1  0.5507420000000  0.4692770000000  0.4556050000000 1.0
C      1  0.5412020000000  0.5040230000000  0.4969270000000 1.0
C      1  0.5645360000000  0.5171400000000  0.5122280000000 1.0
C      1  0.5589820000000  0.5333590000000  0.5411140000000 1.0
C      1  0.5148110000000  0.5931830000000  0.4642420000000 1.0
C      1  0.4225420000000  0.4870330000000  0.5036660000000 1.0
C      1  0.5592970000000  0.5153380000000  0.4188900000000 1.0
C      1  0.4313890000000  0.4846920000000  0.5764410000000 1.0
C      1  0.5953740000000  0.4928570000000  0.5184940000000 1.0
C      1  0.5872780000000  0.4497420000000  0.4873820000000 1.0
C      1  0.5059570000000  0.5693080000000  0.4158380000000 1.0
C      1  0.4272900000000  0.4990500000000  0.4310730000000 1.0
C      1  0.5956850000000  0.5159310000000  0.4992490000000 1.0
C      1  0.4952040000000  0.5478040000000  0.5096440000000 1.0
C      1  0.4799300000000  0.5410200000000  0.4586980000000 1.0
C      1  0.4802300000000  0.5560920000000  0.5642120000000 1.0
C      1  0.4730520000000  0.4434060000000  0.4488630000000 1.0
C      1  0.5077410000000  0.4855030000000  0.5460310000000 1.0
C      1  0.5668350000000  0.5166200000000  0.4457950000000 1.0
C      1  0.4654480000000  0.5566770000000  0.5046310000000 1.0
C      1  0.4714940000000  0.4565860000000  0.5615590000000 1.0
C      1  0.4938070000000  0.4334340000000  0.4290750000000 1.0
C      1  0.5459320000000  0.5903760000000  0.4779270000000 1.0
C      1  0.4214270000000  0.4629210000000  0.5235490000000 1.0
C      1  0.6006190000000  0.5313500000000  0.4769520000000 1.0
C      1  0.4656680000000  0.4303960000000  0.5021250000000 1.0
C      1  0.4963930000000  0.4172990000000  0.5064540000000 1.0
C      1  0.5066250000000  0.4592270000000  0.4177490000000 1.0
C      1  0.5246650000000  0.4272750000000  0.4327960000000 1.0
C      1  0.4869680000000  0.5187820000000  0.4839480000000 1.0
C      1  0.5708740000000  0.4263270000000  0.4928740000000 1.0
C      1  0.5612570000000  0.5614130000000  0.4674740000000 1.0
C      1  0.5268920000000  0.5197050000000  0.4104840000000 1.0
C      1  0.4866610000000  0.5234850000000  0.6122530000000 1.0
C      1  0.4375780000000  0.5327070000000  0.5207970000000 1.0
C      1  0.4795860000000  0.4935250000000  0.6067790000000 1.0
C      1  0.5228870000000  0.4523640000000  0.5861660000000 1.0
C      1  0.5588040000000  0.4781070000000  0.5507790000000 1.0
C      1  0.4422540000000  0.4558320000000  0.4400160000000 1.0
C      1  0.4656430000000  0.4156870000000  0.5317880000000 1.0
C      1  0.4498300000000  0.4967570000000  0.5940060000000 1.0
C      1  0.3901550000000  0.5211850000000  0.5118890000000 1.0
C      1  0.4685050000000  0.5699930000000  0.4551280000000 1.0
C      1  0.4247870000000  0.4482140000000  0.4679720000000 1.0
C      1  0.4588340000000  0.5268140000000  0.5994790000000 1.0
C      1  0.4171330000000  0.5129300000000  0.5206270000000 1.0
C      1  0.5796970000000  0.5382440000000  0.4595760000000 1.0
C      1  0.4560560000000  0.4887250000000  0.4579540000000 1.0
C      1  0.4100340000000  0.5428210000000  0.4749660000000 1.0
C      1  0.5606620000000  0.4589430000000  0.5267350000000 1.0
C      1  0.5355640000000  0.4579510000000  0.4308160000000 1.0
C      1  0.5401320000000  0.5576150000000  0.4448570000000 1.0
C      1  0.5014880000000  0.5423640000000  0.4118980000000 1.0
C      1  0.4399780000000  0.5661320000000  0.4650300000000 1.0
C      1  0.4189530000000  0.5516190000000  0.4471750000000 1.0
C      1  0.5544330000000  0.4618100000000  0.5775690000000 1.0
C      1  0.5760010000000  0.5037050000000  0.5420500000000 1.0
C      1  0.5242450000000  0.5740820000000  0.5392200000000 1.0
C      1  0.5203660000000  0.5112010000000  0.4635580000000 1.0
C      1  0.4297380000000  0.4730870000000  0.5505670000000 1.0
C      1  0.4642630000000  0.5244020000000  0.5281440000000 1.0
C      1  0.4069160000000  0.4937160000000  0.4758910000000 1.0
C      1  0.4810210000000  0.5836680000000  0.5002160000000 1.0
C      1  0.5093260000000  0.5415310000000  0.4728460000000 1.0
C      1  0.4353990000000  0.5525760000000  0.4954670000000 1.0
C      1  0.5186030000000  0.5453040000000  0.5664420000000 1.0
C      1  0.5081260000000  0.4782870000000  0.5982770000000 1.0
C      1  0.4849660000000  0.5892150000000  0.4727300000000 1.0
C      1  0.4795410000000  0.4282240000000  0.5584550000000 1.0
C      1  0.5564380000000  0.4284860000000  0.5178460000000 1.0
C      1  0.5221820000000  0.5779200000000  0.4374280000000 1.0
C      1  0.5873280000000  0.4670250000000  0.5105350000000 1.0
C      1  0.5365280000000  0.5007220000000  0.5465970000000 1.0
C      1  0.5065940000000  0.5760980000000  0.5167440000000 1.0
C      1  0.5425660000000  0.5241170000000  0.5687520000000 1.0
C      1  0.3948450000000  0.5199760000000  0.4826730000000 1.0
C      1  0.4920410000000  0.4726340000000  0.5708590000000 1.0
C      1  0.4182130000000  0.4774610000000  0.4517760000000 1.0
C      1  0.5139680000000  0.5195930000000  0.5056240000000 1.0
C      1  0.5402040000000  0.4097280000000  0.4480730000000 1.0
C      1  0.5067680000000  0.5311070000000  0.5934840000000 1.0
C      1  0.4841010000000  0.5346160000000  0.5455470000000 1.0
C      1  0.4390260000000  0.4511150000000  0.4979730000000 1.0
C      1  0.5061080000000  0.5741640000000  0.5643020000000 1.0
C      1  0.4707220000000  0.4784290000000  0.5148640000000 1.0
C      1  0.5816300000000  0.4607550000000  0.4614140000000 1.0
C      1  0.5084870000000  0.4243430000000  0.5744250000000 1.0
C      1  0.5063510000000  0.5077880000000  0.5715880000000 1.0
C      1  0.5236550000000  0.5643330000000  0.4806500000000 1.0
C      1  0.4863340000000  0.4647450000000  0.4681730000000 1.0
C      1  0.4890150000000  0.4807400000000  0.4193080000000 1.0
END
