TITL C-2778437-8639-133 0.00210918934777697 125000 -978.672841784222 0 0 169 (C1) n - 1
REM
REM in /home/nfs/bkarasulu/CARBON/AIRSS/Generating-Clusters/REBO/Only-C1/SD-CG/HFTN-CG
REM
REM
REM
REM
REM
REM ./C.cell (11c1c37f851c82e70ff6c80c92926a4b)
REM
REM compiler GCC version 9.2.1 20190827 (Red Hat 9.2.1-1)
REM options -cpp -mtune=generic -march=x86-64 -g -O0 -fpre-include=/usr/include/finclude/math-vector-fortran.h
REM seed -464990332 699199121 1505983031 81765005 797106770 595868072 1095058379 -486527297 -1016741029 -76473531 -439334835 -88810967 348142621 -1194630 -1781497196 -814399049 1675657535 1812784345 -1142547959 1035661320 841927984 -1910385019 1181905328 -870895273 1896279985 1490749698 88425943 -1592709038 628362054 -1507202368 -47816037 603623299 876105988
REM
CELL 1.54180   50.00000   50.00000   50.00000   90.00000   90.00000   90.00000
LATT -1
SFAC C  
C      1  0.5710970000000  0.5563750000000  0.5666550000000 1.0
C      1  0.5287680000000  0.5431660000000  0.5939460000000 1.0
C      1  0.4378660000000  0.5358590000000  0.4178330000000 1.0
C      1  0.5466160000000  0.5734860000000  0.4439890000000 1.0
C      1  0.4543380000000  0.5802650000000  0.5172640000000 1.0
C      1  0.5013730000000  0.4857740000000  0.5995610000000 1.0
C      1  0.4678220000000  0.4084920000000  0.5251030000000 1.0
C      1  0.3964630000000  0.4604420000000  0.5563690000000 1.0
C      1  0.5438640000000  0.4153940000000  0.5263300000000 1.0
C      1  0.5038340000000  0.5328450000000  0.5850030000000 1.0
C      1  0.5696690000000  0.4213920000000  0.4844900000000 1.0
C      1  0.6053440000000  0.4950780000000  0.4848950000000 1.0
C      1  0.5712760000000  0.4762470000000  0.5060020000000 1.0
C      1  0.4392720000000  0.5666580000000  0.4830800000000 1.0
C      1  0.5054310000000  0.5229070000000  0.5533940000000 1.0
C      1  0.4486650000000  0.4134540000000  0.4681890000000 1.0
C      1  0.5864080000000  0.4404830000000  0.4688970000000 1.0
C      1  0.4984150000000  0.5740680000000  0.4453110000000 1.0
C      1  0.5631390000000  0.5881850000000  0.5269100000000 1.0
C      1  0.5395580000000  0.4354320000000  0.5536550000000 1.0
C      1  0.5349020000000  0.4914020000000  0.5442900000000 1.0
C      1  0.4067300000000  0.5488870000000  0.4580230000000 1.0
C      1  0.5865350000000  0.5591510000000  0.4808220000000 1.0
C      1  0.4119730000000  0.5245730000000  0.4347420000000 1.0
C      1  0.5179030000000  0.4340540000000  0.4257620000000 1.0
C      1  0.5610140000000  0.5021590000000  0.4872590000000 1.0
C      1  0.4927350000000  0.4449240000000  0.4094180000000 1.0
C      1  0.4119110000000  0.5280650000000  0.5482150000000 1.0
C      1  0.4583720000000  0.5938580000000  0.4909990000000 1.0
C      1  0.4837400000000  0.4808980000000  0.4236910000000 1.0
C      1  0.4297770000000  0.4841680000000  0.4193890000000 1.0
C      1  0.5380870000000  0.5403980000000  0.4466500000000 1.0
C      1  0.5339570000000  0.5308490000000  0.4148650000000 1.0
C      1  0.4055150000000  0.5638330000000  0.4865340000000 1.0
C      1  0.5845850000000  0.4741520000000  0.5444790000000 1.0
C      1  0.5493980000000  0.4439430000000  0.6031380000000 1.0
C      1  0.5253370000000  0.6344710000000  0.4709720000000 1.0
C      1  0.4563790000000  0.4746120000000  0.5465650000000 1.0
C      1  0.5041740000000  0.5425970000000  0.4455040000000 1.0
C      1  0.4973020000000  0.4378000000000  0.4519480000000 1.0
C      1  0.4454030000000  0.4554050000000  0.5239840000000 1.0
C      1  0.4798380000000  0.5056110000000  0.5555840000000 1.0
C      1  0.5702420000000  0.5292800000000  0.5012110000000 1.0
C      1  0.4727700000000  0.6142850000000  0.4681930000000 1.0
C      1  0.5779430000000  0.5778490000000  0.5492650000000 1.0
C      1  0.4634180000000  0.4204530000000  0.4400150000000 1.0
C      1  0.5298570000000  0.4933320000000  0.5960550000000 1.0
C      1  0.5080340000000  0.4600340000000  0.5530160000000 1.0
C      1  0.5099120000000  0.5193060000000  0.4920220000000 1.0
C      1  0.4722210000000  0.5860600000000  0.4544890000000 1.0
C      1  0.4785590000000  0.5620780000000  0.4778620000000 1.0
C      1  0.5714900000000  0.4220830000000  0.5123940000000 1.0
C      1  0.4070340000000  0.4946700000000  0.5182660000000 1.0
C      1  0.4021620000000  0.5184510000000  0.4727290000000 1.0
C      1  0.4536210000000  0.5198400000000  0.5710130000000 1.0
C      1  0.4202610000000  0.4319570000000  0.5041820000000 1.0
C      1  0.5438990000000  0.5221250000000  0.6060540000000 1.0
C      1  0.4696680000000  0.5928490000000  0.5424530000000 1.0
C      1  0.5691960000000  0.5508510000000  0.4556570000000 1.0
C      1  0.4462230000000  0.5803750000000  0.4398140000000 1.0
C      1  0.4469650000000  0.4277370000000  0.5397230000000 1.0
C      1  0.4886310000000  0.4784750000000  0.5696540000000 1.0
C      1  0.5633330000000  0.4935620000000  0.5327690000000 1.0
C      1  0.5303960000000  0.4974210000000  0.4460600000000 1.0
C      1  0.5505450000000  0.5530420000000  0.4969530000000 1.0
C      1  0.5490240000000  0.4644700000000  0.4830930000000 1.0
C      1  0.4587370000000  0.4694610000000  0.4424080000000 1.0
C      1  0.4597520000000  0.5121980000000  0.4751390000000 1.0
C      1  0.4881800000000  0.5584660000000  0.5503580000000 1.0
C      1  0.5136980000000  0.6112640000000  0.4759000000000 1.0
C      1  0.4696950000000  0.4544230000000  0.4999700000000 1.0
C      1  0.5110970000000  0.5153850000000  0.4622090000000 1.0
C      1  0.5680090000000  0.5037460000000  0.5936420000000 1.0
C      1  0.4593890000000  0.4645810000000  0.5767940000000 1.0
C      1  0.4407740000000  0.4950920000000  0.5242990000000 1.0
C      1  0.5323390000000  0.4567230000000  0.4553410000000 1.0
C      1  0.5737150000000  0.5202170000000  0.5284400000000 1.0
C      1  0.4241790000000  0.4327760000000  0.4740150000000 1.0
C      1  0.5359120000000  0.4594390000000  0.4119770000000 1.0
C      1  0.5134740000000  0.4452940000000  0.4789880000000 1.0
C      1  0.4905300000000  0.4052460000000  0.4449850000000 1.0
C      1  0.4321590000000  0.5382740000000  0.5014840000000 1.0
C      1  0.6145170000000  0.4807970000000  0.5369710000000 1.0
C      1  0.5393820000000  0.5398600000000  0.5242990000000 1.0
C      1  0.5708910000000  0.5762640000000  0.5022430000000 1.0
C      1  0.4895050000000  0.5466550000000  0.4036960000000 1.0
C      1  0.5421180000000  0.4175420000000  0.4760240000000 1.0
C      1  0.4826840000000  0.5186690000000  0.4344300000000 1.0
C      1  0.4197650000000  0.4814830000000  0.5608210000000 1.0
C      1  0.4810980000000  0.4186370000000  0.5756710000000 1.0
C      1  0.4176810000000  0.5008350000000  0.4535460000000 1.0
C      1  0.4443850000000  0.4891330000000  0.4578500000000 1.0
C      1  0.4523030000000  0.5070690000000  0.4232100000000 1.0
C      1  0.5340160000000  0.5124250000000  0.5685910000000 1.0
C      1  0.5576210000000  0.4851120000000  0.4059060000000 1.0
C      1  0.4636530000000  0.5345000000000  0.3973010000000 1.0
C      1  0.5245760000000  0.4503990000000  0.5256550000000 1.0
C      1  0.4816920000000  0.5086590000000  0.4953690000000 1.0
C      1  0.4175520000000  0.4793610000000  0.4870360000000 1.0
C      1  0.5380620000000  0.4672130000000  0.5658070000000 1.0
C      1  0.5596420000000  0.4857390000000  0.4574710000000 1.0
C      1  0.5749210000000  0.4455390000000  0.5544860000000 1.0
C      1  0.5061530000000  0.4893890000000  0.5261510000000 1.0
C      1  0.5078620000000  0.5331490000000  0.5233140000000 1.0
C      1  0.5003460000000  0.5572690000000  0.5000490000000 1.0
C      1  0.4884030000000  0.4921040000000  0.4558100000000 1.0
C      1  0.5020840000000  0.4921350000000  0.3902300000000 1.0
C      1  0.4728560000000  0.3912710000000  0.4652480000000 1.0
C      1  0.4597470000000  0.5117460000000  0.6000500000000 1.0
C      1  0.4888390000000  0.6093010000000  0.4972220000000 1.0
C      1  0.5328120000000  0.4272930000000  0.5950520000000 1.0
C      1  0.4195370000000  0.4649980000000  0.4361250000000 1.0
C      1  0.4450950000000  0.5687610000000  0.5472820000000 1.0
C      1  0.4276880000000  0.4482140000000  0.5590790000000 1.0
C      1  0.4675610000000  0.4819450000000  0.6029670000000 1.0
C      1  0.5259410000000  0.5632130000000  0.4840480000000 1.0
C      1  0.5380280000000  0.5631540000000  0.5452890000000 1.0
C      1  0.4584040000000  0.5495870000000  0.5148910000000 1.0
C      1  0.4547470000000  0.5517750000000  0.5712190000000 1.0
C      1  0.5315240000000  0.4762550000000  0.5075570000000 1.0
C      1  0.5916690000000  0.5253440000000  0.4765560000000 1.0
C      1  0.4727800000000  0.5017590000000  0.3987820000000 1.0
C      1  0.4163350000000  0.4621440000000  0.5146830000000 1.0
C      1  0.5337260000000  0.5638460000000  0.4149510000000 1.0
C      1  0.4838110000000  0.4640880000000  0.5294200000000 1.0
C      1  0.4710120000000  0.5397880000000  0.5368470000000 1.0
C      1  0.5928380000000  0.4926600000000  0.4540590000000 1.0
C      1  0.3935780000000  0.5476350000000  0.5060680000000 1.0
C      1  0.5872970000000  0.4444870000000  0.5241670000000 1.0
C      1  0.4676470000000  0.4445410000000  0.4260310000000 1.0
C      1  0.5622040000000  0.4400950000000  0.4499300000000 1.0
C      1  0.5296920000000  0.5928010000000  0.5316770000000 1.0
C      1  0.5412940000000  0.5599430000000  0.5752060000000 1.0
C      1  0.6008840000000  0.4643330000000  0.4701340000000 1.0
C      1  0.5767060000000  0.5200140000000  0.4459110000000 1.0
C      1  0.4937970000000  0.4072620000000  0.5471210000000 1.0
C      1  0.5222630000000  0.5851040000000  0.4624720000000 1.0
C      1  0.4560530000000  0.5412340000000  0.4674150000000 1.0
C      1  0.4841770000000  0.3784340000000  0.4872430000000 1.0
C      1  0.5021460000000  0.4648020000000  0.3907960000000 1.0
C      1  0.5028710000000  0.5722550000000  0.5289330000000 1.0
C      1  0.5041430000000  0.5682510000000  0.4148200000000 1.0
C      1  0.5653420000000  0.4218600000000  0.5724630000000 1.0
C      1  0.4366900000000  0.5538570000000  0.4443410000000 1.0
C      1  0.5143710000000  0.4733930000000  0.4320560000000 1.0
C      1  0.5138320000000  0.4210100000000  0.5703800000000 1.0
C      1  0.5628720000000  0.4645140000000  0.4309290000000 1.0
C      1  0.4909020000000  0.3897530000000  0.5117390000000 1.0
C      1  0.5173220000000  0.3969700000000  0.5258250000000 1.0
C      1  0.4230880000000  0.5478060000000  0.5328530000000 1.0
C      1  0.5371700000000  0.4185470000000  0.4458530000000 1.0
C      1  0.4740430000000  0.5021570000000  0.5241670000000 1.0
C      1  0.5360670000000  0.5098480000000  0.5079940000000 1.0
C      1  0.5064760000000  0.5198100000000  0.4095100000000 1.0
C      1  0.5240760000000  0.4279820000000  0.5016170000000 1.0
C      1  0.4805100000000  0.5639790000000  0.5789800000000 1.0
C      1  0.4893240000000  0.5153610000000  0.6023470000000 1.0
C      1  0.4188180000000  0.4589830000000  0.4638190000000 1.0
C      1  0.4855930000000  0.4626700000000  0.4726580000000 1.0
C      1  0.4346750000000  0.5078960000000  0.4933230000000 1.0
C      1  0.6026800000000  0.4712150000000  0.5090660000000 1.0
C      1  0.4558240000000  0.4336100000000  0.5716790000000 1.0
C      1  0.5637240000000  0.5270650000000  0.5717890000000 1.0
C      1  0.5545620000000  0.5101680000000  0.4262930000000 1.0
C      1  0.4975560000000  0.6038390000000  0.5261430000000 1.0
C      1  0.4270310000000  0.5078530000000  0.5611930000000 1.0
C      1  0.4532740000000  0.4246340000000  0.5000180000000 1.0
C      1  0.5547880000000  0.4726980000000  0.5922800000000 1.0
C      1  0.3969440000000  0.5192690000000  0.5009030000000 1.0
END
