TITL C-2778425-5191-76 7.49540654635837e-05 125000 -937.761786787657 0 0 158 (C1) n - 1
REM
REM in /home/nfs/bkarasulu/CARBON/AIRSS/Generating-Clusters/REBO/Only-C1/SD-CG/HFTN-CG
REM
REM
REM
REM
REM
REM ./C.cell (11c1c37f851c82e70ff6c80c92926a4b)
REM
REM compiler GCC version 9.2.1 20190827 (Red Hat 9.2.1-1)
REM options -cpp -mtune=generic -march=x86-64 -g -O0 -fpre-include=/usr/include/finclude/math-vector-fortran.h
REM seed -261696052 1901225819 -952516882 -1906536663 1556954590 328349790 2033602877 -1282039647 29748583 709337583 -2042894395 -1068045615 -463881853 553607491 561503547 -1572242511 -1113223741 536754077 -231934771 -1910005508 -1625813792 -700061587 -1442766742 1075591732 1994216178 398313553 -1925238219 -173051343 86314964 167106531 1940717457 -250659756 675711892
REM
CELL 1.54180   50.00000   50.00000   50.00000   90.00000   90.00000   90.00000
LATT -1
SFAC C  
C      1  0.4994970000000  0.4036350000000  0.4503330000000 1.0
C      1  0.5482310000000  0.5196600000000  0.5460730000000 1.0
C      1  0.5428350000000  0.4982690000000  0.5909950000000 1.0
C      1  0.5023060000000  0.5003210000000  0.4785740000000 1.0
C      1  0.5249860000000  0.5267790000000  0.4418180000000 1.0
C      1  0.4663090000000  0.4125460000000  0.5054150000000 1.0
C      1  0.4255010000000  0.5161170000000  0.5588290000000 1.0
C      1  0.4623730000000  0.5681470000000  0.5040380000000 1.0
C      1  0.5789180000000  0.4545060000000  0.4896620000000 1.0
C      1  0.4778690000000  0.4696420000000  0.5770580000000 1.0
C      1  0.4996920000000  0.6038620000000  0.5284910000000 1.0
C      1  0.4064070000000  0.5534490000000  0.4511270000000 1.0
C      1  0.5715730000000  0.5153500000000  0.4539600000000 1.0
C      1  0.3980620000000  0.4778830000000  0.4839770000000 1.0
C      1  0.4864340000000  0.6069900000000  0.4973150000000 1.0
C      1  0.6075470000000  0.4913390000000  0.5000170000000 1.0
C      1  0.4731280000000  0.5340700000000  0.5219130000000 1.0
C      1  0.5777650000000  0.4330220000000  0.5314360000000 1.0
C      1  0.5779070000000  0.5638620000000  0.4752890000000 1.0
C      1  0.5305720000000  0.5004470000000  0.4119840000000 1.0
C      1  0.4965970000000  0.4279990000000  0.5061130000000 1.0
C      1  0.4624610000000  0.4382130000000  0.4623230000000 1.0
C      1  0.5316540000000  0.5914230000000  0.5248700000000 1.0
C      1  0.4617970000000  0.5905170000000  0.4798880000000 1.0
C      1  0.4471870000000  0.5386430000000  0.4255900000000 1.0
C      1  0.5556620000000  0.4560970000000  0.5074990000000 1.0
C      1  0.3914880000000  0.5019110000000  0.5244280000000 1.0
C      1  0.5604270000000  0.5836540000000  0.4858500000000 1.0
C      1  0.4759170000000  0.5047910000000  0.4946210000000 1.0
C      1  0.4603180000000  0.4475920000000  0.5492580000000 1.0
C      1  0.4479390000000  0.5332640000000  0.4592490000000 1.0
C      1  0.4424490000000  0.4277690000000  0.4950030000000 1.0
C      1  0.4946900000000  0.4701750000000  0.4060890000000 1.0
C      1  0.4888690000000  0.4898900000000  0.5289550000000 1.0
C      1  0.4213540000000  0.4629170000000  0.5219240000000 1.0
C      1  0.4728800000000  0.4728370000000  0.5038400000000 1.0
C      1  0.4869300000000  0.4047270000000  0.5687910000000 1.0
C      1  0.5016190000000  0.5097810000000  0.4518420000000 1.0
C      1  0.5474250000000  0.4077800000000  0.5305050000000 1.0
C      1  0.5300850000000  0.4187140000000  0.5742760000000 1.0
C      1  0.4486420000000  0.5389700000000  0.4988200000000 1.0
C      1  0.4293040000000  0.4540830000000  0.5462750000000 1.0
C      1  0.3982360000000  0.4760110000000  0.5127500000000 1.0
C      1  0.5436200000000  0.5282730000000  0.4130850000000 1.0
C      1  0.5008970000000  0.4472930000000  0.4684290000000 1.0
C      1  0.5056560000000  0.5793400000000  0.5515500000000 1.0
C      1  0.5886880000000  0.5461270000000  0.4945350000000 1.0
C      1  0.5617540000000  0.4171860000000  0.5057860000000 1.0
C      1  0.5184090000000  0.5427390000000  0.4858040000000 1.0
C      1  0.5130510000000  0.4530320000000  0.4228350000000 1.0
C      1  0.5637440000000  0.5347810000000  0.5125890000000 1.0
C      1  0.5335890000000  0.5834450000000  0.4400200000000 1.0
C      1  0.5769300000000  0.5684120000000  0.5295130000000 1.0
C      1  0.4477480000000  0.4788390000000  0.4733110000000 1.0
C      1  0.4867220000000  0.5572600000000  0.4429360000000 1.0
C      1  0.5168620000000  0.4815910000000  0.5914680000000 1.0
C      1  0.5410190000000  0.4834600000000  0.4310370000000 1.0
C      1  0.4879580000000  0.4943700000000  0.5956330000000 1.0
C      1  0.5792500000000  0.5078630000000  0.4999510000000 1.0
C      1  0.5477160000000  0.4997310000000  0.5236210000000 1.0
C      1  0.4360400000000  0.4518340000000  0.4464810000000 1.0
C      1  0.5392020000000  0.4703090000000  0.4601670000000 1.0
C      1  0.4174290000000  0.4633420000000  0.4695210000000 1.0
C      1  0.5104310000000  0.5666390000000  0.5203490000000 1.0
C      1  0.4893230000000  0.5372910000000  0.3761830000000 1.0
C      1  0.4784660000000  0.4465460000000  0.4885200000000 1.0
C      1  0.5226500000000  0.4899320000000  0.4947130000000 1.0
C      1  0.4694210000000  0.4769110000000  0.4487550000000 1.0
C      1  0.5578450000000  0.5845910000000  0.5147210000000 1.0
C      1  0.5578500000000  0.4359980000000  0.4515580000000 1.0
C      1  0.5492360000000  0.5053990000000  0.4899950000000 1.0
C      1  0.5381730000000  0.4425450000000  0.4313940000000 1.0
C      1  0.5481320000000  0.5504150000000  0.5872760000000 1.0
C      1  0.4130800000000  0.5651270000000  0.4811610000000 1.0
C      1  0.6027560000000  0.4637460000000  0.5042750000000 1.0
C      1  0.4445730000000  0.5237760000000  0.5834410000000 1.0
C      1  0.5751780000000  0.5283500000000  0.4230810000000 1.0
C      1  0.4586220000000  0.4805340000000  0.5403330000000 1.0
C      1  0.4796190000000  0.4203460000000  0.4412440000000 1.0
C      1  0.4828400000000  0.5194360000000  0.5741240000000 1.0
C      1  0.4863910000000  0.5168500000000  0.3943740000000 1.0
C      1  0.5732300000000  0.5494110000000  0.4498810000000 1.0
C      1  0.4585280000000  0.4960680000000  0.5688330000000 1.0
C      1  0.4875230000000  0.5354250000000  0.4907400000000 1.0
C      1  0.4627210000000  0.5081910000000  0.6066610000000 1.0
C      1  0.5904410000000  0.4820490000000  0.5506300000000 1.0
C      1  0.6089800000000  0.5230690000000  0.4921630000000 1.0
C      1  0.4668670000000  0.4655180000000  0.4102580000000 1.0
C      1  0.4719470000000  0.5842320000000  0.5316420000000 1.0
C      1  0.5488440000000  0.5567580000000  0.4304940000000 1.0
C      1  0.5146080000000  0.5561250000000  0.4348290000000 1.0
C      1  0.5450390000000  0.4210880000000  0.4784620000000 1.0
C      1  0.4048460000000  0.5073750000000  0.4776300000000 1.0
C      1  0.4987900000000  0.4396350000000  0.5370280000000 1.0
C      1  0.4353700000000  0.5557780000000  0.5343710000000 1.0
C      1  0.5679700000000  0.4828410000000  0.5770700000000 1.0
C      1  0.4781420000000  0.5024740000000  0.4391770000000 1.0
C      1  0.4010060000000  0.5076140000000  0.5508020000000 1.0
C      1  0.4652640000000  0.3929930000000  0.5534780000000 1.0
C      1  0.5637790000000  0.4744530000000  0.5309010000000 1.0
C      1  0.4383910000000  0.5103200000000  0.4827080000000 1.0
C      1  0.3915780000000  0.5210860000000  0.5024670000000 1.0
C      1  0.5889730000000  0.5401410000000  0.5342710000000 1.0
C      1  0.5252430000000  0.4428040000000  0.5150630000000 1.0
C      1  0.3943910000000  0.5484090000000  0.5029420000000 1.0
C      1  0.5246180000000  0.4745250000000  0.5246520000000 1.0
C      1  0.5247530000000  0.4748560000000  0.5591170000000 1.0
C      1  0.4224750000000  0.4158930000000  0.4824060000000 1.0
C      1  0.4422980000000  0.4582810000000  0.5002150000000 1.0
C      1  0.4730260000000  0.5501620000000  0.4691710000000 1.0
C      1  0.4910630000000  0.5496190000000  0.5394090000000 1.0
C      1  0.4979900000000  0.5559050000000  0.5721010000000 1.0
C      1  0.4491660000000  0.5021260000000  0.5154380000000 1.0
C      1  0.5408510000000  0.5486340000000  0.5419620000000 1.0
C      1  0.4918930000000  0.4582500000000  0.4442960000000 1.0
C      1  0.5277920000000  0.4496200000000  0.4738620000000 1.0
C      1  0.5362210000000  0.5248110000000  0.5838620000000 1.0
C      1  0.4296200000000  0.4836670000000  0.4363560000000 1.0
C      1  0.4710330000000  0.4198270000000  0.5354650000000 1.0
C      1  0.4956830000000  0.4661050000000  0.5507370000000 1.0
C      1  0.4970890000000  0.3843360000000  0.4761780000000 1.0
C      1  0.5140710000000  0.3982590000000  0.5621280000000 1.0
C      1  0.4164290000000  0.5329900000000  0.4351830000000 1.0
C      1  0.5054050000000  0.4960150000000  0.4001330000000 1.0
C      1  0.5539090000000  0.4609310000000  0.5579520000000 1.0
C      1  0.4495200000000  0.4875810000000  0.4156270000000 1.0
C      1  0.5251190000000  0.3994390000000  0.4707360000000 1.0
C      1  0.5113550000000  0.4340600000000  0.5889340000000 1.0
C      1  0.5369480000000  0.5933160000000  0.4697040000000 1.0
C      1  0.5429410000000  0.5273240000000  0.4679720000000 1.0
C      1  0.5181750000000  0.4545400000000  0.6051700000000 1.0
C      1  0.5682710000000  0.4855280000000  0.4509460000000 1.0
C      1  0.4421640000000  0.5651550000000  0.4698270000000 1.0
C      1  0.5537980000000  0.4297460000000  0.5556890000000 1.0
C      1  0.5264930000000  0.3900650000000  0.5378920000000 1.0
C      1  0.4816270000000  0.4365980000000  0.5737510000000 1.0
C      1  0.5122460000000  0.5261100000000  0.5636600000000 1.0
C      1  0.5949210000000  0.5161270000000  0.5496930000000 1.0
C      1  0.5473330000000  0.5650830000000  0.5636720000000 1.0
C      1  0.5108700000000  0.5155570000000  0.5327620000000 1.0
C      1  0.5313280000000  0.5342700000000  0.5129460000000 1.0
C      1  0.4733970000000  0.5925600000000  0.4307660000000 1.0
C      1  0.4643710000000  0.5654220000000  0.4226400000000 1.0
C      1  0.5106130000000  0.6120240000000  0.4744810000000 1.0
C      1  0.5689550000000  0.5125590000000  0.5644230000000 1.0
C      1  0.4425700000000  0.5255390000000  0.5354620000000 1.0
C      1  0.4938480000000  0.5743570000000  0.4973390000000 1.0
C      1  0.5108480000000  0.5724480000000  0.4709340000000 1.0
C      1  0.5762370000000  0.4558380000000  0.4612430000000 1.0
C      1  0.5980510000000  0.4545460000000  0.5318770000000 1.0
C      1  0.4861230000000  0.5935080000000  0.4597650000000 1.0
C      1  0.4745120000000  0.3852540000000  0.4928890000000 1.0
C      1  0.4595790000000  0.4415020000000  0.4256530000000 1.0
C      1  0.4653480000000  0.5488950000000  0.5735620000000 1.0
C      1  0.4181170000000  0.5648260000000  0.5149920000000 1.0
C      1  0.4150560000000  0.5063900000000  0.4465130000000 1.0
C      1  0.4632710000000  0.5155740000000  0.4143230000000 1.0
C      1  0.4554270000000  0.5682760000000  0.5502050000000 1.0
END
