TITL C-2778429-3646-1246 -0.00355533942823106 125000 -420.103209223707 0 0 72 (C1) n - 1
REM
REM in /home/nfs/bkarasulu/CARBON/AIRSS/Generating-Clusters/REBO/Only-C1/SD-CG/HFTN-CG
REM
REM
REM
REM
REM
REM ./C.cell (11c1c37f851c82e70ff6c80c92926a4b)
REM
REM compiler GCC version 9.2.1 20190827 (Red Hat 9.2.1-1)
REM options -cpp -mtune=generic -march=x86-64 -g -O0 -fpre-include=/usr/include/finclude/math-vector-fortran.h
REM seed 1458008413 -1642687302 250903660 1210414621 -1218219943 -154310784 -1973723232 801136833 -1930432273 -198577395 2102581546 740175141 719090943 1685060829 916419587 -2004003579 1623595885 -1695298101 -1633915904 -1700305177 218051528 1667225383 283654461 -1685963675 -784007855 1597211967 536525603 -151673675 112227106 -880679606 1879484454 -1361525432 -554051752
REM
CELL 1.54180   50.00000   50.00000   50.00000   90.00000   90.00000   90.00000
LATT -1
SFAC C  
C      1  0.5624950000000  0.5486920000000  0.5399650000000 1.0
C      1  0.5061900000000  0.4748790000000  0.4075250000000 1.0
C      1  0.4585070000000  0.5359510000000  0.4536930000000 1.0
C      1  0.4853760000000  0.4187720000000  0.4667960000000 1.0
C      1  0.4638960000000  0.4260480000000  0.5139450000000 1.0
C      1  0.4868190000000  0.5445540000000  0.4638430000000 1.0
C      1  0.4312170000000  0.5415810000000  0.5370960000000 1.0
C      1  0.4431130000000  0.5115170000000  0.4906360000000 1.0
C      1  0.5429960000000  0.4678410000000  0.4752880000000 1.0
C      1  0.5038960000000  0.5009120000000  0.3984370000000 1.0
C      1  0.4497220000000  0.5524570000000  0.5192120000000 1.0
C      1  0.5400180000000  0.4518880000000  0.5322690000000 1.0
C      1  0.4973900000000  0.5282580000000  0.4920770000000 1.0
C      1  0.5234440000000  0.4974980000000  0.5622200000000 1.0
C      1  0.5652640000000  0.4841830000000  0.4727960000000 1.0
C      1  0.5124720000000  0.5458680000000  0.4462380000000 1.0
C      1  0.4679290000000  0.5015890000000  0.5537810000000 1.0
C      1  0.4692260000000  0.4349940000000  0.4520180000000 1.0
C      1  0.5289620000000  0.5734310000000  0.4962150000000 1.0
C      1  0.4768310000000  0.5259060000000  0.5326640000000 1.0
C      1  0.4922220000000  0.5554960000000  0.5308130000000 1.0
C      1  0.5666220000000  0.4955380000000  0.5206230000000 1.0
C      1  0.4874330000000  0.5025010000000  0.5787420000000 1.0
C      1  0.5034340000000  0.4757490000000  0.5743420000000 1.0
C      1  0.4506870000000  0.5125980000000  0.5179780000000 1.0
C      1  0.4567590000000  0.5135310000000  0.4368940000000 1.0
C      1  0.4916200000000  0.4212930000000  0.5149610000000 1.0
C      1  0.4363650000000  0.4617750000000  0.4783100000000 1.0
C      1  0.4520830000000  0.4576400000000  0.4505450000000 1.0
C      1  0.4562680000000  0.4804380000000  0.4339820000000 1.0
C      1  0.4981500000000  0.4972420000000  0.4877090000000 1.0
C      1  0.5357920000000  0.5234800000000  0.4367910000000 1.0
C      1  0.5025350000000  0.4143360000000  0.4892680000000 1.0
C      1  0.5347080000000  0.5229670000000  0.5766770000000 1.0
C      1  0.5608720000000  0.4684760000000  0.5280270000000 1.0
C      1  0.4206540000000  0.4616910000000  0.5080880000000 1.0
C      1  0.5540980000000  0.5569560000000  0.4792850000000 1.0
C      1  0.5391930000000  0.4918500000000  0.4435410000000 1.0
C      1  0.5475010000000  0.5576280000000  0.5182590000000 1.0
C      1  0.5093110000000  0.4377300000000  0.5378880000000 1.0
C      1  0.4778520000000  0.4906800000000  0.4656640000000 1.0
C      1  0.4436140000000  0.4631890000000  0.5329560000000 1.0
C      1  0.4958260000000  0.4811670000000  0.5141040000000 1.0
C      1  0.4512400000000  0.4889120000000  0.4754160000000 1.0
C      1  0.5293500000000  0.5271170000000  0.5362860000000 1.0
C      1  0.4184510000000  0.4834330000000  0.5342150000000 1.0
C      1  0.5600580000000  0.5148680000000  0.5425330000000 1.0
C      1  0.5165510000000  0.4817380000000  0.4653350000000 1.0
C      1  0.5239820000000  0.5356200000000  0.5072040000000 1.0
C      1  0.4442190000000  0.4384930000000  0.5017310000000 1.0
C      1  0.5669730000000  0.5329670000000  0.4803860000000 1.0
C      1  0.5087490000000  0.5402560000000  0.5517900000000 1.0
C      1  0.4252900000000  0.5110150000000  0.5356160000000 1.0
C      1  0.4993860000000  0.5012520000000  0.5396810000000 1.0
C      1  0.5618290000000  0.5130980000000  0.4558290000000 1.0
C      1  0.5150960000000  0.4717290000000  0.4328250000000 1.0
C      1  0.4856220000000  0.4987180000000  0.4338140000000 1.0
C      1  0.4692140000000  0.5464440000000  0.4995120000000 1.0
C      1  0.5697990000000  0.5053050000000  0.4941940000000 1.0
C      1  0.5358970000000  0.4474900000000  0.4927830000000 1.0
C      1  0.4398350000000  0.5349500000000  0.4749940000000 1.0
C      1  0.5003510000000  0.5709370000000  0.5077810000000 1.0
C      1  0.5027780000000  0.5270460000000  0.5792320000000 1.0
C      1  0.5286220000000  0.5665880000000  0.4628030000000 1.0
C      1  0.5693850000000  0.5054750000000  0.5673770000000 1.0
C      1  0.5524660000000  0.5439330000000  0.5687700000000 1.0
C      1  0.4821530000000  0.5704400000000  0.4839390000000 1.0
C      1  0.5061700000000  0.5219100000000  0.4228520000000 1.0
C      1  0.5300730000000  0.4207440000000  0.4859440000000 1.0
C      1  0.4710640000000  0.4734760000000  0.5368560000000 1.0
C      1  0.4919330000000  0.4572530000000  0.5552690000000 1.0
C      1  0.5141050000000  0.4580230000000  0.5128780000000 1.0
END
