TITL C-2778436-5916-1163 0.00303564946425079 125000 -932.168564177683 0 0 157 (C1) n - 1
REM
REM in /home/nfs/bkarasulu/CARBON/AIRSS/Generating-Clusters/REBO/Only-C1/SD-CG/HFTN-CG
REM
REM
REM
REM
REM
REM ./C.cell (11c1c37f851c82e70ff6c80c92926a4b)
REM
REM compiler GCC version 9.2.1 20190827 (Red Hat 9.2.1-1)
REM options -cpp -mtune=generic -march=x86-64 -g -O0 -fpre-include=/usr/include/finclude/math-vector-fortran.h
REM seed -1523908314 576524721 443573171 -978252336 -1248855875 1815797111 -1641482122 1890472444 -663212704 1468650206 64536056 1488996282 -638200711 -1583118826 1227708215 1562651922 -1504273968 -1576137068 1597556556 1010641107 -504197510 1562300361 2106153163 1704632767 1042396261 -575005220 -537101442 -2082142714 1782203923 832851429 -754533223 945231039 2138373412
REM
CELL 1.54180   50.00000   50.00000   50.00000   90.00000   90.00000   90.00000
LATT -1
SFAC C  
C      1  0.5885050000000  0.5343860000000  0.4494120000000 1.0
C      1  0.4670170000000  0.5389330000000  0.5944970000000 1.0
C      1  0.5635930000000  0.5099220000000  0.4875270000000 1.0
C      1  0.4932410000000  0.4633750000000  0.4553850000000 1.0
C      1  0.5554860000000  0.4225590000000  0.4601690000000 1.0
C      1  0.5125890000000  0.3847380000000  0.5078910000000 1.0
C      1  0.5489750000000  0.4591670000000  0.4203640000000 1.0
C      1  0.5524740000000  0.4705200000000  0.4686800000000 1.0
C      1  0.5436570000000  0.3974400000000  0.5104980000000 1.0
C      1  0.5235570000000  0.5358520000000  0.4447610000000 1.0
C      1  0.4204180000000  0.4347110000000  0.5086740000000 1.0
C      1  0.4637180000000  0.5112400000000  0.5923550000000 1.0
C      1  0.4139250000000  0.5000400000000  0.5563260000000 1.0
C      1  0.6013550000000  0.5083780000000  0.5122620000000 1.0
C      1  0.4964520000000  0.5474310000000  0.4900420000000 1.0
C      1  0.4215750000000  0.5695910000000  0.4631240000000 1.0
C      1  0.5204460000000  0.5558190000000  0.5335690000000 1.0
C      1  0.4248210000000  0.5513300000000  0.5397830000000 1.0
C      1  0.4473740000000  0.4345160000000  0.4793870000000 1.0
C      1  0.6204110000000  0.4799860000000  0.5102710000000 1.0
C      1  0.5231360000000  0.4664530000000  0.4070120000000 1.0
C      1  0.4526990000000  0.5897440000000  0.5114640000000 1.0
C      1  0.4601910000000  0.4580020000000  0.3656130000000 1.0
C      1  0.4018440000000  0.5515150000000  0.4817420000000 1.0
C      1  0.5355200000000  0.4792170000000  0.5214410000000 1.0
C      1  0.4826950000000  0.5919150000000  0.5085170000000 1.0
C      1  0.4473350000000  0.4619220000000  0.5793270000000 1.0
C      1  0.4958740000000  0.5960250000000  0.4810650000000 1.0
C      1  0.5119300000000  0.4446490000000  0.4527540000000 1.0
C      1  0.5458980000000  0.5336360000000  0.4982260000000 1.0
C      1  0.5688090000000  0.5701740000000  0.4767760000000 1.0
C      1  0.4651220000000  0.5306450000000  0.4470070000000 1.0
C      1  0.4537930000000  0.5807770000000  0.4605490000000 1.0
C      1  0.4067480000000  0.4825680000000  0.5315170000000 1.0
C      1  0.4095840000000  0.5221530000000  0.5309850000000 1.0
C      1  0.4510820000000  0.4933290000000  0.5446720000000 1.0
C      1  0.5901320000000  0.4717570000000  0.5236440000000 1.0
C      1  0.5930050000000  0.5561760000000  0.4677930000000 1.0
C      1  0.4758300000000  0.4466570000000  0.5819360000000 1.0
C      1  0.4524390000000  0.4719280000000  0.4291460000000 1.0
C      1  0.5785220000000  0.4468010000000  0.5386030000000 1.0
C      1  0.5421480000000  0.4484610000000  0.4488790000000 1.0
C      1  0.5635760000000  0.5613210000000  0.5072330000000 1.0
C      1  0.4440810000000  0.4689380000000  0.5337890000000 1.0
C      1  0.5739280000000  0.5217920000000  0.5240800000000 1.0
C      1  0.4683700000000  0.5333640000000  0.4888280000000 1.0
C      1  0.5217170000000  0.5687200000000  0.4426600000000 1.0
C      1  0.5422430000000  0.5823330000000  0.4646870000000 1.0
C      1  0.4670590000000  0.5070040000000  0.4715050000000 1.0
C      1  0.5300330000000  0.4775510000000  0.5550490000000 1.0
C      1  0.4888240000000  0.5009090000000  0.5339480000000 1.0
C      1  0.5247250000000  0.4901030000000  0.4268120000000 1.0
C      1  0.5242780000000  0.5955560000000  0.4861430000000 1.0
C      1  0.4494530000000  0.5202270000000  0.5335800000000 1.0
C      1  0.5438450000000  0.4258920000000  0.5075570000000 1.0
C      1  0.4184350000000  0.4419050000000  0.4787470000000 1.0
C      1  0.4891960000000  0.5052120000000  0.4166830000000 1.0
C      1  0.5328070000000  0.4446980000000  0.5507310000000 1.0
C      1  0.4803900000000  0.5231610000000  0.5582730000000 1.0
C      1  0.4891160000000  0.4027760000000  0.5529940000000 1.0
C      1  0.4564880000000  0.4226770000000  0.4523730000000 1.0
C      1  0.4772480000000  0.4092080000000  0.4738940000000 1.0
C      1  0.4765830000000  0.4666710000000  0.3860420000000 1.0
C      1  0.3944720000000  0.4888120000000  0.4752320000000 1.0
C      1  0.4387860000000  0.4499030000000  0.5537920000000 1.0
C      1  0.4644750000000  0.4056740000000  0.5021700000000 1.0
C      1  0.4365570000000  0.4483410000000  0.4436920000000 1.0
C      1  0.6164570000000  0.4973390000000  0.5394970000000 1.0
C      1  0.5503470000000  0.5808820000000  0.5268200000000 1.0
C      1  0.5454850000000  0.5204460000000  0.4600570000000 1.0
C      1  0.5350670000000  0.4023680000000  0.4639070000000 1.0
C      1  0.4585920000000  0.5466720000000  0.4215130000000 1.0
C      1  0.4957920000000  0.4472880000000  0.5066480000000 1.0
C      1  0.5827670000000  0.4505440000000  0.5686270000000 1.0
C      1  0.4817150000000  0.5685450000000  0.4143870000000 1.0
C      1  0.5478060000000  0.5147050000000  0.4205620000000 1.0
C      1  0.4997050000000  0.4671900000000  0.5954570000000 1.0
C      1  0.5154240000000  0.4417870000000  0.5795660000000 1.0
C      1  0.4422750000000  0.4178550000000  0.5182850000000 1.0
C      1  0.5644770000000  0.4532900000000  0.5882360000000 1.0
C      1  0.5371470000000  0.5347400000000  0.6054780000000 1.0
C      1  0.5109750000000  0.5649310000000  0.5713350000000 1.0
C      1  0.4686620000000  0.4504480000000  0.4940000000000 1.0
C      1  0.5032420000000  0.4162490000000  0.5183920000000 1.0
C      1  0.5162960000000  0.5263930000000  0.4147240000000 1.0
C      1  0.4265660000000  0.4674130000000  0.5083090000000 1.0
C      1  0.5637560000000  0.4845730000000  0.4217680000000 1.0
C      1  0.5462180000000  0.5338380000000  0.5303310000000 1.0
C      1  0.5876970000000  0.5076770000000  0.4638090000000 1.0
C      1  0.5039250000000  0.5011280000000  0.4476220000000 1.0
C      1  0.4726230000000  0.5546850000000  0.5352780000000 1.0
C      1  0.4067620000000  0.5097420000000  0.4994240000000 1.0
C      1  0.5039700000000  0.5983460000000  0.5315960000000 1.0
C      1  0.5225030000000  0.4359230000000  0.4901450000000 1.0
C      1  0.4459980000000  0.4740400000000  0.4839450000000 1.0
C      1  0.5965200000000  0.4859420000000  0.4868190000000 1.0
C      1  0.4133550000000  0.4672250000000  0.4619490000000 1.0
C      1  0.5715050000000  0.5040720000000  0.5770350000000 1.0
C      1  0.4417170000000  0.4944990000000  0.5758170000000 1.0
C      1  0.4379200000000  0.4867300000000  0.4532270000000 1.0
C      1  0.4747370000000  0.4782420000000  0.4661020000000 1.0
C      1  0.5661150000000  0.4900120000000  0.5141510000000 1.0
C      1  0.4293600000000  0.5417030000000  0.4172320000000 1.0
C      1  0.5066190000000  0.4167530000000  0.4669110000000 1.0
C      1  0.5924320000000  0.5472410000000  0.5137210000000 1.0
C      1  0.5961810000000  0.5021590000000  0.5664860000000 1.0
C      1  0.5665830000000  0.5387450000000  0.4316100000000 1.0
C      1  0.5296200000000  0.5327100000000  0.5568690000000 1.0
C      1  0.4970580000000  0.5621050000000  0.5165830000000 1.0
C      1  0.4690060000000  0.4180430000000  0.5648050000000 1.0
C      1  0.4867260000000  0.5369590000000  0.4056100000000 1.0
C      1  0.3985900000000  0.5218170000000  0.4680170000000 1.0
C      1  0.4833690000000  0.3893570000000  0.5222750000000 1.0
C      1  0.5131600000000  0.5200180000000  0.6027600000000 1.0
C      1  0.6086120000000  0.5497140000000  0.4914370000000 1.0
C      1  0.5338600000000  0.4642540000000  0.5950630000000 1.0
C      1  0.4944310000000  0.5348130000000  0.4587110000000 1.0
C      1  0.4115380000000  0.5485970000000  0.5092730000000 1.0
C      1  0.4805650000000  0.5889340000000  0.4582400000000 1.0
C      1  0.4918190000000  0.4977740000000  0.5916910000000 1.0
C      1  0.4662640000000  0.4866480000000  0.4065430000000 1.0
C      1  0.4470980000000  0.4233560000000  0.5469460000000 1.0
C      1  0.3658600000000  0.4794490000000  0.4790170000000 1.0
C      1  0.5187230000000  0.5266440000000  0.4889290000000 1.0
C      1  0.5414930000000  0.5704830000000  0.5572270000000 1.0
C      1  0.5148060000000  0.5013420000000  0.4770680000000 1.0
C      1  0.6032550000000  0.4720500000000  0.5564550000000 1.0
C      1  0.4353510000000  0.5120810000000  0.4837190000000 1.0
C      1  0.5365310000000  0.3824780000000  0.4841000000000 1.0
C      1  0.4348250000000  0.5184070000000  0.4515680000000 1.0
C      1  0.4398200000000  0.5333610000000  0.5073490000000 1.0
C      1  0.4945220000000  0.5883670000000  0.5563520000000 1.0
C      1  0.4516220000000  0.5414720000000  0.5579290000000 1.0
C      1  0.4141450000000  0.5420610000000  0.4453090000000 1.0
C      1  0.4782860000000  0.5620370000000  0.5815650000000 1.0
C      1  0.5006350000000  0.4889280000000  0.5619190000000 1.0
C      1  0.5619390000000  0.4935040000000  0.4513200000000 1.0
C      1  0.4251370000000  0.5228430000000  0.3980080000000 1.0
C      1  0.5782600000000  0.4322620000000  0.4762750000000 1.0
C      1  0.5496160000000  0.4888210000000  0.5776950000000 1.0
C      1  0.5786940000000  0.4600520000000  0.4814740000000 1.0
C      1  0.5034100000000  0.5318940000000  0.5745030000000 1.0
C      1  0.4775690000000  0.5269510000000  0.5186190000000 1.0
C      1  0.5533890000000  0.5628420000000  0.4383460000000 1.0
C      1  0.4463410000000  0.5757910000000  0.5383980000000 1.0
C      1  0.4955740000000  0.4574090000000  0.5569930000000 1.0
C      1  0.4432420000000  0.5032750000000  0.3929170000000 1.0
C      1  0.4955560000000  0.5801180000000  0.4360300000000 1.0
C      1  0.5029080000000  0.4706090000000  0.5266060000000 1.0
C      1  0.5142810000000  0.4195110000000  0.5480940000000 1.0
C      1  0.5314790000000  0.4809610000000  0.4880820000000 1.0
C      1  0.4653780000000  0.5827260000000  0.5627540000000 1.0
C      1  0.4390700000000  0.5849640000000  0.4877490000000 1.0
C      1  0.5451390000000  0.5472070000000  0.5820180000000 1.0
C      1  0.5291980000000  0.5962900000000  0.5151700000000 1.0
C      1  0.5028500000000  0.4588320000000  0.3902770000000 1.0
C      1  0.5534730000000  0.4393330000000  0.5304260000000 1.0
END
