TITL C-2778428-5639-1018 0.0111115416524375 125000 -1150.70413361189 0 0 195 (C1) n - 1
REM
REM in /home/nfs/bkarasulu/CARBON/AIRSS/Generating-Clusters/REBO/Only-C1/SD-CG/HFTN-CG
REM
REM
REM
REM
REM
REM ./C.cell (11c1c37f851c82e70ff6c80c92926a4b)
REM
REM compiler GCC version 9.2.1 20190827 (Red Hat 9.2.1-1)
REM options -cpp -mtune=generic -march=x86-64 -g -O0 -fpre-include=/usr/include/finclude/math-vector-fortran.h
REM seed 1654677590 -113767433 -1082107763 -437592775 1568806649 825453483 1932579008 370696169 1347176186 1958309990 623333115 -223225370 2085545845 -2129938306 -364206905 119282989 -857000728 1117279931 1648901070 927065692 -773593348 -995794790 2109387237 -697897896 -343004779 559225157 -6386528 192662378 1784906850 -1601534657 -481405806 2036090168 -1930959410
REM
CELL 1.54180   50.00000   50.00000   50.00000   90.00000   90.00000   90.00000
LATT -1
SFAC C  
C      1  0.4692730000000  0.4925980000000  0.5262280000000 1.0
C      1  0.5550620000000  0.4249960000000  0.4137670000000 1.0
C      1  0.4222600000000  0.5471690000000  0.4607130000000 1.0
C      1  0.5306450000000  0.4079190000000  0.4520330000000 1.0
C      1  0.5376520000000  0.5411690000000  0.4510990000000 1.0
C      1  0.5575240000000  0.4776880000000  0.4984010000000 1.0
C      1  0.5104790000000  0.4168190000000  0.4328620000000 1.0
C      1  0.5233580000000  0.4615120000000  0.4858340000000 1.0
C      1  0.5086480000000  0.5706350000000  0.5525860000000 1.0
C      1  0.5066650000000  0.5375730000000  0.3943840000000 1.0
C      1  0.6064720000000  0.4765960000000  0.4615160000000 1.0
C      1  0.4847340000000  0.4775570000000  0.6077370000000 1.0
C      1  0.5134130000000  0.4624710000000  0.5607780000000 1.0
C      1  0.5616420000000  0.5616200000000  0.4444890000000 1.0
C      1  0.5913930000000  0.5496420000000  0.5351720000000 1.0
C      1  0.5262970000000  0.4158080000000  0.5226800000000 1.0
C      1  0.5751990000000  0.4974610000000  0.4141940000000 1.0
C      1  0.5028120000000  0.5519280000000  0.4961510000000 1.0
C      1  0.5509030000000  0.5419430000000  0.5253280000000 1.0
C      1  0.5318250000000  0.5256640000000  0.4230380000000 1.0
C      1  0.4988650000000  0.5251200000000  0.4315290000000 1.0
C      1  0.5507920000000  0.4588020000000  0.6322850000000 1.0
C      1  0.4841550000000  0.4455410000000  0.5693460000000 1.0
C      1  0.4684850000000  0.5223250000000  0.5339180000000 1.0
C      1  0.5778850000000  0.5179880000000  0.4852540000000 1.0
C      1  0.5973810000000  0.4506460000000  0.4728830000000 1.0
C      1  0.5848180000000  0.5294070000000  0.5609410000000 1.0
C      1  0.4344920000000  0.4920680000000  0.4108150000000 1.0
C      1  0.4845840000000  0.5022440000000  0.6200480000000 1.0
C      1  0.5899860000000  0.4898880000000  0.4961530000000 1.0
C      1  0.4911720000000  0.5827070000000  0.5864650000000 1.0
C      1  0.5341560000000  0.4715810000000  0.6149480000000 1.0
C      1  0.5948250000000  0.4797450000000  0.5600870000000 1.0
C      1  0.4061700000000  0.5397900000000  0.5490030000000 1.0
C      1  0.5122290000000  0.5458580000000  0.4668310000000 1.0
C      1  0.4486780000000  0.5229060000000  0.4075680000000 1.0
C      1  0.4897020000000  0.3805630000000  0.5067940000000 1.0
C      1  0.4278100000000  0.5140580000000  0.5114270000000 1.0
C      1  0.5675100000000  0.5498670000000  0.5785780000000 1.0
C      1  0.5154190000000  0.3781710000000  0.4878270000000 1.0
C      1  0.4880080000000  0.5064510000000  0.4579960000000 1.0
C      1  0.5523200000000  0.4912750000000  0.3902660000000 1.0
C      1  0.4695000000000  0.4033910000000  0.5321050000000 1.0
C      1  0.5443750000000  0.4170950000000  0.4988220000000 1.0
C      1  0.4496010000000  0.5677570000000  0.4811880000000 1.0
C      1  0.5557990000000  0.5861880000000  0.5456940000000 1.0
C      1  0.5160370000000  0.4324930000000  0.5492860000000 1.0
C      1  0.4648560000000  0.5842600000000  0.5042910000000 1.0
C      1  0.5260960000000  0.5104280000000  0.5814280000000 1.0
C      1  0.6055180000000  0.5086390000000  0.5190700000000 1.0
C      1  0.4617130000000  0.5412560000000  0.4635780000000 1.0
C      1  0.5546160000000  0.4721610000000  0.4168440000000 1.0
C      1  0.4702840000000  0.4236510000000  0.4796500000000 1.0
C      1  0.5317540000000  0.5583780000000  0.5934350000000 1.0
C      1  0.4576830000000  0.3927120000000  0.5016250000000 1.0
C      1  0.4401370000000  0.5740630000000  0.5625670000000 1.0
C      1  0.5992500000000  0.4895350000000  0.4314130000000 1.0
C      1  0.5285550000000  0.5722930000000  0.4960180000000 1.0
C      1  0.5077670000000  0.4098780000000  0.5707790000000 1.0
C      1  0.5933900000000  0.4569610000000  0.5395670000000 1.0
C      1  0.4209740000000  0.5264080000000  0.4266370000000 1.0
C      1  0.4438200000000  0.4774330000000  0.5113470000000 1.0
C      1  0.5662380000000  0.5149290000000  0.5162420000000 1.0
C      1  0.4152060000000  0.4300880000000  0.5316220000000 1.0
C      1  0.4717180000000  0.5997730000000  0.4421830000000 1.0
C      1  0.6128920000000  0.4453050000000  0.5191840000000 1.0
C      1  0.4453890000000  0.4351580000000  0.5323540000000 1.0
C      1  0.5102630000000  0.4607680000000  0.4558190000000 1.0
C      1  0.6029510000000  0.5099560000000  0.4551510000000 1.0
C      1  0.4496950000000  0.4383450000000  0.4992710000000 1.0
C      1  0.4878270000000  0.4797710000000  0.5498980000000 1.0
C      1  0.4172570000000  0.5231880000000  0.5720870000000 1.0
C      1  0.4663420000000  0.4983880000000  0.4334410000000 1.0
C      1  0.5676300000000  0.4384360000000  0.5441040000000 1.0
C      1  0.5284700000000  0.5144650000000  0.3918850000000 1.0
C      1  0.4924580000000  0.5811090000000  0.4431680000000 1.0
C      1  0.4378240000000  0.5625380000000  0.4398970000000 1.0
C      1  0.4557770000000  0.5962150000000  0.5516850000000 1.0
C      1  0.3952740000000  0.5158930000000  0.4320430000000 1.0
C      1  0.4482310000000  0.4387360000000  0.5849780000000 1.0
C      1  0.4803310000000  0.4522180000000  0.4308600000000 1.0
C      1  0.4309640000000  0.4247720000000  0.4555180000000 1.0
C      1  0.4876780000000  0.5491340000000  0.5562810000000 1.0
C      1  0.4797300000000  0.5219940000000  0.4043850000000 1.0
C      1  0.4019510000000  0.4407480000000  0.4640380000000 1.0
C      1  0.5725350000000  0.4224240000000  0.5139820000000 1.0
C      1  0.4951480000000  0.4184270000000  0.5184850000000 1.0
C      1  0.5219870000000  0.4834420000000  0.3785400000000 1.0
C      1  0.4468230000000  0.5952320000000  0.5233860000000 1.0
C      1  0.5773290000000  0.4808580000000  0.5245030000000 1.0
C      1  0.4194140000000  0.5832780000000  0.5221600000000 1.0
C      1  0.4647870000000  0.4631100000000  0.4806370000000 1.0
C      1  0.4635220000000  0.4682470000000  0.5857740000000 1.0
C      1  0.4553070000000  0.4218220000000  0.5621270000000 1.0
C      1  0.5081600000000  0.4601270000000  0.6084120000000 1.0
C      1  0.5631390000000  0.5090480000000  0.4587420000000 1.0
C      1  0.5367350000000  0.5189810000000  0.5571750000000 1.0
C      1  0.4619730000000  0.4175620000000  0.4539240000000 1.0
C      1  0.4613450000000  0.4580740000000  0.5473580000000 1.0
C      1  0.4351480000000  0.4583590000000  0.4516930000000 1.0
C      1  0.5154720000000  0.6201470000000  0.4833160000000 1.0
C      1  0.5420030000000  0.4932800000000  0.5995690000000 1.0
C      1  0.3885260000000  0.4754760000000  0.4936680000000 1.0
C      1  0.4171590000000  0.4320260000000  0.4919940000000 1.0
C      1  0.5386820000000  0.4772010000000  0.5339370000000 1.0
C      1  0.4356010000000  0.4046010000000  0.4837200000000 1.0
C      1  0.5068110000000  0.4372170000000  0.5910290000000 1.0
C      1  0.4378170000000  0.5278330000000  0.5919370000000 1.0
C      1  0.4916530000000  0.5790220000000  0.5093240000000 1.0
C      1  0.5310280000000  0.3983550000000  0.4784880000000 1.0
C      1  0.5252640000000  0.4358440000000  0.4107700000000 1.0
C      1  0.4792820000000  0.5988970000000  0.5677130000000 1.0
C      1  0.5314880000000  0.5951480000000  0.4737480000000 1.0
C      1  0.4877270000000  0.5508600000000  0.4483130000000 1.0
C      1  0.5195890000000  0.5881550000000  0.4462800000000 1.0
C      1  0.5923540000000  0.5466300000000  0.4832250000000 1.0
C      1  0.5473480000000  0.5033330000000  0.5373990000000 1.0
C      1  0.4930410000000  0.4961080000000  0.3899430000000 1.0
C      1  0.5527890000000  0.5635280000000  0.5074700000000 1.0
C      1  0.5474060000000  0.4593680000000  0.5583870000000 1.0
C      1  0.4264270000000  0.5056140000000  0.5445430000000 1.0
C      1  0.4587020000000  0.5240290000000  0.5040630000000 1.0
C      1  0.4785200000000  0.3987780000000  0.5639450000000 1.0
C      1  0.5294430000000  0.3949980000000  0.5488690000000 1.0
C      1  0.4207070000000  0.4693420000000  0.5289950000000 1.0
C      1  0.4229890000000  0.4753970000000  0.4306210000000 1.0
C      1  0.5869850000000  0.5395950000000  0.4502700000000 1.0
C      1  0.5338160000000  0.4822810000000  0.4619380000000 1.0
C      1  0.4151060000000  0.4687360000000  0.5548660000000 1.0
C      1  0.5651790000000  0.5221970000000  0.4299400000000 1.0
C      1  0.5741030000000  0.5702210000000  0.4901010000000 1.0
C      1  0.4341010000000  0.5417630000000  0.4924250000000 1.0
C      1  0.5697830000000  0.4455200000000  0.4587140000000 1.0
C      1  0.4580050000000  0.5523390000000  0.4193750000000 1.0
C      1  0.5486550000000  0.5724930000000  0.5696860000000 1.0
C      1  0.5598790000000  0.4062050000000  0.5416560000000 1.0
C      1  0.5256060000000  0.5449070000000  0.5450600000000 1.0
C      1  0.5002340000000  0.5247970000000  0.5356060000000 1.0
C      1  0.4784740000000  0.5045530000000  0.5683270000000 1.0
C      1  0.4053480000000  0.5222510000000  0.4765560000000 1.0
C      1  0.4243070000000  0.5013330000000  0.4619500000000 1.0
C      1  0.4915510000000  0.4100460000000  0.4896130000000 1.0
C      1  0.4437860000000  0.5894250000000  0.4480750000000 1.0
C      1  0.4982550000000  0.3848010000000  0.5395620000000 1.0
C      1  0.5562710000000  0.4175570000000  0.4438350000000 1.0
C      1  0.4850700000000  0.5607100000000  0.4096660000000 1.0
C      1  0.5688080000000  0.4797690000000  0.5738020000000 1.0
C      1  0.4600450000000  0.5551790000000  0.5734980000000 1.0
C      1  0.5246430000000  0.4661700000000  0.4265440000000 1.0
C      1  0.5088520000000  0.4880040000000  0.4158740000000 1.0
C      1  0.5121420000000  0.5026820000000  0.5185140000000 1.0
C      1  0.5355100000000  0.5738140000000  0.4282530000000 1.0
C      1  0.4018820000000  0.5851510000000  0.5017090000000 1.0
C      1  0.5159360000000  0.4694340000000  0.5134790000000 1.0
C      1  0.4828380000000  0.5267650000000  0.4848140000000 1.0
C      1  0.3890850000000  0.4668040000000  0.4659700000000 1.0
C      1  0.5621830000000  0.5833850000000  0.4673710000000 1.0
C      1  0.4822770000000  0.4604740000000  0.4042930000000 1.0
C      1  0.4500010000000  0.4870570000000  0.5606480000000 1.0
C      1  0.5716570000000  0.4485960000000  0.4245140000000 1.0
C      1  0.5510140000000  0.5346380000000  0.6012040000000 1.0
C      1  0.3963240000000  0.5044510000000  0.5017720000000 1.0
C      1  0.4889410000000  0.6260490000000  0.4811200000000 1.0
C      1  0.4762790000000  0.4653750000000  0.5111160000000 1.0
C      1  0.5977740000000  0.4356350000000  0.4975160000000 1.0
C      1  0.5184380000000  0.5635420000000  0.4092010000000 1.0
C      1  0.4882820000000  0.5344830000000  0.6097760000000 1.0
C      1  0.4178750000000  0.5658150000000  0.5456640000000 1.0
C      1  0.5088730000000  0.5889750000000  0.5306780000000 1.0
C      1  0.5078390000000  0.4561850000000  0.3917600000000 1.0
C      1  0.3981250000000  0.4878870000000  0.4454690000000 1.0
C      1  0.5379740000000  0.5192970000000  0.4759330000000 1.0
C      1  0.3951720000000  0.5155050000000  0.5328110000000 1.0
C      1  0.5796670000000  0.5753150000000  0.5346410000000 1.0
C      1  0.4463940000000  0.5184350000000  0.4471700000000 1.0
C      1  0.4969130000000  0.4488610000000  0.5259650000000 1.0
C      1  0.4556280000000  0.5262920000000  0.5616050000000 1.0
C      1  0.4815100000000  0.4728180000000  0.4573490000000 1.0
C      1  0.3707830000000  0.5271110000000  0.4264730000000 1.0
C      1  0.4829530000000  0.4243510000000  0.4361220000000 1.0
C      1  0.5662590000000  0.5105100000000  0.5827610000000 1.0
C      1  0.4400170000000  0.6000630000000  0.4774440000000 1.0
C      1  0.4003440000000  0.4529670000000  0.5111660000000 1.0
C      1  0.6017410000000  0.5360360000000  0.5126250000000 1.0
C      1  0.4991060000000  0.5158370000000  0.5857300000000 1.0
C      1  0.5511210000000  0.4461420000000  0.4869860000000 1.0
C      1  0.4646050000000  0.4853970000000  0.4025850000000 1.0
C      1  0.4359530000000  0.4778580000000  0.4793320000000 1.0
C      1  0.5622080000000  0.4779940000000  0.4556250000000 1.0
C      1  0.4600390000000  0.5458790000000  0.6043760000000 1.0
C      1  0.5341170000000  0.5009780000000  0.4972140000000 1.0
C      1  0.5044810000000  0.5610110000000  0.5989960000000 1.0
C      1  0.6007710000000  0.5045750000000  0.5475030000000 1.0
C      1  0.5355990000000  0.5997870000000  0.5300800000000 1.0
C      1  0.4658080000000  0.6160830000000  0.4681730000000 1.0
END
