TITL C-2778437-8639-157 0.00585723952726718 125000 -780.199503707636 0 0 136 (C1) n - 1
REM
REM in /home/nfs/bkarasulu/CARBON/AIRSS/Generating-Clusters/REBO/Only-C1/SD-CG/HFTN-CG
REM
REM
REM
REM
REM
REM ./C.cell (11c1c37f851c82e70ff6c80c92926a4b)
REM
REM compiler GCC version 9.2.1 20190827 (Red Hat 9.2.1-1)
REM options -cpp -mtune=generic -march=x86-64 -g -O0 -fpre-include=/usr/include/finclude/math-vector-fortran.h
REM seed -1265438248 140635744 -1629974100 -1994726211 971586574 433063370 279035924 -352388488 -488168846 -2034278897 126982906 1903720086 1969779154 1289196666 1438213491 -134581285 8113337 -1960897377 1638707654 1905807127 410409856 -1048243546 -2095494776 650219734 -11753044 -1805510085 1120542619 -677483637 1498733432 1723025235 757800645 1588195640 2082914082
REM
CELL 1.54180   50.00000   50.00000   50.00000   90.00000   90.00000   90.00000
LATT -1
SFAC C  
C      1  0.5671870000000  0.4449460000000  0.5313690000000 1.0
C      1  0.5361020000000  0.4775130000000  0.4918600000000 1.0
C      1  0.5099270000000  0.5046830000000  0.4757090000000 1.0
C      1  0.5487520000000  0.4251450000000  0.5154810000000 1.0
C      1  0.5356100000000  0.4681300000000  0.4120830000000 1.0
C      1  0.5048400000000  0.5251330000000  0.4359080000000 1.0
C      1  0.4124410000000  0.5131960000000  0.5154550000000 1.0
C      1  0.5622400000000  0.4581930000000  0.5584860000000 1.0
C      1  0.4588110000000  0.5599900000000  0.4344240000000 1.0
C      1  0.5853060000000  0.5000560000000  0.4995530000000 1.0
C      1  0.5040930000000  0.4575980000000  0.4115940000000 1.0
C      1  0.4414040000000  0.5754400000000  0.4218990000000 1.0
C      1  0.4826980000000  0.5231420000000  0.4838960000000 1.0
C      1  0.5006010000000  0.5385690000000  0.4062840000000 1.0
C      1  0.4577630000000  0.4467800000000  0.5492090000000 1.0
C      1  0.4275400000000  0.4365110000000  0.4417170000000 1.0
C      1  0.5662780000000  0.5299580000000  0.5772420000000 1.0
C      1  0.4868440000000  0.4684060000000  0.5849400000000 1.0
C      1  0.4764680000000  0.5025600000000  0.5074970000000 1.0
C      1  0.4580200000000  0.4134250000000  0.4450150000000 1.0
C      1  0.5003310000000  0.4339480000000  0.4308640000000 1.0
C      1  0.5800090000000  0.5504340000000  0.4782550000000 1.0
C      1  0.4825500000000  0.4129480000000  0.4289900000000 1.0
C      1  0.5515590000000  0.4525040000000  0.4954030000000 1.0
C      1  0.4752870000000  0.4110390000000  0.5254680000000 1.0
C      1  0.4508680000000  0.4809870000000  0.4467560000000 1.0
C      1  0.5416290000000  0.4935760000000  0.5980130000000 1.0
C      1  0.5343580000000  0.5324440000000  0.4086700000000 1.0
C      1  0.4473020000000  0.4843880000000  0.4767050000000 1.0
C      1  0.5326810000000  0.4678810000000  0.5334030000000 1.0
C      1  0.5901850000000  0.5320540000000  0.5025390000000 1.0
C      1  0.5253650000000  0.5141920000000  0.5045290000000 1.0
C      1  0.4368610000000  0.5646130000000  0.5264650000000 1.0
C      1  0.5143780000000  0.5077720000000  0.5662490000000 1.0
C      1  0.4481670000000  0.5177070000000  0.5694220000000 1.0
C      1  0.4948930000000  0.4819630000000  0.5361530000000 1.0
C      1  0.4645690000000  0.5722150000000  0.5448620000000 1.0
C      1  0.4324280000000  0.5818490000000  0.5002630000000 1.0
C      1  0.5557250000000  0.5077250000000  0.5147620000000 1.0
C      1  0.5635740000000  0.5017600000000  0.5812450000000 1.0
C      1  0.5314370000000  0.5552500000000  0.4467830000000 1.0
C      1  0.5461580000000  0.4871460000000  0.4299880000000 1.0
C      1  0.4793690000000  0.4784050000000  0.3997600000000 1.0
C      1  0.5044420000000  0.4857950000000  0.4295700000000 1.0
C      1  0.5009670000000  0.5112880000000  0.5242340000000 1.0
C      1  0.5471770000000  0.5509600000000  0.5583760000000 1.0
C      1  0.5085420000000  0.4768430000000  0.5639330000000 1.0
C      1  0.4268610000000  0.4653710000000  0.4296340000000 1.0
C      1  0.4937340000000  0.4348740000000  0.5376660000000 1.0
C      1  0.4899250000000  0.5613300000000  0.4281040000000 1.0
C      1  0.5268390000000  0.5760830000000  0.5206440000000 1.0
C      1  0.5960640000000  0.4728440000000  0.5171500000000 1.0
C      1  0.5112180000000  0.4476150000000  0.5165000000000 1.0
C      1  0.5937860000000  0.5193600000000  0.5342170000000 1.0
C      1  0.4086050000000  0.4922740000000  0.4704120000000 1.0
C      1  0.4074230000000  0.4856350000000  0.4443290000000 1.0
C      1  0.5875240000000  0.4895730000000  0.4693870000000 1.0
C      1  0.5013230000000  0.5337400000000  0.5808800000000 1.0
C      1  0.4378590000000  0.4700760000000  0.5642950000000 1.0
C      1  0.5229390000000  0.5380830000000  0.6036050000000 1.0
C      1  0.5068150000000  0.4770730000000  0.5043330000000 1.0
C      1  0.5173210000000  0.5467760000000  0.5100840000000 1.0
C      1  0.5701220000000  0.5728560000000  0.5029040000000 1.0
C      1  0.5252280000000  0.5328080000000  0.5474970000000 1.0
C      1  0.5488620000000  0.5460550000000  0.5026040000000 1.0
C      1  0.4095120000000  0.5169560000000  0.4840220000000 1.0
C      1  0.4273740000000  0.4334750000000  0.5208660000000 1.0
C      1  0.4238330000000  0.4590860000000  0.5368660000000 1.0
C      1  0.5232040000000  0.5941650000000  0.4923500000000 1.0
C      1  0.4760560000000  0.5254710000000  0.4448850000000 1.0
C      1  0.4189750000000  0.5387070000000  0.4696130000000 1.0
C      1  0.5548490000000  0.5707050000000  0.5334550000000 1.0
C      1  0.4393130000000  0.4261520000000  0.4707790000000 1.0
C      1  0.5181850000000  0.5077740000000  0.6060240000000 1.0
C      1  0.4852260000000  0.4413960000000  0.5686820000000 1.0
C      1  0.5312710000000  0.4545580000000  0.5639860000000 1.0
C      1  0.5148080000000  0.4780950000000  0.4581610000000 1.0
C      1  0.5516990000000  0.5313080000000  0.4712990000000 1.0
C      1  0.5334660000000  0.4270110000000  0.4642380000000 1.0
C      1  0.5036920000000  0.4067140000000  0.5116970000000 1.0
C      1  0.5259180000000  0.4124960000000  0.5314130000000 1.0
C      1  0.4591730000000  0.5326530000000  0.5431330000000 1.0
C      1  0.5356540000000  0.5010120000000  0.5407450000000 1.0
C      1  0.4177190000000  0.5405030000000  0.5291710000000 1.0
C      1  0.5942230000000  0.4925990000000  0.5431390000000 1.0
C      1  0.4474680000000  0.4140730000000  0.5267680000000 1.0
C      1  0.5140540000000  0.5816830000000  0.4416780000000 1.0
C      1  0.5351000000000  0.5891750000000  0.4674080000000 1.0
C      1  0.5157250000000  0.4272290000000  0.5604960000000 1.0
C      1  0.4957040000000  0.5808560000000  0.5338860000000 1.0
C      1  0.4681160000000  0.5591630000000  0.5147290000000 1.0
C      1  0.5758230000000  0.4830970000000  0.5633040000000 1.0
C      1  0.4893930000000  0.5065410000000  0.3988700000000 1.0
C      1  0.4952370000000  0.5612890000000  0.4616210000000 1.0
C      1  0.4998210000000  0.4480830000000  0.4616770000000 1.0
C      1  0.5663780000000  0.4579810000000  0.4588640000000 1.0
C      1  0.4992990000000  0.5615560000000  0.5612880000000 1.0
C      1  0.4253860000000  0.4984470000000  0.5675320000000 1.0
C      1  0.4233660000000  0.4395220000000  0.4931800000000 1.0
C      1  0.4897960000000  0.5478660000000  0.4988150000000 1.0
C      1  0.5390690000000  0.4541520000000  0.4574630000000 1.0
C      1  0.4638130000000  0.4486490000000  0.5152240000000 1.0
C      1  0.5201000000000  0.5043330000000  0.4053560000000 1.0
C      1  0.4709710000000  0.5258540000000  0.5914130000000 1.0
C      1  0.4192850000000  0.4694520000000  0.4888950000000 1.0
C      1  0.4495190000000  0.5390040000000  0.4567180000000 1.0
C      1  0.4679820000000  0.4453210000000  0.4508930000000 1.0
C      1  0.4735700000000  0.4741180000000  0.4958390000000 1.0
C      1  0.5828410000000  0.4617510000000  0.4884420000000 1.0
C      1  0.4760860000000  0.4974300000000  0.4369480000000 1.0
C      1  0.5176090000000  0.5376810000000  0.4713510000000 1.0
C      1  0.5015750000000  0.4312630000000  0.4892750000000 1.0
C      1  0.4611810000000  0.4884220000000  0.5815240000000 1.0
C      1  0.4779280000000  0.5779990000000  0.4809410000000 1.0
C      1  0.4688750000000  0.4364020000000  0.4839830000000 1.0
C      1  0.5491550000000  0.4978510000000  0.4768940000000 1.0
C      1  0.4915840000000  0.5351780000000  0.5422200000000 1.0
C      1  0.5541050000000  0.5352560000000  0.4365160000000 1.0
C      1  0.5629010000000  0.4776240000000  0.5236650000000 1.0
C      1  0.4122400000000  0.4804230000000  0.5167390000000 1.0
C      1  0.4512300000000  0.5205280000000  0.5160180000000 1.0
C      1  0.4494400000000  0.5163550000000  0.4821070000000 1.0
C      1  0.4389380000000  0.4934100000000  0.5294820000000 1.0
C      1  0.4495590000000  0.5842050000000  0.4819150000000 1.0
C      1  0.4677960000000  0.5522370000000  0.5701670000000 1.0
C      1  0.4274450000000  0.4667660000000  0.4017430000000 1.0
C      1  0.5611170000000  0.5778180000000  0.4704750000000 1.0
C      1  0.5713180000000  0.5420730000000  0.5280190000000 1.0
C      1  0.5304440000000  0.5129000000000  0.4427580000000 1.0
C      1  0.5463100000000  0.5496160000000  0.5923860000000 1.0
C      1  0.5451310000000  0.4143760000000  0.4853470000000 1.0
C      1  0.4891070000000  0.4989840000000  0.5991050000000 1.0
C      1  0.4638780000000  0.4759590000000  0.5345720000000 1.0
C      1  0.4659740000000  0.4621830000000  0.4226570000000 1.0
C      1  0.5660710000000  0.4968750000000  0.4504400000000 1.0
C      1  0.4948520000000  0.5906710000000  0.5023480000000 1.0
END
