TITL C-2778433-5640-53 0.00650937640248512 125000 -1097.0542882616 0 0 190 (C1) n - 1
REM
REM in /home/nfs/bkarasulu/CARBON/AIRSS/Generating-Clusters/REBO/Only-C1/SD-CG/HFTN-CG
REM
REM
REM
REM
REM
REM ./C.cell (11c1c37f851c82e70ff6c80c92926a4b)
REM
REM compiler GCC version 9.2.1 20190827 (Red Hat 9.2.1-1)
REM options -cpp -mtune=generic -march=x86-64 -g -O0 -fpre-include=/usr/include/finclude/math-vector-fortran.h
REM seed -1742126680 -1877599016 -1726848279 1983746488 -386485313 -2146012737 1798252136 -374851753 1477500180 1699617204 2066151703 1147195012 845581187 -560321709 -423608603 1696897876 -320717824 -100553437 -161427544 -68550433 -1451532744 -725198692 104929951 -1208862043 443130279 848604117 148616361 -1739548842 -994915886 -1949472844 -1100524646 395773687 1419053562
REM
CELL 1.54180   50.00000   50.00000   50.00000   90.00000   90.00000   90.00000
LATT -1
SFAC C  
C      1  0.4868150000000  0.5130730000000  0.4866570000000 1.0
C      1  0.4614570000000  0.4685020000000  0.5352160000000 1.0
C      1  0.4446320000000  0.4959390000000  0.5346310000000 1.0
C      1  0.4301470000000  0.4465750000000  0.5732190000000 1.0
C      1  0.5480580000000  0.4323100000000  0.5570040000000 1.0
C      1  0.5691570000000  0.4486890000000  0.4971840000000 1.0
C      1  0.3817830000000  0.5403780000000  0.5282580000000 1.0
C      1  0.5059190000000  0.4697570000000  0.5780260000000 1.0
C      1  0.5705670000000  0.4817220000000  0.5869610000000 1.0
C      1  0.4425370000000  0.5484660000000  0.5278360000000 1.0
C      1  0.4108610000000  0.5122030000000  0.4906990000000 1.0
C      1  0.4100370000000  0.4868720000000  0.4401200000000 1.0
C      1  0.5296260000000  0.4402940000000  0.4290400000000 1.0
C      1  0.4784660000000  0.5616240000000  0.5388510000000 1.0
C      1  0.4823640000000  0.4198250000000  0.5030880000000 1.0
C      1  0.5339600000000  0.5142940000000  0.4943170000000 1.0
C      1  0.5018240000000  0.5078830000000  0.3826870000000 1.0
C      1  0.4350670000000  0.5990430000000  0.5120380000000 1.0
C      1  0.5050340000000  0.5072900000000  0.6087490000000 1.0
C      1  0.6013270000000  0.5169270000000  0.5248080000000 1.0
C      1  0.5559090000000  0.5282360000000  0.4728890000000 1.0
C      1  0.4307340000000  0.5505860000000  0.4669660000000 1.0
C      1  0.5666830000000  0.5276450000000  0.5573080000000 1.0
C      1  0.4353690000000  0.5086890000000  0.5638270000000 1.0
C      1  0.4618710000000  0.5346760000000  0.5491810000000 1.0
C      1  0.4416590000000  0.5821730000000  0.5679670000000 1.0
C      1  0.4757540000000  0.4360480000000  0.4752310000000 1.0
C      1  0.5475750000000  0.5840260000000  0.4982920000000 1.0
C      1  0.5867780000000  0.5147030000000  0.4659540000000 1.0
C      1  0.5150040000000  0.5919620000000  0.5393380000000 1.0
C      1  0.3968760000000  0.4833140000000  0.4651450000000 1.0
C      1  0.5161410000000  0.4155490000000  0.5235440000000 1.0
C      1  0.4510230000000  0.5414590000000  0.5805860000000 1.0
C      1  0.5754520000000  0.5936280000000  0.4822340000000 1.0
C      1  0.4710170000000  0.5816550000000  0.5648780000000 1.0
C      1  0.4156570000000  0.4642220000000  0.4247380000000 1.0
C      1  0.5139140000000  0.5418820000000  0.4924290000000 1.0
C      1  0.5363640000000  0.5157800000000  0.6103740000000 1.0
C      1  0.5675620000000  0.4668800000000  0.5577030000000 1.0
C      1  0.5531370000000  0.4988420000000  0.4459540000000 1.0
C      1  0.5861260000000  0.4744270000000  0.4929880000000 1.0
C      1  0.5386330000000  0.5064100000000  0.5774270000000 1.0
C      1  0.5680700000000  0.6054820000000  0.5372960000000 1.0
C      1  0.5425890000000  0.4091860000000  0.5372960000000 1.0
C      1  0.5091680000000  0.5596300000000  0.4345560000000 1.0
C      1  0.4833890000000  0.4204860000000  0.5596940000000 1.0
C      1  0.4737120000000  0.5100620000000  0.6130050000000 1.0
C      1  0.5952020000000  0.4758280000000  0.4618270000000 1.0
C      1  0.4679230000000  0.5388890000000  0.6043310000000 1.0
C      1  0.4981300000000  0.4881250000000  0.4691540000000 1.0
C      1  0.4123460000000  0.4635610000000  0.5583030000000 1.0
C      1  0.4494380000000  0.5087950000000  0.5001250000000 1.0
C      1  0.5760790000000  0.5737050000000  0.5449300000000 1.0
C      1  0.4858980000000  0.4594860000000  0.5512240000000 1.0
C      1  0.5711460000000  0.5269990000000  0.5009860000000 1.0
C      1  0.4490720000000  0.5553720000000  0.4143350000000 1.0
C      1  0.5028320000000  0.5540980000000  0.4093320000000 1.0
C      1  0.5797310000000  0.5768050000000  0.4478280000000 1.0
C      1  0.5559370000000  0.4770410000000  0.4672130000000 1.0
C      1  0.4759660000000  0.6087270000000  0.4901880000000 1.0
C      1  0.5543860000000  0.4449800000000  0.5260170000000 1.0
C      1  0.5443140000000  0.5372720000000  0.5176080000000 1.0
C      1  0.5537020000000  0.5351550000000  0.5886420000000 1.0
C      1  0.5901660000000  0.4555490000000  0.5402560000000 1.0
C      1  0.5543900000000  0.3970320000000  0.4894390000000 1.0
C      1  0.5403050000000  0.4801250000000  0.5611120000000 1.0
C      1  0.5069260000000  0.4642020000000  0.4896660000000 1.0
C      1  0.5224700000000  0.4610130000000  0.4530840000000 1.0
C      1  0.5373460000000  0.5497770000000  0.4612810000000 1.0
C      1  0.5200660000000  0.4802670000000  0.6023580000000 1.0
C      1  0.3992440000000  0.4664870000000  0.4943040000000 1.0
C      1  0.5247030000000  0.4953420000000  0.5282960000000 1.0
C      1  0.4172800000000  0.5092770000000  0.5238460000000 1.0
C      1  0.5083730000000  0.4922840000000  0.5546930000000 1.0
C      1  0.4808180000000  0.5636260000000  0.5049900000000 1.0
C      1  0.4111060000000  0.4891770000000  0.5671420000000 1.0
C      1  0.3697280000000  0.5264560000000  0.5076650000000 1.0
C      1  0.5220580000000  0.4230180000000  0.4651920000000 1.0
C      1  0.5659180000000  0.6099630000000  0.5089580000000 1.0
C      1  0.5360920000000  0.5343460000000  0.4193140000000 1.0
C      1  0.4140480000000  0.4371010000000  0.4968150000000 1.0
C      1  0.4556720000000  0.4961900000000  0.4511480000000 1.0
C      1  0.4339040000000  0.4936760000000  0.4761190000000 1.0
C      1  0.4590910000000  0.4127300000000  0.4358930000000 1.0
C      1  0.4694250000000  0.5638150000000  0.4339100000000 1.0
C      1  0.4493700000000  0.5974370000000  0.4875840000000 1.0
C      1  0.5865500000000  0.5445330000000  0.4530800000000 1.0
C      1  0.4394490000000  0.4143650000000  0.4952570000000 1.0
C      1  0.4528770000000  0.6044290000000  0.5375650000000 1.0
C      1  0.4937890000000  0.5213700000000  0.5798830000000 1.0
C      1  0.5937000000000  0.5669850000000  0.4774780000000 1.0
C      1  0.4764800000000  0.4051180000000  0.4599750000000 1.0
C      1  0.4446590000000  0.5284440000000  0.4528630000000 1.0
C      1  0.4669690000000  0.4611830000000  0.4859510000000 1.0
C      1  0.4243470000000  0.5385450000000  0.5620970000000 1.0
C      1  0.4701350000000  0.4801180000000  0.5072760000000 1.0
C      1  0.4532080000000  0.4569600000000  0.5894000000000 1.0
C      1  0.5766970000000  0.4521830000000  0.4549300000000 1.0
C      1  0.5898180000000  0.5438700000000  0.5379570000000 1.0
C      1  0.5620030000000  0.5625970000000  0.5164550000000 1.0
C      1  0.3796580000000  0.5007340000000  0.4887770000000 1.0
C      1  0.5752150000000  0.4972190000000  0.5138200000000 1.0
C      1  0.4760420000000  0.5286090000000  0.4617300000000 1.0
C      1  0.5165590000000  0.5779780000000  0.4623400000000 1.0
C      1  0.4768130000000  0.5309120000000  0.4288930000000 1.0
C      1  0.4434130000000  0.5355450000000  0.5041080000000 1.0
C      1  0.5512100000000  0.5097770000000  0.5324020000000 1.0
C      1  0.6008980000000  0.4878570000000  0.5429780000000 1.0
C      1  0.5185730000000  0.4438110000000  0.5678370000000 1.0
C      1  0.5916080000000  0.4314900000000  0.5253360000000 1.0
C      1  0.5354450000000  0.4833620000000  0.4918050000000 1.0
C      1  0.4399150000000  0.4473820000000  0.5344680000000 1.0
C      1  0.4762620000000  0.4433190000000  0.5780390000000 1.0
C      1  0.5940040000000  0.4263070000000  0.4939510000000 1.0
C      1  0.5649480000000  0.5259950000000  0.4344200000000 1.0
C      1  0.4886580000000  0.5541160000000  0.5711280000000 1.0
C      1  0.5472550000000  0.5807610000000  0.4510940000000 1.0
C      1  0.4237790000000  0.5107150000000  0.4326190000000 1.0
C      1  0.5251250000000  0.4576790000000  0.4026640000000 1.0
C      1  0.3932600000000  0.4892020000000  0.5177720000000 1.0
C      1  0.4980170000000  0.5358540000000  0.3895790000000 1.0
C      1  0.5915420000000  0.5520440000000  0.5044290000000 1.0
C      1  0.5175990000000  0.5582560000000  0.5353100000000 1.0
C      1  0.5377780000000  0.4280480000000  0.5888800000000 1.0
C      1  0.6057200000000  0.5092360000000  0.4916360000000 1.0
C      1  0.4808280000000  0.4757070000000  0.4126480000000 1.0
C      1  0.5426280000000  0.5268080000000  0.3896520000000 1.0
C      1  0.5917010000000  0.4950190000000  0.4385700000000 1.0
C      1  0.5461380000000  0.4179750000000  0.4415990000000 1.0
C      1  0.5648060000000  0.4117910000000  0.5166350000000 1.0
C      1  0.5266390000000  0.3885990000000  0.4850140000000 1.0
C      1  0.4421700000000  0.4503870000000  0.4076720000000 1.0
C      1  0.5082220000000  0.5175320000000  0.4294840000000 1.0
C      1  0.4546550000000  0.4687490000000  0.4319930000000 1.0
C      1  0.5438150000000  0.5850140000000  0.5492860000000 1.0
C      1  0.4898960000000  0.5333890000000  0.5115390000000 1.0
C      1  0.4311110000000  0.4347770000000  0.4692810000000 1.0
C      1  0.4179870000000  0.4324610000000  0.4222830000000 1.0
C      1  0.4795410000000  0.3837870000000  0.5045140000000 1.0
C      1  0.4776630000000  0.4135390000000  0.5342830000000 1.0
C      1  0.4072070000000  0.5337170000000  0.5393520000000 1.0
C      1  0.5714180000000  0.4245580000000  0.4521780000000 1.0
C      1  0.4592220000000  0.4840220000000  0.5992570000000 1.0
C      1  0.5065470000000  0.3941990000000  0.4616640000000 1.0
C      1  0.5426600000000  0.4798110000000  0.3983780000000 1.0
C      1  0.5222180000000  0.5300720000000  0.5631690000000 1.0
C      1  0.4981810000000  0.5990240000000  0.5104750000000 1.0
C      1  0.5781910000000  0.4094710000000  0.4756270000000 1.0
C      1  0.4694290000000  0.6088460000000  0.4507460000000 1.0
C      1  0.5113790000000  0.4450180000000  0.5350240000000 1.0
C      1  0.5317290000000  0.4651550000000  0.5205630000000 1.0
C      1  0.5196500000000  0.5731340000000  0.5045910000000 1.0
C      1  0.4595250000000  0.3935650000000  0.4840310000000 1.0
C      1  0.4984870000000  0.5536960000000  0.6025480000000 1.0
C      1  0.4105830000000  0.4560420000000  0.5251460000000 1.0
C      1  0.5303380000000  0.5016910000000  0.3836560000000 1.0
C      1  0.4645190000000  0.5043580000000  0.5749300000000 1.0
C      1  0.5003310000000  0.4916050000000  0.5087480000000 1.0
C      1  0.4374330000000  0.4639180000000  0.4607390000000 1.0
C      1  0.4797170000000  0.5056500000000  0.5463580000000 1.0
C      1  0.4890370000000  0.5728710000000  0.4791080000000 1.0
C      1  0.5101740000000  0.4345010000000  0.4953930000000 1.0
C      1  0.4680450000000  0.4313250000000  0.4152010000000 1.0
C      1  0.4839310000000  0.6011290000000  0.5413600000000 1.0
C      1  0.5435480000000  0.4474520000000  0.4764460000000 1.0
C      1  0.5046080000000  0.5402720000000  0.4620360000000 1.0
C      1  0.5848190000000  0.5013910000000  0.5674980000000 1.0
C      1  0.4318100000000  0.4186340000000  0.4433980000000 1.0
C      1  0.4372950000000  0.4217620000000  0.5569110000000 1.0
C      1  0.5582710000000  0.5584470000000  0.4285450000000 1.0
C      1  0.5476330000000  0.4779720000000  0.6039730000000 1.0
C      1  0.5085370000000  0.3900290000000  0.5080730000000 1.0
C      1  0.5659070000000  0.4876420000000  0.4175370000000 1.0
C      1  0.4853480000000  0.4933390000000  0.4385620000000 1.0
C      1  0.3904660000000  0.5581490000000  0.4935010000000 1.0
C      1  0.6118610000000  0.4819870000000  0.5112900000000 1.0
C      1  0.4788410000000  0.4916280000000  0.3888570000000 1.0
C      1  0.4475200000000  0.5226950000000  0.4133970000000 1.0
C      1  0.4962310000000  0.4403640000000  0.4505390000000 1.0
C      1  0.4539180000000  0.5059050000000  0.3881650000000 1.0
C      1  0.5007830000000  0.5287610000000  0.5394470000000 1.0
C      1  0.4760200000000  0.5824940000000  0.4531410000000 1.0
C      1  0.4100280000000  0.5417170000000  0.4829970000000 1.0
C      1  0.4473450000000  0.4176020000000  0.5246230000000 1.0
C      1  0.4978790000000  0.4417890000000  0.4164230000000 1.0
C      1  0.5265890000000  0.5479700000000  0.6053870000000 1.0
C      1  0.5235990000000  0.4934490000000  0.4480260000000 1.0
C      1  0.5435530000000  0.5527980000000  0.5544500000000 1.0
C      1  0.4331040000000  0.5761020000000  0.5363720000000 1.0
C      1  0.4403540000000  0.5767950000000  0.4702360000000 1.0
END
