TITL C-2778424-3986-1075 0.0191144043049836 125000 -1127.33756121146 0 0 191 (C1) n - 1
REM
REM in /home/nfs/bkarasulu/CARBON/AIRSS/Generating-Clusters/REBO/Only-C1/SD-CG/HFTN-CG
REM
REM
REM
REM
REM
REM ./C.cell (11c1c37f851c82e70ff6c80c92926a4b)
REM
REM compiler GCC version 9.2.1 20190827 (Red Hat 9.2.1-1)
REM options -cpp -mtune=generic -march=x86-64 -g -O0 -fpre-include=/usr/include/finclude/math-vector-fortran.h
REM seed 145187692 -1219728871 -691904231 1676515565 970341737 1117057605 -336336732 1284751084 -199814620 1308530665 1927753857 -1086921333 721798864 -781110431 243037055 734556076 444974859 -556973838 441886446 -1966172302 1668001005 1740347325 1614663323 1335826108 -1179828647 61958963 -226995144 906721004 2071413656 -852901914 1190867006 557193290 1716873807
REM
CELL 1.54180   50.00000   50.00000   50.00000   90.00000   90.00000   90.00000
LATT -1
SFAC C  
C      1  0.4365990000000  0.4489820000000  0.5618760000000 1.0
C      1  0.4916040000000  0.6116650000000  0.5167620000000 1.0
C      1  0.6139290000000  0.4947550000000  0.5294680000000 1.0
C      1  0.4066460000000  0.5520450000000  0.5394110000000 1.0
C      1  0.6022840000000  0.5303610000000  0.4954990000000 1.0
C      1  0.4624800000000  0.3861100000000  0.5021100000000 1.0
C      1  0.4839990000000  0.5964110000000  0.5465660000000 1.0
C      1  0.4657860000000  0.4056730000000  0.4358960000000 1.0
C      1  0.4118300000000  0.5782570000000  0.5100360000000 1.0
C      1  0.4767160000000  0.5373790000000  0.4154590000000 1.0
C      1  0.5252450000000  0.4935320000000  0.4368410000000 1.0
C      1  0.5564320000000  0.4797940000000  0.5593270000000 1.0
C      1  0.4622490000000  0.5989010000000  0.5221050000000 1.0
C      1  0.3944970000000  0.5402200000000  0.4529800000000 1.0
C      1  0.4121210000000  0.5661320000000  0.5625720000000 1.0
C      1  0.4319370000000  0.4311340000000  0.5157950000000 1.0
C      1  0.5172400000000  0.4392920000000  0.4862810000000 1.0
C      1  0.4967660000000  0.5057960000000  0.6288070000000 1.0
C      1  0.4121320000000  0.5687530000000  0.4518810000000 1.0
C      1  0.5093800000000  0.4846350000000  0.4659810000000 1.0
C      1  0.4579790000000  0.4230770000000  0.4643050000000 1.0
C      1  0.4513910000000  0.5095020000000  0.5903330000000 1.0
C      1  0.5074450000000  0.3939600000000  0.4135920000000 1.0
C      1  0.4486010000000  0.4514450000000  0.5862410000000 1.0
C      1  0.5038390000000  0.3875290000000  0.4604280000000 1.0
C      1  0.4765440000000  0.5683130000000  0.4641480000000 1.0
C      1  0.5462000000000  0.4819160000000  0.5901850000000 1.0
C      1  0.5708100000000  0.5114590000000  0.4128240000000 1.0
C      1  0.4327120000000  0.5859550000000  0.5590730000000 1.0
C      1  0.4933150000000  0.4561910000000  0.4725430000000 1.0
C      1  0.5690760000000  0.4289410000000  0.4472740000000 1.0
C      1  0.5195640000000  0.5547810000000  0.4426650000000 1.0
C      1  0.4870930000000  0.4018970000000  0.5097540000000 1.0
C      1  0.4597810000000  0.5584700000000  0.5745780000000 1.0
C      1  0.4634850000000  0.5904260000000  0.5716330000000 1.0
C      1  0.5039180000000  0.4662540000000  0.3982540000000 1.0
C      1  0.5568670000000  0.4636210000000  0.4617250000000 1.0
C      1  0.5021630000000  0.4458040000000  0.5158760000000 1.0
C      1  0.5430500000000  0.5143620000000  0.5253850000000 1.0
C      1  0.4762830000000  0.4737880000000  0.5040240000000 1.0
C      1  0.4365040000000  0.5260290000000  0.5353730000000 1.0
C      1  0.4348510000000  0.4020620000000  0.5063460000000 1.0
C      1  0.4733970000000  0.3976720000000  0.5777410000000 1.0
C      1  0.5054720000000  0.5219240000000  0.6040390000000 1.0
C      1  0.4462880000000  0.3980950000000  0.4773640000000 1.0
C      1  0.5363860000000  0.3968680000000  0.5221270000000 1.0
C      1  0.4590750000000  0.5210290000000  0.4633900000000 1.0
C      1  0.5369870000000  0.5274540000000  0.6048030000000 1.0
C      1  0.5335400000000  0.4442260000000  0.4568520000000 1.0
C      1  0.4598100000000  0.4239810000000  0.4081950000000 1.0
C      1  0.4904750000000  0.3893610000000  0.4360570000000 1.0
C      1  0.4016360000000  0.4362120000000  0.5063520000000 1.0
C      1  0.5435990000000  0.4216110000000  0.5406460000000 1.0
C      1  0.5695730000000  0.5866010000000  0.5784970000000 1.0
C      1  0.4538330000000  0.4532910000000  0.4037200000000 1.0
C      1  0.4440060000000  0.5412390000000  0.4825190000000 1.0
C      1  0.4710390000000  0.5158370000000  0.5554140000000 1.0
C      1  0.5579400000000  0.4855690000000  0.4398570000000 1.0
C      1  0.4960930000000  0.5066750000000  0.5770900000000 1.0
C      1  0.5461110000000  0.4528140000000  0.4985790000000 1.0
C      1  0.4643940000000  0.4466910000000  0.4879560000000 1.0
C      1  0.5106760000000  0.5487310000000  0.4993990000000 1.0
C      1  0.4976790000000  0.4064880000000  0.5582460000000 1.0
C      1  0.4635590000000  0.5618980000000  0.4888570000000 1.0
C      1  0.5463020000000  0.5185790000000  0.5649400000000 1.0
C      1  0.5410280000000  0.5781970000000  0.4549820000000 1.0
C      1  0.3945200000000  0.4650460000000  0.5018440000000 1.0
C      1  0.5559470000000  0.4482700000000  0.4221620000000 1.0
C      1  0.5040320000000  0.3924550000000  0.5328640000000 1.0
C      1  0.5852580000000  0.5498620000000  0.5743890000000 1.0
C      1  0.5960180000000  0.4331280000000  0.4760990000000 1.0
C      1  0.5356960000000  0.5945390000000  0.5386990000000 1.0
C      1  0.5264360000000  0.4134420000000  0.4153590000000 1.0
C      1  0.4094160000000  0.4541780000000  0.4718120000000 1.0
C      1  0.5856150000000  0.5193060000000  0.4725170000000 1.0
C      1  0.5103150000000  0.5432400000000  0.3945950000000 1.0
C      1  0.5671350000000  0.5257720000000  0.5440320000000 1.0
C      1  0.5612710000000  0.5799850000000  0.5240190000000 1.0
C      1  0.5756350000000  0.5426100000000  0.4552490000000 1.0
C      1  0.5431330000000  0.5546820000000  0.6018100000000 1.0
C      1  0.4481060000000  0.5012750000000  0.5209600000000 1.0
C      1  0.5614040000000  0.4289460000000  0.5138250000000 1.0
C      1  0.3981100000000  0.5444420000000  0.5073630000000 1.0
C      1  0.5009520000000  0.4778400000000  0.5266610000000 1.0
C      1  0.5822220000000  0.5476760000000  0.5346520000000 1.0
C      1  0.5108680000000  0.5911550000000  0.4293530000000 1.0
C      1  0.3960200000000  0.4235990000000  0.4793040000000 1.0
C      1  0.4249660000000  0.5117380000000  0.5802470000000 1.0
C      1  0.5895540000000  0.4550840000000  0.4558990000000 1.0
C      1  0.5746140000000  0.5731760000000  0.4933900000000 1.0
C      1  0.4920010000000  0.5171110000000  0.3940690000000 1.0
C      1  0.6139240000000  0.4703910000000  0.5101070000000 1.0
C      1  0.5256780000000  0.5027850000000  0.5080460000000 1.0
C      1  0.5196940000000  0.4271840000000  0.5643520000000 1.0
C      1  0.4933580000000  0.5930260000000  0.4571540000000 1.0
C      1  0.4341170000000  0.5547210000000  0.5188290000000 1.0
C      1  0.4541740000000  0.5597130000000  0.4132810000000 1.0
C      1  0.5167270000000  0.4598790000000  0.4355030000000 1.0
C      1  0.4152830000000  0.5156480000000  0.5538100000000 1.0
C      1  0.3987470000000  0.5120790000000  0.4655750000000 1.0
C      1  0.5280940000000  0.4769540000000  0.5458060000000 1.0
C      1  0.4709560000000  0.4960240000000  0.3833270000000 1.0
C      1  0.5018870000000  0.5189420000000  0.4985440000000 1.0
C      1  0.4910120000000  0.5524250000000  0.6046280000000 1.0
C      1  0.4935180000000  0.5781950000000  0.5822400000000 1.0
C      1  0.4308900000000  0.4904850000000  0.4987730000000 1.0
C      1  0.5406150000000  0.4151680000000  0.4424630000000 1.0
C      1  0.4761570000000  0.5048850000000  0.5111030000000 1.0
C      1  0.5449770000000  0.5782410000000  0.5868600000000 1.0
C      1  0.5477460000000  0.5522740000000  0.5139740000000 1.0
C      1  0.5119270000000  0.5700580000000  0.5141080000000 1.0
C      1  0.5226630000000  0.5388740000000  0.4708090000000 1.0
C      1  0.5872400000000  0.4891040000000  0.4569180000000 1.0
C      1  0.5240900000000  0.5026330000000  0.5641390000000 1.0
C      1  0.5682050000000  0.4206450000000  0.4813500000000 1.0
C      1  0.5963900000000  0.4595060000000  0.5322340000000 1.0
C      1  0.5076580000000  0.4066600000000  0.4874050000000 1.0
C      1  0.5148800000000  0.4952280000000  0.4043410000000 1.0
C      1  0.4714230000000  0.5458790000000  0.4465750000000 1.0
C      1  0.5035700000000  0.5713100000000  0.5435310000000 1.0
C      1  0.4364010000000  0.4635200000000  0.4237610000000 1.0
C      1  0.4329960000000  0.4580340000000  0.4945980000000 1.0
C      1  0.4916050000000  0.5459210000000  0.5718970000000 1.0
C      1  0.4706960000000  0.4839330000000  0.5788690000000 1.0
C      1  0.6016190000000  0.4779200000000  0.4860340000000 1.0
C      1  0.5102670000000  0.4461250000000  0.5867470000000 1.0
C      1  0.5067010000000  0.5632420000000  0.4143470000000 1.0
C      1  0.5806280000000  0.5745860000000  0.5514490000000 1.0
C      1  0.5583540000000  0.5042600000000  0.4853510000000 1.0
C      1  0.5315340000000  0.5242940000000  0.4422400000000 1.0
C      1  0.4205770000000  0.4707450000000  0.5524520000000 1.0
C      1  0.5835130000000  0.4944990000000  0.5841870000000 1.0
C      1  0.5249300000000  0.4439460000000  0.4085630000000 1.0
C      1  0.5253930000000  0.3680760000000  0.5321890000000 1.0
C      1  0.4632210000000  0.5342330000000  0.5972910000000 1.0
C      1  0.5416420000000  0.4021510000000  0.4917790000000 1.0
C      1  0.4015760000000  0.5964220000000  0.4890420000000 1.0
C      1  0.5339580000000  0.3929150000000  0.4613950000000 1.0
C      1  0.5789550000000  0.4358930000000  0.5668670000000 1.0
C      1  0.5775300000000  0.4609630000000  0.5788700000000 1.0
C      1  0.5379750000000  0.5368270000000  0.3922850000000 1.0
C      1  0.4041810000000  0.5127350000000  0.4966710000000 1.0
C      1  0.5889930000000  0.4867080000000  0.5512510000000 1.0
C      1  0.4863810000000  0.4619380000000  0.4424560000000 1.0
C      1  0.4713210000000  0.4271560000000  0.5642450000000 1.0
C      1  0.5034150000000  0.5373910000000  0.5461510000000 1.0
C      1  0.4144010000000  0.4661330000000  0.4448660000000 1.0
C      1  0.5274850000000  0.4631940000000  0.5980850000000 1.0
C      1  0.5604000000000  0.5335500000000  0.4310550000000 1.0
C      1  0.5321150000000  0.4818710000000  0.4872030000000 1.0
C      1  0.4302080000000  0.5618350000000  0.4249280000000 1.0
C      1  0.4746900000000  0.4303400000000  0.5157340000000 1.0
C      1  0.4808860000000  0.4528600000000  0.5835080000000 1.0
C      1  0.5223010000000  0.5852410000000  0.5682590000000 1.0
C      1  0.5858030000000  0.5271650000000  0.5835170000000 1.0
C      1  0.5242860000000  0.5967070000000  0.4705700000000 1.0
C      1  0.4214210000000  0.5107040000000  0.4244100000000 1.0
C      1  0.5894690000000  0.5520890000000  0.5077060000000 1.0
C      1  0.4614310000000  0.5453630000000  0.5458380000000 1.0
C      1  0.4901140000000  0.5131730000000  0.4334910000000 1.0
C      1  0.4045840000000  0.4920620000000  0.4418280000000 1.0
C      1  0.5523920000000  0.5558680000000  0.4101810000000 1.0
C      1  0.5628320000000  0.4786590000000  0.4084960000000 1.0
C      1  0.5205050000000  0.5980370000000  0.5039490000000 1.0
C      1  0.4977270000000  0.6139740000000  0.4834960000000 1.0
C      1  0.4757060000000  0.4689260000000  0.3921840000000 1.0
C      1  0.6191840000000  0.5174270000000  0.5137950000000 1.0
C      1  0.4448900000000  0.4914840000000  0.4401000000000 1.0
C      1  0.4750520000000  0.4899100000000  0.4442430000000 1.0
C      1  0.4331100000000  0.5928210000000  0.5308020000000 1.0
C      1  0.4486520000000  0.4902080000000  0.5533430000000 1.0
C      1  0.5443470000000  0.5034120000000  0.3935680000000 1.0
C      1  0.5421050000000  0.5800390000000  0.4217620000000 1.0
C      1  0.4033660000000  0.4919450000000  0.5421890000000 1.0
C      1  0.4864130000000  0.5064020000000  0.4725760000000 1.0
C      1  0.4147530000000  0.5480120000000  0.4790380000000 1.0
C      1  0.4133620000000  0.5374480000000  0.4272030000000 1.0
C      1  0.5315310000000  0.5418920000000  0.5361340000000 1.0
C      1  0.4314610000000  0.5034010000000  0.4690190000000 1.0
C      1  0.4632340000000  0.5671800000000  0.5196060000000 1.0
C      1  0.4959790000000  0.5088350000000  0.5366790000000 1.0
C      1  0.5811770000000  0.4368070000000  0.5381260000000 1.0
C      1  0.5563880000000  0.5070700000000  0.6016960000000 1.0
C      1  0.5469960000000  0.5343000000000  0.4909440000000 1.0
C      1  0.5706220000000  0.4738780000000  0.4895970000000 1.0
C      1  0.5662810000000  0.5670310000000  0.4675060000000 1.0
C      1  0.3945970000000  0.4892210000000  0.5151800000000 1.0
C      1  0.4030250000000  0.5950670000000  0.4640040000000 1.0
C      1  0.5231000000000  0.4471620000000  0.5389430000000 1.0
C      1  0.4529050000000  0.4338980000000  0.5393820000000 1.0
C      1  0.4692660000000  0.4388380000000  0.4374870000000 1.0
END
