TITL C-2778429-3646-984 0.000368144782407523 125000 -418.861140439597 0 0 72 (C1) n - 1
REM
REM in /home/nfs/bkarasulu/CARBON/AIRSS/Generating-Clusters/REBO/Only-C1/SD-CG/HFTN-CG
REM
REM
REM
REM
REM
REM ./C.cell (11c1c37f851c82e70ff6c80c92926a4b)
REM
REM compiler GCC version 9.2.1 20190827 (Red Hat 9.2.1-1)
REM options -cpp -mtune=generic -march=x86-64 -g -O0 -fpre-include=/usr/include/finclude/math-vector-fortran.h
REM seed -692051014 -752958487 1941398759 2125486133 -1642631565 -1525406941 -1821475738 920900945 175155190 -2074887934 -1820973140 -1854948655 1882173629 -1423324367 1759348531 994053465 -764491513 -667351541 -2099733956 -1922460847 -914808701 -399196191 -858836416 -251590035 -348546476 -1139985956 433154320 738982814 57620955 1745308740 -669639372 1246338772 -934481813
REM
CELL 1.54180   50.00000   50.00000   50.00000   90.00000   90.00000   90.00000
LATT -1
SFAC C  
C      1  0.5518900000000  0.4914830000000  0.5041740000000 1.0
C      1  0.4371030000000  0.4851810000000  0.5385600000000 1.0
C      1  0.5321500000000  0.5744200000000  0.4610820000000 1.0
C      1  0.5326320000000  0.4719830000000  0.5063800000000 1.0
C      1  0.5026140000000  0.4469230000000  0.5397090000000 1.0
C      1  0.4716590000000  0.5134360000000  0.5731070000000 1.0
C      1  0.4479540000000  0.5492130000000  0.4703470000000 1.0
C      1  0.5595160000000  0.4434220000000  0.5175070000000 1.0
C      1  0.4758870000000  0.4719800000000  0.4647810000000 1.0
C      1  0.5253470000000  0.5356810000000  0.5601330000000 1.0
C      1  0.5458790000000  0.5180400000000  0.5436070000000 1.0
C      1  0.5193600000000  0.4789710000000  0.4450520000000 1.0
C      1  0.5724270000000  0.4593390000000  0.4735720000000 1.0
C      1  0.5846410000000  0.5550870000000  0.5173630000000 1.0
C      1  0.5419580000000  0.5204370000000  0.5102910000000 1.0
C      1  0.4763090000000  0.5060960000000  0.4630930000000 1.0
C      1  0.4251280000000  0.4337130000000  0.5192540000000 1.0
C      1  0.5449860000000  0.4947600000000  0.4388750000000 1.0
C      1  0.5739070000000  0.5097950000000  0.5579570000000 1.0
C      1  0.4292010000000  0.5290340000000  0.4770780000000 1.0
C      1  0.5609470000000  0.5058190000000  0.4617160000000 1.0
C      1  0.5217580000000  0.4715080000000  0.5448030000000 1.0
C      1  0.4897170000000  0.4059810000000  0.4836480000000 1.0
C      1  0.4887040000000  0.5520930000000  0.4971240000000 1.0
C      1  0.5195200000000  0.5290620000000  0.4862210000000 1.0
C      1  0.5058060000000  0.4645470000000  0.4671930000000 1.0
C      1  0.4436930000000  0.5389430000000  0.5222180000000 1.0
C      1  0.5163850000000  0.4078710000000  0.4766700000000 1.0
C      1  0.4879180000000  0.5166170000000  0.5367940000000 1.0
C      1  0.5009150000000  0.5437240000000  0.5400880000000 1.0
C      1  0.4726540000000  0.4733010000000  0.5046050000000 1.0
C      1  0.4530910000000  0.4997460000000  0.5578070000000 1.0
C      1  0.4985350000000  0.4407940000000  0.5128150000000 1.0
C      1  0.4551390000000  0.5713850000000  0.4872910000000 1.0
C      1  0.4822220000000  0.4750890000000  0.5690670000000 1.0
C      1  0.5329230000000  0.5539050000000  0.5320930000000 1.0
C      1  0.5011490000000  0.5370570000000  0.4583130000000 1.0
C      1  0.4834740000000  0.5677790000000  0.5275420000000 1.0
C      1  0.5140990000000  0.5693310000000  0.5125130000000 1.0
C      1  0.5466510000000  0.5520630000000  0.4505690000000 1.0
C      1  0.5130930000000  0.4566880000000  0.4939330000000 1.0
C      1  0.4975300000000  0.4931620000000  0.5503530000000 1.0
C      1  0.4829880000000  0.5799630000000  0.4772200000000 1.0
C      1  0.4402600000000  0.4870180000000  0.4546260000000 1.0
C      1  0.5487680000000  0.5300690000000  0.4710590000000 1.0
C      1  0.5849240000000  0.4530630000000  0.4502180000000 1.0
C      1  0.4522700000000  0.4396370000000  0.5000080000000 1.0
C      1  0.4996800000000  0.4968830000000  0.4315660000000 1.0
C      1  0.5403890000000  0.4203650000000  0.4793050000000 1.0
C      1  0.4174020000000  0.5280730000000  0.5227080000000 1.0
C      1  0.4781380000000  0.4244110000000  0.5019730000000 1.0
C      1  0.4291990000000  0.4592120000000  0.4575660000000 1.0
C      1  0.4835050000000  0.4483030000000  0.5609890000000 1.0
C      1  0.5497840000000  0.4867400000000  0.5525020000000 1.0
C      1  0.4151110000000  0.5009900000000  0.5285000000000 1.0
C      1  0.4624840000000  0.4986840000000  0.4995750000000 1.0
C      1  0.4713890000000  0.5382480000000  0.4594680000000 1.0
C      1  0.5099260000000  0.5238050000000  0.4343300000000 1.0
C      1  0.5520400000000  0.4577580000000  0.5382280000000 1.0
C      1  0.4633310000000  0.5178890000000  0.5236610000000 1.0
C      1  0.4871340000000  0.5208640000000  0.4917610000000 1.0
C      1  0.5395230000000  0.5263710000000  0.4323660000000 1.0
C      1  0.4967500000000  0.5246780000000  0.5749310000000 1.0
C      1  0.4418480000000  0.4597650000000  0.5261230000000 1.0
C      1  0.4396790000000  0.5026170000000  0.4787350000000 1.0
C      1  0.5590830000000  0.4391010000000  0.4896090000000 1.0
C      1  0.4683780000000  0.4886840000000  0.4358590000000 1.0
C      1  0.4527530000000  0.4542600000000  0.4738220000000 1.0
C      1  0.5681610000000  0.4869040000000  0.4815520000000 1.0
C      1  0.5604500000000  0.5463890000000  0.5196080000000 1.0
C      1  0.4550140000000  0.5643130000000  0.5152620000000 1.0
C      1  0.5131690000000  0.5794890000000  0.4815720000000 1.0
END
