TITL C-2778434-4341-1384 0.000931523654026599 125000 -261.20840347036 0 0 47 (C1) n - 1
REM
REM in /home/nfs/bkarasulu/CARBON/AIRSS/Generating-Clusters/REBO/Only-C1/SD-CG/HFTN-CG
REM
REM
REM
REM
REM
REM ./C.cell (11c1c37f851c82e70ff6c80c92926a4b)
REM
REM compiler GCC version 9.2.1 20190827 (Red Hat 9.2.1-1)
REM options -cpp -mtune=generic -march=x86-64 -g -O0 -fpre-include=/usr/include/finclude/math-vector-fortran.h
REM seed -261198148 228912239 -1821592436 -1020461188 1005209289 -968354552 -1800043143 397202311 -1783614719 -611853497 -2135525817 -709390656 -1755335813 979576685 -1736174298 405600628 478126153 1189114451 1733623416 -1796185818 -1846782623 700152701 1826842257 1215643554 -494231969 1686004055 -1893916907 -514079868 657127477 -866424510 -63171938 12339449 494351377
REM
CELL 1.54180   50.00000   50.00000   50.00000   90.00000   90.00000   90.00000
LATT -1
SFAC C  
C      1  0.5276730000000  0.5752550000000  0.4814340000000 1.0
C      1  0.5097030000000  0.5611110000000  0.4347600000000 1.0
C      1  0.5029310000000  0.4944940000000  0.4486860000000 1.0
C      1  0.4757970000000  0.5100410000000  0.4390760000000 1.0
C      1  0.5225330000000  0.4998200000000  0.4830970000000 1.0
C      1  0.4746190000000  0.4621350000000  0.5362320000000 1.0
C      1  0.4485940000000  0.4508500000000  0.4813710000000 1.0
C      1  0.5038910000000  0.4444750000000  0.4654120000000 1.0
C      1  0.5250570000000  0.4481130000000  0.5261230000000 1.0
C      1  0.5095730000000  0.4901110000000  0.5564210000000 1.0
C      1  0.4252230000000  0.4619380000000  0.5345570000000 1.0
C      1  0.5483510000000  0.4891550000000  0.5265900000000 1.0
C      1  0.5290880000000  0.4734430000000  0.5449800000000 1.0
C      1  0.4550140000000  0.5337660000000  0.5038210000000 1.0
C      1  0.4473390000000  0.4715740000000  0.5506090000000 1.0
C      1  0.4929260000000  0.4390650000000  0.5288430000000 1.0
C      1  0.4551100000000  0.4757200000000  0.5119050000000 1.0
C      1  0.5650340000000  0.4726020000000  0.5089940000000 1.0
C      1  0.4671110000000  0.5033650000000  0.5056520000000 1.0
C      1  0.6157060000000  0.4805300000000  0.4926850000000 1.0
C      1  0.5170140000000  0.5661710000000  0.4107630000000 1.0
C      1  0.4625190000000  0.5360410000000  0.4460450000000 1.0
C      1  0.5175200000000  0.5538770000000  0.4662530000000 1.0
C      1  0.5179760000000  0.4719050000000  0.4530400000000 1.0
C      1  0.4876220000000  0.5270930000000  0.4960940000000 1.0
C      1  0.4596590000000  0.5476820000000  0.4762420000000 1.0
C      1  0.5910310000000  0.4766690000000  0.5006270000000 1.0
C      1  0.4370140000000  0.5201810000000  0.5503230000000 1.0
C      1  0.4376420000000  0.5370280000000  0.5288020000000 1.0
C      1  0.5317430000000  0.5461090000000  0.5179190000000 1.0
C      1  0.5051940000000  0.4449400000000  0.4988460000000 1.0
C      1  0.4524300000000  0.4982830000000  0.5601570000000 1.0
C      1  0.5007670000000  0.5190210000000  0.5435260000000 1.0
C      1  0.5431030000000  0.5594570000000  0.5386690000000 1.0
C      1  0.5218620000000  0.4965360000000  0.5132520000000 1.0
C      1  0.4921790000000  0.4862540000000  0.5206520000000 1.0
C      1  0.4804150000000  0.5031700000000  0.5632240000000 1.0
C      1  0.4743120000000  0.4555410000000  0.4759560000000 1.0
C      1  0.5452270000000  0.5414200000000  0.4933600000000 1.0
C      1  0.5066370000000  0.5329180000000  0.5198350000000 1.0
C      1  0.4914550000000  0.5187890000000  0.4671970000000 1.0
C      1  0.5353180000000  0.4540660000000  0.4743150000000 1.0
C      1  0.4855780000000  0.5569920000000  0.4570970000000 1.0
C      1  0.4981490000000  0.4765870000000  0.4883040000000 1.0
C      1  0.5454270000000  0.4525930000000  0.5002390000000 1.0
C      1  0.4305850000000  0.4582490000000  0.5045090000000 1.0
C      1  0.5303510000000  0.5248650000000  0.4735100000000 1.0
END
