TITL C-2778422-5617-993 3.28028266123637e-05 125000 -711.26886932826 0 0 125 (C1) n - 1
REM
REM in /home/nfs/bkarasulu/CARBON/AIRSS/Generating-Clusters/REBO/Only-C1/SD-CG/HFTN-CG
REM
REM
REM
REM
REM
REM ./C.cell (11c1c37f851c82e70ff6c80c92926a4b)
REM
REM compiler GCC version 9.2.1 20190827 (Red Hat 9.2.1-1)
REM options -cpp -mtune=generic -march=x86-64 -g -O0 -fpre-include=/usr/include/finclude/math-vector-fortran.h
REM seed -901929254 114322570 -461379246 -1494794933 -1158836561 -1125017267 142481995 -1359222255 555456266 -1769571786 -2075056649 -1729235413 1539976424 -1973014948 1300406629 965721373 -172031270 1784279589 530305561 1409767834 472623436 1142213664 1388417709 561919537 -41470497 1202792775 -1321224444 1300926856 -112222105 -1199540738 1543167293 152951563 226034502
REM
CELL 1.54180   50.00000   50.00000   50.00000   90.00000   90.00000   90.00000
LATT -1
SFAC C  
C      1  0.4199210000000  0.4531840000000  0.5159160000000 1.0
C      1  0.5372150000000  0.3967450000000  0.5615640000000 1.0
C      1  0.4751940000000  0.5122540000000  0.4192710000000 1.0
C      1  0.4452560000000  0.5578220000000  0.4438700000000 1.0
C      1  0.4794820000000  0.5172660000000  0.6196600000000 1.0
C      1  0.4672020000000  0.4319730000000  0.4334250000000 1.0
C      1  0.5379030000000  0.4746470000000  0.4725490000000 1.0
C      1  0.5050340000000  0.5053520000000  0.5463220000000 1.0
C      1  0.5213580000000  0.4723910000000  0.4484790000000 1.0
C      1  0.4690980000000  0.5137800000000  0.5266660000000 1.0
C      1  0.5438260000000  0.5347320000000  0.5057750000000 1.0
C      1  0.5355750000000  0.4741280000000  0.5229540000000 1.0
C      1  0.5026440000000  0.5372730000000  0.5775640000000 1.0
C      1  0.4829310000000  0.5032640000000  0.5706820000000 1.0
C      1  0.4402460000000  0.5661930000000  0.4711970000000 1.0
C      1  0.5361700000000  0.4241470000000  0.5413110000000 1.0
C      1  0.5164710000000  0.5573700000000  0.4653720000000 1.0
C      1  0.4883640000000  0.5181420000000  0.4495280000000 1.0
C      1  0.5743620000000  0.5452690000000  0.5357310000000 1.0
C      1  0.5654220000000  0.4232960000000  0.5015510000000 1.0
C      1  0.4803880000000  0.4463400000000  0.4081390000000 1.0
C      1  0.5167310000000  0.4158900000000  0.4948370000000 1.0
C      1  0.4151100000000  0.4709400000000  0.4872330000000 1.0
C      1  0.4991090000000  0.4831870000000  0.4947050000000 1.0
C      1  0.4275820000000  0.4961440000000  0.5535750000000 1.0
C      1  0.5525200000000  0.5234510000000  0.4218110000000 1.0
C      1  0.4858390000000  0.5726670000000  0.5322030000000 1.0
C      1  0.4955660000000  0.4638830000000  0.3998770000000 1.0
C      1  0.5807670000000  0.4826130000000  0.4417090000000 1.0
C      1  0.4635580000000  0.4253640000000  0.4875370000000 1.0
C      1  0.4355280000000  0.5182010000000  0.4650410000000 1.0
C      1  0.5097880000000  0.5775700000000  0.4079830000000 1.0
C      1  0.4861490000000  0.5740460000000  0.4852250000000 1.0
C      1  0.4770960000000  0.4771740000000  0.5510440000000 1.0
C      1  0.5127070000000  0.4269500000000  0.4645590000000 1.0
C      1  0.5743090000000  0.4938380000000  0.5343390000000 1.0
C      1  0.5281180000000  0.5810880000000  0.4720990000000 1.0
C      1  0.5439690000000  0.5138180000000  0.5903000000000 1.0
C      1  0.5768470000000  0.4777820000000  0.5866230000000 1.0
C      1  0.4641520000000  0.5977460000000  0.4252390000000 1.0
C      1  0.6145810000000  0.5490880000000  0.4532490000000 1.0
C      1  0.5499840000000  0.5141210000000  0.5245050000000 1.0
C      1  0.5819790000000  0.5463250000000  0.5081070000000 1.0
C      1  0.4104900000000  0.5191410000000  0.5142800000000 1.0
C      1  0.5601540000000  0.5053650000000  0.4842880000000 1.0
C      1  0.5002310000000  0.5361310000000  0.5379230000000 1.0
C      1  0.4814230000000  0.3905390000000  0.5237440000000 1.0
C      1  0.4861790000000  0.5464450000000  0.4658380000000 1.0
C      1  0.5281930000000  0.5358030000000  0.5576850000000 1.0
C      1  0.5735730000000  0.4503130000000  0.4994440000000 1.0
C      1  0.5020820000000  0.5995240000000  0.4958520000000 1.0
C      1  0.5453730000000  0.5080440000000  0.5577880000000 1.0
C      1  0.4846830000000  0.4766070000000  0.5242110000000 1.0
C      1  0.5030820000000  0.4534730000000  0.4785560000000 1.0
C      1  0.5394900000000  0.4182880000000  0.5114750000000 1.0
C      1  0.4625630000000  0.4555770000000  0.5630450000000 1.0
C      1  0.5094410000000  0.5007580000000  0.4361190000000 1.0
C      1  0.5712840000000  0.4786440000000  0.4685200000000 1.0
C      1  0.5259230000000  0.5148920000000  0.4113930000000 1.0
C      1  0.5674200000000  0.4658140000000  0.4230290000000 1.0
C      1  0.5404780000000  0.5825530000000  0.4969050000000 1.0
C      1  0.5052490000000  0.5980320000000  0.5231630000000 1.0
C      1  0.4611440000000  0.4322530000000  0.5434580000000 1.0
C      1  0.4293060000000  0.5303450000000  0.5509990000000 1.0
C      1  0.4789180000000  0.5472540000000  0.5619990000000 1.0
C      1  0.3952990000000  0.4935370000000  0.4774500000000 1.0
C      1  0.5550900000000  0.5235410000000  0.4553730000000 1.0
C      1  0.4452320000000  0.4430800000000  0.4568430000000 1.0
C      1  0.5037980000000  0.4453520000000  0.5876050000000 1.0
C      1  0.4925300000000  0.4455470000000  0.5062080000000 1.0
C      1  0.4629720000000  0.5253560000000  0.4792740000000 1.0
C      1  0.4616390000000  0.4445040000000  0.5155450000000 1.0
C      1  0.5819950000000  0.5203440000000  0.5475740000000 1.0
C      1  0.5811730000000  0.5298960000000  0.4848810000000 1.0
C      1  0.5299090000000  0.4300050000000  0.4428910000000 1.0
C      1  0.5344110000000  0.5341150000000  0.4746070000000 1.0
C      1  0.4872290000000  0.4123030000000  0.5082680000000 1.0
C      1  0.4350400000000  0.5316430000000  0.4389070000000 1.0
C      1  0.4935300000000  0.5495930000000  0.5081390000000 1.0
C      1  0.5403110000000  0.4619990000000  0.4234920000000 1.0
C      1  0.5278440000000  0.4995840000000  0.4933300000000 1.0
C      1  0.4375990000000  0.5513970000000  0.5256000000000 1.0
C      1  0.4318720000000  0.5001030000000  0.5218240000000 1.0
C      1  0.4823450000000  0.4129440000000  0.5568390000000 1.0
C      1  0.4787620000000  0.4343860000000  0.5792170000000 1.0
C      1  0.4665610000000  0.5704020000000  0.4279350000000 1.0
C      1  0.4959950000000  0.5132170000000  0.5976750000000 1.0
C      1  0.5185820000000  0.4815630000000  0.4097420000000 1.0
C      1  0.4184220000000  0.4686580000000  0.5424410000000 1.0
C      1  0.5495390000000  0.4771680000000  0.5717700000000 1.0
C      1  0.5071710000000  0.5261160000000  0.4931520000000 1.0
C      1  0.5191510000000  0.4814470000000  0.5437240000000 1.0
C      1  0.5938920000000  0.5320320000000  0.4598050000000 1.0
C      1  0.5810380000000  0.5130120000000  0.4366290000000 1.0
C      1  0.4562550000000  0.4852720000000  0.4212410000000 1.0
C      1  0.4655220000000  0.4647790000000  0.4403650000000 1.0
C      1  0.4549090000000  0.5771160000000  0.5297260000000 1.0
C      1  0.5228640000000  0.4999230000000  0.6027870000000 1.0
C      1  0.4298610000000  0.5463070000000  0.4926970000000 1.0
C      1  0.4576310000000  0.5117270000000  0.5536560000000 1.0
C      1  0.4526250000000  0.5503470000000  0.5626420000000 1.0
C      1  0.5509520000000  0.4678580000000  0.5009740000000 1.0
C      1  0.4805510000000  0.4993870000000  0.4747900000000 1.0
C      1  0.5089010000000  0.4067720000000  0.5522360000000 1.0
C      1  0.4474100000000  0.4720410000000  0.5105740000000 1.0
C      1  0.5442430000000  0.5613670000000  0.5151470000000 1.0
C      1  0.4375670000000  0.4958280000000  0.4882760000000 1.0
C      1  0.5176150000000  0.5771040000000  0.5442970000000 1.0
C      1  0.5496540000000  0.4499090000000  0.5513500000000 1.0
C      1  0.4803750000000  0.4231700000000  0.4611210000000 1.0
C      1  0.4493920000000  0.5950810000000  0.5090850000000 1.0
C      1  0.5126160000000  0.4641490000000  0.5641180000000 1.0
C      1  0.4343260000000  0.4429600000000  0.4864380000000 1.0
C      1  0.4573800000000  0.5849830000000  0.4835390000000 1.0
C      1  0.4911760000000  0.5591650000000  0.4163590000000 1.0
C      1  0.5709990000000  0.4665330000000  0.5397880000000 1.0
C      1  0.4981120000000  0.5319620000000  0.4133410000000 1.0
C      1  0.4432780000000  0.5151200000000  0.4181940000000 1.0
C      1  0.4885250000000  0.4737940000000  0.4573150000000 1.0
C      1  0.4562320000000  0.5307290000000  0.5085250000000 1.0
C      1  0.3717100000000  0.4892820000000  0.4666330000000 1.0
C      1  0.5456800000000  0.5598610000000  0.5468620000000 1.0
C      1  0.4080110000000  0.5221370000000  0.4825770000000 1.0
C      1  0.5249430000000  0.4706530000000  0.5943680000000 1.0
C      1  0.5990260000000  0.4585910000000  0.4952000000000 1.0
END
