TITL C-2778437-8639-454 0.00261754100088644 125000 -767.578649019746 0 0 131 (C1) n - 1
REM
REM in /home/nfs/bkarasulu/CARBON/AIRSS/Generating-Clusters/REBO/Only-C1/SD-CG/HFTN-CG
REM
REM
REM
REM
REM
REM ./C.cell (11c1c37f851c82e70ff6c80c92926a4b)
REM
REM compiler GCC version 9.2.1 20190827 (Red Hat 9.2.1-1)
REM options -cpp -mtune=generic -march=x86-64 -g -O0 -fpre-include=/usr/include/finclude/math-vector-fortran.h
REM seed -1104282486 1990351119 428240391 -1962243727 -1541551248 684954378 1499748612 -1956477872 -1431823037 -1488653620 -569512817 -1331010530 971679437 1567961836 1625691602 971188178 403251138 -532623536 1147394810 213976368 -885426930 1770362545 -752586368 455503791 -1915483026 801166515 -1571348216 1960981345 849782907 706457045 1357422756 -2024504272 -151983069
REM
CELL 1.54180   50.00000   50.00000   50.00000   90.00000   90.00000   90.00000
LATT -1
SFAC C  
C      1  0.5939290000000  0.5274340000000  0.4798620000000 1.0
C      1  0.5075160000000  0.5583510000000  0.4814640000000 1.0
C      1  0.4113640000000  0.5404150000000  0.4781550000000 1.0
C      1  0.5024970000000  0.5165580000000  0.5001080000000 1.0
C      1  0.4806310000000  0.5791380000000  0.4794590000000 1.0
C      1  0.3979460000000  0.4933380000000  0.4866660000000 1.0
C      1  0.5359520000000  0.4692870000000  0.4659470000000 1.0
C      1  0.5556630000000  0.5247520000000  0.4248550000000 1.0
C      1  0.5123740000000  0.5726940000000  0.4446310000000 1.0
C      1  0.4809390000000  0.4337380000000  0.4247160000000 1.0
C      1  0.4571470000000  0.5559210000000  0.4843700000000 1.0
C      1  0.4599730000000  0.4515020000000  0.4270300000000 1.0
C      1  0.5145910000000  0.4273110000000  0.5750340000000 1.0
C      1  0.4482800000000  0.5441530000000  0.5649800000000 1.0
C      1  0.4583920000000  0.4718520000000  0.3837120000000 1.0
C      1  0.5752770000000  0.4374100000000  0.5243610000000 1.0
C      1  0.4413380000000  0.5365850000000  0.4352660000000 1.0
C      1  0.4862930000000  0.5539810000000  0.4479040000000 1.0
C      1  0.5433040000000  0.5164410000000  0.5440200000000 1.0
C      1  0.4126360000000  0.5506760000000  0.5054760000000 1.0
C      1  0.4481230000000  0.4681890000000  0.5008180000000 1.0
C      1  0.4627550000000  0.5028710000000  0.5903480000000 1.0
C      1  0.5972970000000  0.4917040000000  0.5130710000000 1.0
C      1  0.5462080000000  0.6111930000000  0.5286840000000 1.0
C      1  0.4656430000000  0.4929550000000  0.4877570000000 1.0
C      1  0.4175540000000  0.5053810000000  0.4443480000000 1.0
C      1  0.5672660000000  0.4286310000000  0.4767980000000 1.0
C      1  0.5070770000000  0.4637190000000  0.4517510000000 1.0
C      1  0.4454120000000  0.5178320000000  0.4876190000000 1.0
C      1  0.5197660000000  0.4846110000000  0.4201770000000 1.0
C      1  0.4807690000000  0.5995700000000  0.5259440000000 1.0
C      1  0.5346120000000  0.4170600000000  0.4769430000000 1.0
C      1  0.5585290000000  0.4900580000000  0.4802340000000 1.0
C      1  0.5392880000000  0.4582150000000  0.4276860000000 1.0
C      1  0.5261200000000  0.5388540000000  0.4607080000000 1.0
C      1  0.6036320000000  0.5069340000000  0.4624590000000 1.0
C      1  0.5463650000000  0.5501230000000  0.4852370000000 1.0
C      1  0.4350850000000  0.4933410000000  0.4278590000000 1.0
C      1  0.4857520000000  0.4943710000000  0.5152210000000 1.0
C      1  0.4567250000000  0.4321510000000  0.5548490000000 1.0
C      1  0.4692390000000  0.4883430000000  0.5444720000000 1.0
C      1  0.4085000000000  0.5279660000000  0.5276350000000 1.0
C      1  0.5061390000000  0.5057830000000  0.4713590000000 1.0
C      1  0.5767480000000  0.4187750000000  0.5041520000000 1.0
C      1  0.5331790000000  0.4047500000000  0.5052840000000 1.0
C      1  0.4675130000000  0.4707710000000  0.5940200000000 1.0
C      1  0.5200450000000  0.5433830000000  0.4297730000000 1.0
C      1  0.5184750000000  0.5268650000000  0.5904590000000 1.0
C      1  0.5390410000000  0.4876800000000  0.5262100000000 1.0
C      1  0.4984300000000  0.5223910000000  0.5551570000000 1.0
C      1  0.5111060000000  0.3922710000000  0.5268330000000 1.0
C      1  0.4636900000000  0.5881270000000  0.5062530000000 1.0
C      1  0.5638890000000  0.4679860000000  0.5319620000000 1.0
C      1  0.5561670000000  0.5178450000000  0.5063310000000 1.0
C      1  0.5027440000000  0.4353610000000  0.4430080000000 1.0
C      1  0.5726220000000  0.5427120000000  0.4696380000000 1.0
C      1  0.4709020000000  0.5129430000000  0.4048710000000 1.0
C      1  0.5583310000000  0.4416340000000  0.5510680000000 1.0
C      1  0.4820150000000  0.4131530000000  0.4779110000000 1.0
C      1  0.4663030000000  0.4831540000000  0.4552930000000 1.0
C      1  0.4847670000000  0.5435010000000  0.4969240000000 1.0
C      1  0.4488430000000  0.4547010000000  0.4560440000000 1.0
C      1  0.4903770000000  0.4821950000000  0.4320220000000 1.0
C      1  0.4344190000000  0.5510820000000  0.4634100000000 1.0
C      1  0.4898240000000  0.5812710000000  0.5472380000000 1.0
C      1  0.5751030000000  0.5175070000000  0.5335820000000 1.0
C      1  0.4707530000000  0.5235970000000  0.5738680000000 1.0
C      1  0.4338110000000  0.4384890000000  0.5015480000000 1.0
C      1  0.5263060000000  0.5163970000000  0.4100150000000 1.0
C      1  0.5861670000000  0.4878630000000  0.5436170000000 1.0
C      1  0.4246210000000  0.5006970000000  0.5650510000000 1.0
C      1  0.4216200000000  0.5273780000000  0.5575490000000 1.0
C      1  0.5451270000000  0.4409250000000  0.4557760000000 1.0
C      1  0.5066540000000  0.5962190000000  0.4688980000000 1.0
C      1  0.4977440000000  0.6198180000000  0.5153960000000 1.0
C      1  0.5672520000000  0.4715450000000  0.4411930000000 1.0
C      1  0.5291510000000  0.6257960000000  0.5118190000000 1.0
C      1  0.4599150000000  0.5633720000000  0.4451780000000 1.0
C      1  0.4054530000000  0.4969080000000  0.5139780000000 1.0
C      1  0.5063940000000  0.4169510000000  0.4639840000000 1.0
C      1  0.5388840000000  0.4417600000000  0.5729190000000 1.0
C      1  0.5847320000000  0.4771240000000  0.4922020000000 1.0
C      1  0.4551220000000  0.5150880000000  0.4564420000000 1.0
C      1  0.4406420000000  0.5645780000000  0.5112710000000 1.0
C      1  0.5339380000000  0.5766890000000  0.4707740000000 1.0
C      1  0.4482690000000  0.5293560000000  0.4066780000000 1.0
C      1  0.5383800000000  0.5883310000000  0.5414290000000 1.0
C      1  0.5014920000000  0.4720050000000  0.5968840000000 1.0
C      1  0.5275210000000  0.4278110000000  0.5296500000000 1.0
C      1  0.4876790000000  0.5212980000000  0.4524160000000 1.0
C      1  0.5293020000000  0.5322740000000  0.5088780000000 1.0
C      1  0.4537000000000  0.5506550000000  0.5341640000000 1.0
C      1  0.4373770000000  0.5206050000000  0.5135900000000 1.0
C      1  0.5629170000000  0.3947520000000  0.5099910000000 1.0
C      1  0.5168810000000  0.5705130000000  0.5445790000000 1.0
C      1  0.4272810000000  0.4800530000000  0.5216240000000 1.0
C      1  0.5122150000000  0.4106410000000  0.5517480000000 1.0
C      1  0.5959830000000  0.5214110000000  0.5072030000000 1.0
C      1  0.5430960000000  0.5198350000000  0.5754680000000 1.0
C      1  0.4046440000000  0.5144020000000  0.4684080000000 1.0
C      1  0.5293920000000  0.4845500000000  0.4961420000000 1.0
C      1  0.4645780000000  0.4403800000000  0.5796720000000 1.0
C      1  0.5467080000000  0.4958500000000  0.4371480000000 1.0
C      1  0.4699960000000  0.5702480000000  0.5647050000000 1.0
C      1  0.5802890000000  0.4556130000000  0.4677690000000 1.0
C      1  0.5374310000000  0.4733860000000  0.5633970000000 1.0
C      1  0.5699410000000  0.4796260000000  0.5695050000000 1.0
C      1  0.5216150000000  0.5411710000000  0.5392230000000 1.0
C      1  0.4016520000000  0.4669830000000  0.4763090000000 1.0
C      1  0.5103500000000  0.6205450000000  0.4856380000000 1.0
C      1  0.5955380000000  0.4829450000000  0.4542000000000 1.0
C      1  0.4747830000000  0.4403180000000  0.5282630000000 1.0
C      1  0.4948430000000  0.5224430000000  0.4201840000000 1.0
C      1  0.5365060000000  0.5090360000000  0.4637780000000 1.0
C      1  0.4937070000000  0.4415010000000  0.5873390000000 1.0
C      1  0.5253270000000  0.4579780000000  0.5354880000000 1.0
C      1  0.4592080000000  0.5164260000000  0.5352710000000 1.0
C      1  0.4852590000000  0.4798470000000  0.5667150000000 1.0
C      1  0.4835290000000  0.5374660000000  0.5283440000000 1.0
C      1  0.5129770000000  0.4952260000000  0.5666460000000 1.0
C      1  0.4238090000000  0.4495770000000  0.4753210000000 1.0
C      1  0.4626040000000  0.4813040000000  0.4117670000000 1.0
C      1  0.5687160000000  0.5413470000000  0.4414160000000 1.0
C      1  0.4440090000000  0.4277530000000  0.5254060000000 1.0
C      1  0.5001410000000  0.4739840000000  0.4821510000000 1.0
C      1  0.4608820000000  0.4299020000000  0.4736590000000 1.0
C      1  0.5565690000000  0.4970390000000  0.5893380000000 1.0
C      1  0.4806090000000  0.4580740000000  0.4997330000000 1.0
C      1  0.4385530000000  0.4841500000000  0.5467360000000 1.0
C      1  0.4969100000000  0.4648410000000  0.5280680000000 1.0
C      1  0.5241150000000  0.4939050000000  0.5990480000000 1.0
END
