TITL C-2778437-8639-747 0.00209745576761564 125000 -132.333754315 0 0 25 (C1) n - 1
REM
REM in /home/nfs/bkarasulu/CARBON/AIRSS/Generating-Clusters/REBO/Only-C1/SD-CG/HFTN-CG
REM
REM
REM
REM
REM
REM ./C.cell (11c1c37f851c82e70ff6c80c92926a4b)
REM
REM compiler GCC version 9.2.1 20190827 (Red Hat 9.2.1-1)
REM options -cpp -mtune=generic -march=x86-64 -g -O0 -fpre-include=/usr/include/finclude/math-vector-fortran.h
REM seed -1614785285 -137365184 364740763 -1853119810 708703570 -1212854007 1610311853 1136550535 1680608624 -260445506 -1059223631 -1142532590 1386345457 2120466063 676223059 -1318469450 -184026974 -717506436 1783401721 -439140384 360288200 -552529146 1827291613 1003744018 1057487312 -1829153428 -1361005811 1616378310 -2127101173 1887008607 1869163197 -969165094 -283802788
REM
CELL 1.54180   50.00000   50.00000   50.00000   90.00000   90.00000   90.00000
LATT -1
SFAC C  
C      1  0.4477000000000  0.4979160000000  0.5284640000000 1.0
C      1  0.5179490000000  0.5266600000000  0.5127730000000 1.0
C      1  0.4967220000000  0.4523100000000  0.5442590000000 1.0
C      1  0.5510030000000  0.4929860000000  0.4718940000000 1.0
C      1  0.5311980000000  0.4682740000000  0.4624500000000 1.0
C      1  0.4979800000000  0.4739840000000  0.4672340000000 1.0
C      1  0.4589800000000  0.4636750000000  0.4951300000000 1.0
C      1  0.4995400000000  0.4736710000000  0.5196410000000 1.0
C      1  0.4765530000000  0.4822720000000  0.4464160000000 1.0
C      1  0.5464160000000  0.5129670000000  0.5181590000000 1.0
C      1  0.4761090000000  0.4962260000000  0.5367230000000 1.0
C      1  0.5159480000000  0.5455220000000  0.4917160000000 1.0
C      1  0.4830580000000  0.4732120000000  0.5560580000000 1.0
C      1  0.4406780000000  0.4783770000000  0.5092680000000 1.0
C      1  0.4968210000000  0.5157120000000  0.5255110000000 1.0
C      1  0.4773500000000  0.5314090000000  0.4567510000000 1.0
C      1  0.5360490000000  0.5633020000000  0.4869840000000 1.0
C      1  0.5606240000000  0.5212400000000  0.5406270000000 1.0
C      1  0.5200250000000  0.4992990000000  0.4663640000000 1.0
C      1  0.4694100000000  0.5085340000000  0.4445180000000 1.0
C      1  0.4308620000000  0.5167620000000  0.5383720000000 1.0
C      1  0.5631800000000  0.5073930000000  0.4925930000000 1.0
C      1  0.4861460000000  0.4667020000000  0.4938410000000 1.0
C      1  0.5256640000000  0.4881620000000  0.5201140000000 1.0
C      1  0.4940350000000  0.5434330000000  0.4741430000000 1.0
END
