TITL C-2778423-5760-581 -8.31139238842576e-05 125000 -940.842566016346 0 0 164 (C1) n - 1
REM
REM in /home/nfs/bkarasulu/CARBON/AIRSS/Generating-Clusters/REBO/Only-C1/SD-CG/HFTN-CG
REM
REM
REM
REM
REM
REM ./C.cell (11c1c37f851c82e70ff6c80c92926a4b)
REM
REM compiler GCC version 9.2.1 20190827 (Red Hat 9.2.1-1)
REM options -cpp -mtune=generic -march=x86-64 -g -O0 -fpre-include=/usr/include/finclude/math-vector-fortran.h
REM seed -64816504 1070592346 -590891865 -1997811651 -1263545604 2062757766 -113309972 -327922580 218921057 -1184168895 45056799 774663871 -1728175815 817562685 -2134181021 1582437279 -1935731261 17249889 900338935 -651309619 -667604263 447819089 1424982497 1270503235 -520427608 643388457 -162514036 1248792313 -447145587 -1444952247 1709139923 -2100165394 1573658885
REM
CELL 1.54180   50.00000   50.00000   50.00000   90.00000   90.00000   90.00000
LATT -1
SFAC C  
C      1  0.5534910000000  0.5110140000000  0.5022840000000 1.0
C      1  0.5137660000000  0.5182550000000  0.4946590000000 1.0
C      1  0.4303790000000  0.5645040000000  0.4493680000000 1.0
C      1  0.4888380000000  0.4992770000000  0.4545150000000 1.0
C      1  0.4406980000000  0.5138440000000  0.4162440000000 1.0
C      1  0.4966770000000  0.5597910000000  0.4716310000000 1.0
C      1  0.5148650000000  0.4849530000000  0.4727900000000 1.0
C      1  0.4165920000000  0.4937490000000  0.5514360000000 1.0
C      1  0.5515220000000  0.5425990000000  0.4179420000000 1.0
C      1  0.5752800000000  0.5355850000000  0.5777600000000 1.0
C      1  0.5496460000000  0.5217160000000  0.4517820000000 1.0
C      1  0.5989260000000  0.4009480000000  0.5424050000000 1.0
C      1  0.5133610000000  0.4525440000000  0.4678600000000 1.0
C      1  0.5620010000000  0.5611120000000  0.5382500000000 1.0
C      1  0.4749110000000  0.5678470000000  0.4156510000000 1.0
C      1  0.5293780000000  0.4412640000000  0.5127030000000 1.0
C      1  0.5003090000000  0.4919230000000  0.5326730000000 1.0
C      1  0.4498100000000  0.5690130000000  0.5498430000000 1.0
C      1  0.5516730000000  0.5439660000000  0.5889670000000 1.0
C      1  0.5225040000000  0.4703770000000  0.5292970000000 1.0
C      1  0.4318600000000  0.5103390000000  0.5066840000000 1.0
C      1  0.4385140000000  0.5231770000000  0.5883080000000 1.0
C      1  0.4917260000000  0.4656180000000  0.4467640000000 1.0
C      1  0.5419670000000  0.4341560000000  0.5774590000000 1.0
C      1  0.5912870000000  0.5224580000000  0.5166300000000 1.0
C      1  0.5061140000000  0.5504910000000  0.5403130000000 1.0
C      1  0.5644930000000  0.4568480000000  0.5658040000000 1.0
C      1  0.5329450000000  0.4876700000000  0.4241890000000 1.0
C      1  0.5399630000000  0.5570910000000  0.4774460000000 1.0
C      1  0.4877460000000  0.5941300000000  0.4296370000000 1.0
C      1  0.4946020000000  0.4084540000000  0.5066190000000 1.0
C      1  0.4923920000000  0.5566060000000  0.5147170000000 1.0
C      1  0.5470900000000  0.5885800000000  0.4838500000000 1.0
C      1  0.4695040000000  0.5365830000000  0.5968190000000 1.0
C      1  0.5150060000000  0.4166530000000  0.5729620000000 1.0
C      1  0.5470160000000  0.4729960000000  0.4739430000000 1.0
C      1  0.5845330000000  0.4922250000000  0.5205710000000 1.0
C      1  0.4963200000000  0.4599790000000  0.4147830000000 1.0
C      1  0.5806000000000  0.5365720000000  0.5451840000000 1.0
C      1  0.4568760000000  0.4483440000000  0.4797140000000 1.0
C      1  0.4699820000000  0.4171430000000  0.5527840000000 1.0
C      1  0.4116720000000  0.5365800000000  0.5291300000000 1.0
C      1  0.5164090000000  0.4514760000000  0.5920780000000 1.0
C      1  0.4312950000000  0.4413620000000  0.4300060000000 1.0
C      1  0.5648750000000  0.5259630000000  0.4780320000000 1.0
C      1  0.4263940000000  0.4362960000000  0.5020180000000 1.0
C      1  0.5308770000000  0.4425740000000  0.5471100000000 1.0
C      1  0.4753860000000  0.4849440000000  0.4832650000000 1.0
C      1  0.4733460000000  0.5703940000000  0.4492770000000 1.0
C      1  0.5351820000000  0.5457160000000  0.5307790000000 1.0
C      1  0.5136170000000  0.5226250000000  0.5778120000000 1.0
C      1  0.5279350000000  0.5256380000000  0.4063390000000 1.0
C      1  0.4716940000000  0.4158280000000  0.4624920000000 1.0
C      1  0.5102720000000  0.4732580000000  0.5669900000000 1.0
C      1  0.4408240000000  0.4125080000000  0.5416230000000 1.0
C      1  0.5647300000000  0.4897370000000  0.4129920000000 1.0
C      1  0.4911400000000  0.4393850000000  0.5236480000000 1.0
C      1  0.4513850000000  0.5318770000000  0.5201690000000 1.0
C      1  0.5759190000000  0.4449680000000  0.5357020000000 1.0
C      1  0.4352960000000  0.4522520000000  0.4576960000000 1.0
C      1  0.5378940000000  0.4952640000000  0.4529350000000 1.0
C      1  0.5920490000000  0.4619970000000  0.4825170000000 1.0
C      1  0.4182820000000  0.5243600000000  0.5602580000000 1.0
C      1  0.5101350000000  0.4174700000000  0.5414620000000 1.0
C      1  0.5394920000000  0.4775470000000  0.3932750000000 1.0
C      1  0.4851230000000  0.4897120000000  0.4026920000000 1.0
C      1  0.5159240000000  0.4250880000000  0.4252380000000 1.0
C      1  0.4420810000000  0.5346690000000  0.4379290000000 1.0
C      1  0.5804240000000  0.4809380000000  0.5517980000000 1.0
C      1  0.5274900000000  0.5019330000000  0.5887830000000 1.0
C      1  0.4241610000000  0.5373690000000  0.4916380000000 1.0
C      1  0.4017480000000  0.5139070000000  0.4696070000000 1.0
C      1  0.5282970000000  0.5900650000000  0.4568630000000 1.0
C      1  0.5006650000000  0.5978480000000  0.4582610000000 1.0
C      1  0.4657800000000  0.4087410000000  0.5197050000000 1.0
C      1  0.5436290000000  0.4717560000000  0.5889490000000 1.0
C      1  0.4165850000000  0.4924750000000  0.5201550000000 1.0
C      1  0.5208580000000  0.3935370000000  0.5222570000000 1.0
C      1  0.5414710000000  0.5147090000000  0.5311940000000 1.0
C      1  0.5344540000000  0.5843800000000  0.5214430000000 1.0
C      1  0.4436140000000  0.4906520000000  0.5658260000000 1.0
C      1  0.4562190000000  0.4824260000000  0.5216860000000 1.0
C      1  0.4982630000000  0.5504060000000  0.5850150000000 1.0
C      1  0.4648100000000  0.5152350000000  0.4012970000000 1.0
C      1  0.4778510000000  0.5324960000000  0.5048610000000 1.0
C      1  0.4442400000000  0.5530330000000  0.4848280000000 1.0
C      1  0.3954150000000  0.5251130000000  0.5013560000000 1.0
C      1  0.4036180000000  0.4678840000000  0.5101010000000 1.0
C      1  0.4360190000000  0.5597920000000  0.5232700000000 1.0
C      1  0.5854920000000  0.4766150000000  0.4584080000000 1.0
C      1  0.5151130000000  0.4996450000000  0.3905640000000 1.0
C      1  0.5395720000000  0.5716320000000  0.4320520000000 1.0
C      1  0.5878910000000  0.5512770000000  0.4984000000000 1.0
C      1  0.5089930000000  0.5081440000000  0.4286730000000 1.0
C      1  0.4528750000000  0.4175460000000  0.4908730000000 1.0
C      1  0.5417680000000  0.4114630000000  0.4399290000000 1.0
C      1  0.5719270000000  0.5575340000000  0.4697880000000 1.0
C      1  0.5051410000000  0.4155530000000  0.4553350000000 1.0
C      1  0.5055960000000  0.5268100000000  0.4679310000000 1.0
C      1  0.5444200000000  0.4446840000000  0.4612230000000 1.0
C      1  0.5920830000000  0.4614540000000  0.5104970000000 1.0
C      1  0.4708150000000  0.5059730000000  0.6039260000000 1.0
C      1  0.4690200000000  0.5120900000000  0.5625510000000 1.0
C      1  0.4778500000000  0.5404150000000  0.4050700000000 1.0
C      1  0.4726160000000  0.5880270000000  0.5435390000000 1.0
C      1  0.4135430000000  0.4604500000000  0.4812160000000 1.0
C      1  0.4193110000000  0.4882130000000  0.4620510000000 1.0
C      1  0.4911620000000  0.6111850000000  0.5501480000000 1.0
C      1  0.4418020000000  0.4907970000000  0.5987570000000 1.0
C      1  0.4320600000000  0.5525500000000  0.5723420000000 1.0
C      1  0.5185180000000  0.5995340000000  0.5475320000000 1.0
C      1  0.6032820000000  0.5239720000000  0.4846140000000 1.0
C      1  0.5641770000000  0.5081660000000  0.5510620000000 1.0
C      1  0.4971190000000  0.5383350000000  0.4307580000000 1.0
C      1  0.5514880000000  0.4425580000000  0.4296780000000 1.0
C      1  0.5258880000000  0.5454660000000  0.4485000000000 1.0
C      1  0.4491670000000  0.5866480000000  0.4651370000000 1.0
C      1  0.5268790000000  0.4516490000000  0.4082880000000 1.0
C      1  0.4488460000000  0.4589720000000  0.5890000000000 1.0
C      1  0.4602490000000  0.4799580000000  0.4240740000000 1.0
C      1  0.5724510000000  0.4666270000000  0.4342300000000 1.0
C      1  0.4467940000000  0.4632550000000  0.5070670000000 1.0
C      1  0.5723980000000  0.5177320000000  0.4286770000000 1.0
C      1  0.5005540000000  0.4297460000000  0.4859990000000 1.0
C      1  0.4308290000000  0.4486510000000  0.5618080000000 1.0
C      1  0.4825380000000  0.4541330000000  0.5883350000000 1.0
C      1  0.4864790000000  0.4632710000000  0.5447320000000 1.0
C      1  0.5762190000000  0.4142420000000  0.5335670000000 1.0
C      1  0.5114750000000  0.5764840000000  0.4973450000000 1.0
C      1  0.5349370000000  0.5394240000000  0.5006590000000 1.0
C      1  0.5307680000000  0.5588250000000  0.5793440000000 1.0
C      1  0.4698620000000  0.5415950000000  0.4766800000000 1.0
C      1  0.5344940000000  0.4148130000000  0.5009610000000 1.0
C      1  0.5347970000000  0.4144410000000  0.4723740000000 1.0
C      1  0.4754670000000  0.4376320000000  0.4404070000000 1.0
C      1  0.4641870000000  0.5432520000000  0.5654130000000 1.0
C      1  0.4531980000000  0.4814750000000  0.4576950000000 1.0
C      1  0.5869360000000  0.5090090000000  0.4585650000000 1.0
C      1  0.4701900000000  0.5282480000000  0.4494580000000 1.0
C      1  0.4754600000000  0.5854480000000  0.5116730000000 1.0
C      1  0.4276230000000  0.4893570000000  0.4290140000000 1.0
C      1  0.5402230000000  0.4881850000000  0.5607270000000 1.0
C      1  0.5645090000000  0.5739680000000  0.5083850000000 1.0
C      1  0.5388250000000  0.5763070000000  0.5558340000000 1.0
C      1  0.5544230000000  0.3996790000000  0.5227180000000 1.0
C      1  0.5535510000000  0.4621790000000  0.5206770000000 1.0
C      1  0.5705260000000  0.5614700000000  0.4393750000000 1.0
C      1  0.5200970000000  0.6070920000000  0.4920690000000 1.0
C      1  0.4842080000000  0.4562380000000  0.4948820000000 1.0
C      1  0.4789870000000  0.5956590000000  0.4794160000000 1.0
C      1  0.4838710000000  0.4874260000000  0.5806500000000 1.0
C      1  0.4123320000000  0.5363840000000  0.4535630000000 1.0
C      1  0.4463450000000  0.5811360000000  0.4986930000000 1.0
C      1  0.5114840000000  0.5180620000000  0.5468600000000 1.0
C      1  0.4601530000000  0.4634330000000  0.5566350000000 1.0
C      1  0.5603260000000  0.4817910000000  0.4982330000000 1.0
C      1  0.4056120000000  0.4624630000000  0.5437660000000 1.0
C      1  0.4866610000000  0.4268100000000  0.5724110000000 1.0
C      1  0.4501290000000  0.4516220000000  0.4128510000000 1.0
C      1  0.4752050000000  0.4353210000000  0.4086170000000 1.0
C      1  0.4990500000000  0.5734120000000  0.5599300000000 1.0
C      1  0.4200660000000  0.4337840000000  0.5328980000000 1.0
C      1  0.4898800000000  0.5024510000000  0.5058640000000 1.0
C      1  0.4612110000000  0.5055740000000  0.5334240000000 1.0
END
