TITL C-2778429-3646-1004 -0.0507923105503964 125000 -574.962186841481 0 0 100 (C1) n - 1
REM
REM in /home/nfs/bkarasulu/CARBON/AIRSS/Generating-Clusters/REBO/Only-C1/SD-CG/HFTN-CG
REM
REM
REM
REM
REM
REM ./C.cell (11c1c37f851c82e70ff6c80c92926a4b)
REM
REM compiler GCC version 9.2.1 20190827 (Red Hat 9.2.1-1)
REM options -cpp -mtune=generic -march=x86-64 -g -O0 -fpre-include=/usr/include/finclude/math-vector-fortran.h
REM seed 1874531658 736636524 -1193138817 1264771372 896325600 202231128 198498066 970051547 -2117914921 -734039968 -1209514162 -517134882 1009746819 1418649058 502583523 -1734825810 -1999599225 767616136 1852729535 985529927 -1821321775 538173468 -890860625 -1253297994 -225747796 -833931963 -1259862394 1756108219 688896236 -1481126900 -1651674535 -1073870648 1311319125
REM
CELL 1.54180   50.00000   50.00000   50.00000   90.00000   90.00000   90.00000
LATT -1
SFAC C  
C      1  0.4482450000000  0.5762080000000  0.4845170000000 1.0
C      1  0.5376230000000  0.4683430000000  0.4309760000000 1.0
C      1  0.5630540000000  0.5144440000000  0.5475520000000 1.0
C      1  0.5016870000000  0.4853150000000  0.5988080000000 1.0
C      1  0.5174880000000  0.4287280000000  0.5486750000000 1.0
C      1  0.4403100000000  0.5457840000000  0.4974940000000 1.0
C      1  0.4406780000000  0.4975020000000  0.4544110000000 1.0
C      1  0.5589860000000  0.4541900000000  0.4220330000000 1.0
C      1  0.5095080000000  0.4719850000000  0.5436780000000 1.0
C      1  0.5145600000000  0.5083760000000  0.5038990000000 1.0
C      1  0.5028390000000  0.5159410000000  0.5864010000000 1.0
C      1  0.4777960000000  0.4829290000000  0.4873940000000 1.0
C      1  0.4734500000000  0.5864160000000  0.4814660000000 1.0
C      1  0.4463260000000  0.4429430000000  0.5729050000000 1.0
C      1  0.4821880000000  0.5315130000000  0.5639240000000 1.0
C      1  0.5698240000000  0.4873520000000  0.5020730000000 1.0
C      1  0.4564150000000  0.5503800000000  0.5555790000000 1.0
C      1  0.4902070000000  0.4863200000000  0.4570390000000 1.0
C      1  0.5743460000000  0.4503270000000  0.4889090000000 1.0
C      1  0.5380250000000  0.4639830000000  0.4958720000000 1.0
C      1  0.3787050000000  0.4936580000000  0.4465610000000 1.0
C      1  0.5107270000000  0.4616400000000  0.4239550000000 1.0
C      1  0.5772130000000  0.5395700000000  0.4753820000000 1.0
C      1  0.4780800000000  0.4253890000000  0.4469170000000 1.0
C      1  0.5319700000000  0.5205430000000  0.5823780000000 1.0
C      1  0.4875650000000  0.4174230000000  0.5367710000000 1.0
C      1  0.5152480000000  0.5830270000000  0.5096000000000 1.0
C      1  0.5402630000000  0.5639120000000  0.4319800000000 1.0
C      1  0.5109810000000  0.5715850000000  0.4319850000000 1.0
C      1  0.5510070000000  0.5332180000000  0.4327130000000 1.0
C      1  0.5599860000000  0.4974040000000  0.4718790000000 1.0
C      1  0.4850970000000  0.5256270000000  0.4189250000000 1.0
C      1  0.4707620000000  0.4512400000000  0.5824970000000 1.0
C      1  0.5457080000000  0.5958850000000  0.5485590000000 1.0
C      1  0.4622900000000  0.4211400000000  0.5260450000000 1.0
C      1  0.4153930000000  0.5027240000000  0.4849520000000 1.0
C      1  0.4410580000000  0.5213700000000  0.4787610000000 1.0
C      1  0.5026940000000  0.5003470000000  0.5347890000000 1.0
C      1  0.5416750000000  0.5248230000000  0.4644770000000 1.0
C      1  0.4457070000000  0.5702460000000  0.5688290000000 1.0
C      1  0.5401870000000  0.5740110000000  0.4589320000000 1.0
C      1  0.5141610000000  0.5084890000000  0.4555430000000 1.0
C      1  0.4807910000000  0.5333510000000  0.5297700000000 1.0
C      1  0.5000420000000  0.4521820000000  0.5215860000000 1.0
C      1  0.5790060000000  0.5253800000000  0.4506680000000 1.0
C      1  0.4610860000000  0.4335680000000  0.4719220000000 1.0
C      1  0.4917290000000  0.5311460000000  0.4990580000000 1.0
C      1  0.4727170000000  0.4818390000000  0.5159620000000 1.0
C      1  0.4326470000000  0.4489590000000  0.4738550000000 1.0
C      1  0.4232360000000  0.4416660000000  0.5015230000000 1.0
C      1  0.4726750000000  0.4573840000000  0.5386860000000 1.0
C      1  0.4839290000000  0.5535940000000  0.4355200000000 1.0
C      1  0.5141120000000  0.5310000000000  0.5366220000000 1.0
C      1  0.3965540000000  0.4980680000000  0.4652370000000 1.0
C      1  0.5058600000000  0.4402870000000  0.4976450000000 1.0
C      1  0.5080720000000  0.5101430000000  0.4079740000000 1.0
C      1  0.5477630000000  0.4462400000000  0.4713720000000 1.0
C      1  0.5224450000000  0.4673930000000  0.5907670000000 1.0
C      1  0.4995980000000  0.4397890000000  0.4401370000000 1.0
C      1  0.4293690000000  0.5133490000000  0.5309730000000 1.0
C      1  0.4724290000000  0.5152140000000  0.4781160000000 1.0
C      1  0.4942020000000  0.4476370000000  0.5619710000000 1.0
C      1  0.5392560000000  0.5321660000000  0.5554710000000 1.0
C      1  0.5294680000000  0.4249870000000  0.4996000000000 1.0
C      1  0.4142230000000  0.4939300000000  0.5117670000000 1.0
C      1  0.5916430000000  0.4746580000000  0.4786600000000 1.0
C      1  0.4733520000000  0.4963200000000  0.5472080000000 1.0
C      1  0.4472450000000  0.5377560000000  0.5262520000000 1.0
C      1  0.5894550000000  0.4964280000000  0.4555580000000 1.0
C      1  0.5514820000000  0.4972530000000  0.5700930000000 1.0
C      1  0.4925110000000  0.4864390000000  0.4217760000000 1.0
C      1  0.5394220000000  0.5836410000000  0.4885340000000 1.0
C      1  0.4860310000000  0.4520180000000  0.4764720000000 1.0
C      1  0.5399340000000  0.5278070000000  0.5157200000000 1.0
C      1  0.4436260000000  0.4447630000000  0.5416940000000 1.0
C      1  0.5558860000000  0.5570400000000  0.5193170000000 1.0
C      1  0.5388110000000  0.4879630000000  0.4504700000000 1.0
C      1  0.4486860000000  0.4240900000000  0.5005090000000 1.0
C      1  0.5341290000000  0.5169490000000  0.4118610000000 1.0
C      1  0.5766050000000  0.5393150000000  0.5051080000000 1.0
C      1  0.5176820000000  0.4832230000000  0.4862160000000 1.0
C      1  0.4876390000000  0.5969590000000  0.5025000000000 1.0
C      1  0.4861370000000  0.5254530000000  0.4523000000000 1.0
C      1  0.4734220000000  0.4756510000000  0.5958730000000 1.0
C      1  0.4641740000000  0.4931740000000  0.4393250000000 1.0
C      1  0.5015960000000  0.5592860000000  0.4894340000000 1.0
C      1  0.5402760000000  0.4249310000000  0.5247680000000 1.0
C      1  0.5401920000000  0.5783850000000  0.5279830000000 1.0
C      1  0.5424030000000  0.4704970000000  0.5706250000000 1.0
C      1  0.5476680000000  0.5517100000000  0.4805950000000 1.0
C      1  0.5166630000000  0.4573470000000  0.4632410000000 1.0
C      1  0.4275530000000  0.4731880000000  0.4609490000000 1.0
C      1  0.4728110000000  0.5022790000000  0.5774940000000 1.0
C      1  0.4924830000000  0.5726080000000  0.4606420000000 1.0
C      1  0.5694190000000  0.5114970000000  0.5181980000000 1.0
C      1  0.5597120000000  0.4594960000000  0.5190190000000 1.0
C      1  0.4449480000000  0.4857400000000  0.5352380000000 1.0
C      1  0.5443260000000  0.4501670000000  0.5473780000000 1.0
C      1  0.4182970000000  0.5713240000000  0.4930300000000 1.0
C      1  0.4225380000000  0.4631250000000  0.5237210000000 1.0
END
