TITL C-2778426-5645-1030 -0.00236289925112539 125000 -988.647223757411 0 0 167 (C1) n - 1
REM
REM in /home/nfs/bkarasulu/CARBON/AIRSS/Generating-Clusters/REBO/Only-C1/SD-CG/HFTN-CG
REM
REM
REM
REM
REM
REM ./C.cell (11c1c37f851c82e70ff6c80c92926a4b)
REM
REM compiler GCC version 9.2.1 20190827 (Red Hat 9.2.1-1)
REM options -cpp -mtune=generic -march=x86-64 -g -O0 -fpre-include=/usr/include/finclude/math-vector-fortran.h
REM seed 789523659 -248300676 -1385041281 1822424927 781746836 -812294980 566176783 933417733 -1189411225 -1580531049 937218703 719719908 -713202927 -641716503 -1762039890 1071737602 1369146089 1722689233 -1569625509 1601036795 -314470270 -158836705 -1732553965 -1300454956 -1100223536 713432685 355315263 -1630667092 -790512563 -807436821 -177171544 399821942 -1283161442
REM
CELL 1.54180   50.00000   50.00000   50.00000   90.00000   90.00000   90.00000
LATT -1
SFAC C  
C      1  0.5537880000000  0.4499060000000  0.4419370000000 1.0
C      1  0.4669980000000  0.4846860000000  0.3930390000000 1.0
C      1  0.5377620000000  0.5184070000000  0.6035470000000 1.0
C      1  0.5664900000000  0.5749540000000  0.4527420000000 1.0
C      1  0.4910250000000  0.4426410000000  0.5203730000000 1.0
C      1  0.4363880000000  0.4796480000000  0.5097390000000 1.0
C      1  0.5091560000000  0.5388190000000  0.4888630000000 1.0
C      1  0.4356920000000  0.4683130000000  0.4117800000000 1.0
C      1  0.5466830000000  0.4654760000000  0.4815820000000 1.0
C      1  0.4462260000000  0.5205980000000  0.4702970000000 1.0
C      1  0.4232150000000  0.5599190000000  0.4578490000000 1.0
C      1  0.4744330000000  0.3931090000000  0.5438950000000 1.0
C      1  0.3980590000000  0.5071220000000  0.5172210000000 1.0
C      1  0.4414040000000  0.5725120000000  0.4333010000000 1.0
C      1  0.5246280000000  0.5955080000000  0.5459200000000 1.0
C      1  0.6051250000000  0.4931170000000  0.4573140000000 1.0
C      1  0.5939820000000  0.4509320000000  0.5561900000000 1.0
C      1  0.4083820000000  0.5085090000000  0.4458230000000 1.0
C      1  0.5758180000000  0.4630490000000  0.5227820000000 1.0
C      1  0.5767710000000  0.5296540000000  0.4934820000000 1.0
C      1  0.5409160000000  0.5773750000000  0.5298570000000 1.0
C      1  0.4487710000000  0.4474800000000  0.4082210000000 1.0
C      1  0.5613700000000  0.4789560000000  0.5433960000000 1.0
C      1  0.4758480000000  0.4676850000000  0.4733040000000 1.0
C      1  0.5724700000000  0.4781340000000  0.4959950000000 1.0
C      1  0.5153890000000  0.5322040000000  0.5734110000000 1.0
C      1  0.5373990000000  0.5696590000000  0.4628070000000 1.0
C      1  0.5334380000000  0.4467070000000  0.5240030000000 1.0
C      1  0.4858390000000  0.4717620000000  0.5905050000000 1.0
C      1  0.5141750000000  0.5842470000000  0.4558880000000 1.0
C      1  0.4868900000000  0.5314990000000  0.6068920000000 1.0
C      1  0.4927970000000  0.4942970000000  0.4342460000000 1.0
C      1  0.4946610000000  0.4200090000000  0.4566510000000 1.0
C      1  0.4589340000000  0.4016080000000  0.5652450000000 1.0
C      1  0.4587690000000  0.4790310000000  0.5760220000000 1.0
C      1  0.4501760000000  0.4554190000000  0.5563050000000 1.0
C      1  0.4949760000000  0.5651530000000  0.4952280000000 1.0
C      1  0.5841940000000  0.5243310000000  0.5552010000000 1.0
C      1  0.4481170000000  0.5043600000000  0.5906940000000 1.0
C      1  0.4895720000000  0.5713800000000  0.5249370000000 1.0
C      1  0.4266470000000  0.5236090000000  0.5630320000000 1.0
C      1  0.4644390000000  0.5291500000000  0.5843590000000 1.0
C      1  0.4382890000000  0.4085660000000  0.5208490000000 1.0
C      1  0.5652960000000  0.5622440000000  0.5307430000000 1.0
C      1  0.5254050000000  0.5701310000000  0.5072450000000 1.0
C      1  0.4210380000000  0.5498330000000  0.5419430000000 1.0
C      1  0.5024850000000  0.6002810000000  0.4777760000000 1.0
C      1  0.4401440000000  0.5264590000000  0.3943840000000 1.0
C      1  0.4781380000000  0.5771950000000  0.4717340000000 1.0
C      1  0.4574800000000  0.5461410000000  0.4861260000000 1.0
C      1  0.4553340000000  0.4600550000000  0.5250180000000 1.0
C      1  0.4876540000000  0.5411990000000  0.4137000000000 1.0
C      1  0.4254010000000  0.4174410000000  0.4902890000000 1.0
C      1  0.3976530000000  0.4824260000000  0.4585010000000 1.0
C      1  0.5082280000000  0.5133780000000  0.6111190000000 1.0
C      1  0.4868040000000  0.5289750000000  0.5610530000000 1.0
C      1  0.4228460000000  0.4296460000000  0.5432780000000 1.0
C      1  0.5948700000000  0.5634870000000  0.4407030000000 1.0
C      1  0.5199840000000  0.6087680000000  0.4987330000000 1.0
C      1  0.5648320000000  0.4785260000000  0.4568190000000 1.0
C      1  0.5007370000000  0.4511430000000  0.5485790000000 1.0
C      1  0.4686120000000  0.4482690000000  0.4964710000000 1.0
C      1  0.4719270000000  0.4146250000000  0.5177070000000 1.0
C      1  0.6184000000000  0.4634420000000  0.5038980000000 1.0
C      1  0.5678040000000  0.5804970000000  0.4859060000000 1.0
C      1  0.4698930000000  0.4338470000000  0.4285470000000 1.0
C      1  0.4643350000000  0.4171320000000  0.4579650000000 1.0
C      1  0.4191350000000  0.4635900000000  0.5416280000000 1.0
C      1  0.4882690000000  0.5268560000000  0.3884970000000 1.0
C      1  0.5993830000000  0.4719950000000  0.4778610000000 1.0
C      1  0.4213120000000  0.5311990000000  0.4565150000000 1.0
C      1  0.5690130000000  0.4951210000000  0.4201590000000 1.0
C      1  0.5207000000000  0.4032720000000  0.4682260000000 1.0
C      1  0.4856460000000  0.4990530000000  0.5128010000000 1.0
C      1  0.4529540000000  0.5838250000000  0.5348310000000 1.0
C      1  0.4779990000000  0.6005780000000  0.5259820000000 1.0
C      1  0.6099390000000  0.5456080000000  0.4548700000000 1.0
C      1  0.4273050000000  0.5040120000000  0.6068460000000 1.0
C      1  0.4313360000000  0.4856290000000  0.4378390000000 1.0
C      1  0.5569410000000  0.5549400000000  0.5794800000000 1.0
C      1  0.4331050000000  0.4910640000000  0.5562810000000 1.0
C      1  0.5055110000000  0.4850640000000  0.6063460000000 1.0
C      1  0.5942630000000  0.4892620000000  0.4320410000000 1.0
C      1  0.4388410000000  0.4330150000000  0.4440990000000 1.0
C      1  0.5603440000000  0.5074240000000  0.5012720000000 1.0
C      1  0.4739080000000  0.5346820000000  0.5237830000000 1.0
C      1  0.5126800000000  0.4549370000000  0.4995900000000 1.0
C      1  0.5743540000000  0.4301040000000  0.4867170000000 1.0
C      1  0.4014470000000  0.5426190000000  0.5232550000000 1.0
C      1  0.5596670000000  0.5360250000000  0.6009800000000 1.0
C      1  0.5076460000000  0.6092220000000  0.5257470000000 1.0
C      1  0.4078600000000  0.4706410000000  0.5096120000000 1.0
C      1  0.4552040000000  0.5795390000000  0.5641980000000 1.0
C      1  0.4844210000000  0.4761090000000  0.4136700000000 1.0
C      1  0.4955630000000  0.5206890000000  0.4670260000000 1.0
C      1  0.5282310000000  0.5576350000000  0.5756130000000 1.0
C      1  0.5631200000000  0.5257330000000  0.4151240000000 1.0
C      1  0.5414900000000  0.4077920000000  0.4958770000000 1.0
C      1  0.5102150000000  0.4832650000000  0.5554200000000 1.0
C      1  0.4522790000000  0.5895580000000  0.4599350000000 1.0
C      1  0.5149270000000  0.3864310000000  0.4961490000000 1.0
C      1  0.5320240000000  0.4787030000000  0.5336950000000 1.0
C      1  0.5292540000000  0.5012400000000  0.5104690000000 1.0
C      1  0.5674210000000  0.5577300000000  0.4233020000000 1.0
C      1  0.5020350000000  0.4519820000000  0.4586330000000 1.0
C      1  0.5193880000000  0.4239560000000  0.5418430000000 1.0
C      1  0.5315820000000  0.4718930000000  0.6053520000000 1.0
C      1  0.5536740000000  0.4092470000000  0.5277900000000 1.0
C      1  0.5724740000000  0.5500210000000  0.5555940000000 1.0
C      1  0.4989890000000  0.4496880000000  0.5794310000000 1.0
C      1  0.4331900000000  0.4400000000000  0.5129090000000 1.0
C      1  0.4404780000000  0.5429780000000  0.4174480000000 1.0
C      1  0.4832830000000  0.4968080000000  0.4842910000000 1.0
C      1  0.5152640000000  0.5832470000000  0.5704810000000 1.0
C      1  0.4844460000000  0.5805870000000  0.5727520000000 1.0
C      1  0.4012020000000  0.4622290000000  0.4816270000000 1.0
C      1  0.4982270000000  0.4500890000000  0.4189480000000 1.0
C      1  0.5205740000000  0.4830470000000  0.4851510000000 1.0
C      1  0.5300750000000  0.4150200000000  0.5707820000000 1.0
C      1  0.4573600000000  0.4193870000000  0.4874710000000 1.0
C      1  0.4263270000000  0.5121570000000  0.5304360000000 1.0
C      1  0.4666450000000  0.5416590000000  0.4316960000000 1.0
C      1  0.4453260000000  0.4247790000000  0.5661990000000 1.0
C      1  0.4910220000000  0.5591830000000  0.5500100000000 1.0
C      1  0.5230970000000  0.4364670000000  0.5889070000000 1.0
C      1  0.5638140000000  0.4361200000000  0.5129600000000 1.0
C      1  0.4760760000000  0.5451090000000  0.4602180000000 1.0
C      1  0.4880310000000  0.5023330000000  0.5439300000000 1.0
C      1  0.5355980000000  0.5456440000000  0.4769580000000 1.0
C      1  0.4542430000000  0.5451660000000  0.5447360000000 1.0
C      1  0.5459850000000  0.5229740000000  0.4627880000000 1.0
C      1  0.5057090000000  0.5248550000000  0.5163070000000 1.0
C      1  0.5568120000000  0.4180920000000  0.5577130000000 1.0
C      1  0.4427480000000  0.5286240000000  0.5110230000000 1.0
C      1  0.4144650000000  0.4338470000000  0.4682360000000 1.0
C      1  0.5303980000000  0.4333370000000  0.4545780000000 1.0
C      1  0.5482210000000  0.6005570000000  0.4950410000000 1.0
C      1  0.5683270000000  0.5076240000000  0.4606470000000 1.0
C      1  0.4260010000000  0.5705870000000  0.4831970000000 1.0
C      1  0.5789010000000  0.4484640000000  0.4652490000000 1.0
C      1  0.3793320000000  0.5292580000000  0.5046920000000 1.0
C      1  0.4543630000000  0.4895860000000  0.4581360000000 1.0
C      1  0.5072320000000  0.4843020000000  0.4552640000000 1.0
C      1  0.4740890000000  0.5806790000000  0.4280480000000 1.0
C      1  0.5394180000000  0.5483210000000  0.4064680000000 1.0
C      1  0.5974530000000  0.5218630000000  0.4693980000000 1.0
C      1  0.5323490000000  0.5106970000000  0.4173890000000 1.0
C      1  0.4443730000000  0.4951160000000  0.4894000000000 1.0
C      1  0.5252200000000  0.5030020000000  0.5765270000000 1.0
C      1  0.5736550000000  0.5572020000000  0.5029520000000 1.0
C      1  0.4931830000000  0.3831750000000  0.5214800000000 1.0
C      1  0.5148950000000  0.5461710000000  0.4258930000000 1.0
C      1  0.5197400000000  0.5211410000000  0.4460000000000 1.0
C      1  0.4995060000000  0.5730290000000  0.4347790000000 1.0
C      1  0.5266170000000  0.4549410000000  0.4215240000000 1.0
C      1  0.5427490000000  0.4797240000000  0.4177850000000 1.0
C      1  0.5349250000000  0.4360850000000  0.4855290000000 1.0
C      1  0.5225980000000  0.3952910000000  0.5281680000000 1.0
C      1  0.5179690000000  0.5262060000000  0.3914770000000 1.0
C      1  0.5748290000000  0.4990150000000  0.5548460000000 1.0
C      1  0.4424350000000  0.5513730000000  0.5755440000000 1.0
C      1  0.6059650000000  0.4589960000000  0.5285540000000 1.0
C      1  0.4161130000000  0.4572740000000  0.4448660000000 1.0
C      1  0.4637040000000  0.5119930000000  0.3853140000000 1.0
C      1  0.4426690000000  0.5635900000000  0.5113090000000 1.0
C      1  0.5698520000000  0.4418740000000  0.5694900000000 1.0
C      1  0.5496700000000  0.4535380000000  0.5891330000000 1.0
END
