TITL C-2778436-5916-733 0.000227863848049225 125000 -396.854137038283 0 0 68 (C1) n - 1
REM
REM in /home/nfs/bkarasulu/CARBON/AIRSS/Generating-Clusters/REBO/Only-C1/SD-CG/HFTN-CG
REM
REM
REM
REM
REM
REM ./C.cell (11c1c37f851c82e70ff6c80c92926a4b)
REM
REM compiler GCC version 9.2.1 20190827 (Red Hat 9.2.1-1)
REM options -cpp -mtune=generic -march=x86-64 -g -O0 -fpre-include=/usr/include/finclude/math-vector-fortran.h
REM seed 1449623375 200214577 -1680738016 2080890439 593574118 -300851160 -685276667 2039914408 1685161247 -979129523 -757074179 -1692817002 -965725872 622075194 1615413129 -40061604 -719191147 1332704118 -270349405 399717542 1543086754 1807212284 1263494898 -1084436461 1455501627 162113997 -1828549947 -1484704731 877079528 -1715861179 -747229672 -1583761363 -1557057439
REM
CELL 1.54180   50.00000   50.00000   50.00000   90.00000   90.00000   90.00000
LATT -1
SFAC C  
C      1  0.4534740000000  0.6042330000000  0.5181870000000 1.0
C      1  0.5637650000000  0.5312460000000  0.4488230000000 1.0
C      1  0.4560040000000  0.5154450000000  0.5544270000000 1.0
C      1  0.5429490000000  0.5176850000000  0.5431520000000 1.0
C      1  0.4590940000000  0.5095480000000  0.4966770000000 1.0
C      1  0.4794330000000  0.4478870000000  0.4431980000000 1.0
C      1  0.5305190000000  0.5329790000000  0.5698410000000 1.0
C      1  0.5580000000000  0.5283180000000  0.4766240000000 1.0
C      1  0.5331880000000  0.5561810000000  0.5478880000000 1.0
C      1  0.4246870000000  0.5456680000000  0.4872920000000 1.0
C      1  0.5520380000000  0.4855710000000  0.4482690000000 1.0
C      1  0.4624950000000  0.5770770000000  0.5238380000000 1.0
C      1  0.4714580000000  0.4717370000000  0.4954210000000 1.0
C      1  0.4486180000000  0.4687350000000  0.4760760000000 1.0
C      1  0.5089900000000  0.5204180000000  0.5036730000000 1.0
C      1  0.4240740000000  0.5784430000000  0.4911600000000 1.0
C      1  0.5543480000000  0.4563490000000  0.4508420000000 1.0
C      1  0.4747580000000  0.4781180000000  0.5280040000000 1.0
C      1  0.5486160000000  0.4856200000000  0.5486460000000 1.0
C      1  0.4994680000000  0.4588150000000  0.5659850000000 1.0
C      1  0.5316920000000  0.4931660000000  0.4670440000000 1.0
C      1  0.4285070000000  0.5161130000000  0.4855700000000 1.0
C      1  0.4407340000000  0.4936810000000  0.5419590000000 1.0
C      1  0.4404940000000  0.4940570000000  0.4649220000000 1.0
C      1  0.5643060000000  0.5041700000000  0.4874170000000 1.0
C      1  0.5070380000000  0.4174430000000  0.5077780000000 1.0
C      1  0.4554200000000  0.4490160000000  0.4564190000000 1.0
C      1  0.4797590000000  0.5609030000000  0.5400080000000 1.0
C      1  0.5137340000000  0.4695710000000  0.5294650000000 1.0
C      1  0.5554500000000  0.5093880000000  0.4317290000000 1.0
C      1  0.4453390000000  0.5605220000000  0.5070530000000 1.0
C      1  0.4307220000000  0.6055980000000  0.4995560000000 1.0
C      1  0.5735630000000  0.4459990000000  0.4702870000000 1.0
C      1  0.5120140000000  0.5316010000000  0.4451600000000 1.0
C      1  0.5054470000000  0.4585540000000  0.4395710000000 1.0
C      1  0.4715730000000  0.5333840000000  0.5346270000000 1.0
C      1  0.5203520000000  0.5027810000000  0.5261880000000 1.0
C      1  0.4961570000000  0.4932320000000  0.5458750000000 1.0
C      1  0.5272380000000  0.4719150000000  0.5669740000000 1.0
C      1  0.5063160000000  0.4885770000000  0.4270490000000 1.0
C      1  0.5515120000000  0.4790810000000  0.4985080000000 1.0
C      1  0.5214170000000  0.4371860000000  0.4839750000000 1.0
C      1  0.5322470000000  0.4490450000000  0.5453830000000 1.0
C      1  0.5027840000000  0.5589170000000  0.5578530000000 1.0
C      1  0.4886080000000  0.4921730000000  0.4537410000000 1.0
C      1  0.5719830000000  0.4542450000000  0.4963550000000 1.0
C      1  0.5276220000000  0.5139140000000  0.4204490000000 1.0
C      1  0.4520920000000  0.4649410000000  0.5470790000000 1.0
C      1  0.4794900000000  0.5225570000000  0.5093290000000 1.0
C      1  0.4951650000000  0.4817750000000  0.4784680000000 1.0
C      1  0.5389920000000  0.4210430000000  0.5072970000000 1.0
C      1  0.4181080000000  0.6282260000000  0.4917530000000 1.0
C      1  0.4864450000000  0.4258440000000  0.5278680000000 1.0
C      1  0.4839210000000  0.5115330000000  0.5657420000000 1.0
C      1  0.4749410000000  0.5056140000000  0.4192010000000 1.0
C      1  0.4959980000000  0.5259840000000  0.4177490000000 1.0
C      1  0.5004770000000  0.5323220000000  0.5759390000000 1.0
C      1  0.5451500000000  0.5449800000000  0.5228780000000 1.0
C      1  0.4602180000000  0.5022030000000  0.4460720000000 1.0
C      1  0.4342920000000  0.4995740000000  0.5147930000000 1.0
C      1  0.5620000000000  0.4674780000000  0.5265230000000 1.0
C      1  0.5348340000000  0.5406670000000  0.4943510000000 1.0
C      1  0.4778340000000  0.4459810000000  0.5514700000000 1.0
C      1  0.5270720000000  0.4465580000000  0.4540760000000 1.0
C      1  0.4915520000000  0.4537240000000  0.5139050000000 1.0
C      1  0.5191490000000  0.5202800000000  0.4719030000000 1.0
C      1  0.5513890000000  0.4351970000000  0.5279060000000 1.0
C      1  0.5228780000000  0.4692140000000  0.4867590000000 1.0
END
