TITL C-2778437-8639-122 -0.00153798809750499 125000 -847.457975020065 0 0 149 (C1) n - 1
REM
REM in /home/nfs/bkarasulu/CARBON/AIRSS/Generating-Clusters/REBO/Only-C1/SD-CG/HFTN-CG
REM
REM
REM
REM
REM
REM ./C.cell (11c1c37f851c82e70ff6c80c92926a4b)
REM
REM compiler GCC version 9.2.1 20190827 (Red Hat 9.2.1-1)
REM options -cpp -mtune=generic -march=x86-64 -g -O0 -fpre-include=/usr/include/finclude/math-vector-fortran.h
REM seed -618291494 1991079901 -1282764039 981316342 1576516016 -859496457 -398489356 -1319582059 2079393952 -1598789889 -1727075183 -1131414180 -807370781 -1435576905 -1584946538 -1170427411 387493062 -1683133786 348548660 699515900 1669074069 1128639190 1870567824 -1515460578 581870586 -1840940344 -83075117 519449028 542581878 -2062996625 -888869978 -1226466612 -2129296862
REM
CELL 1.54180   50.00000   50.00000   50.00000   90.00000   90.00000   90.00000
LATT -1
SFAC C  
C      1  0.5879970000000  0.4467610000000  0.5294810000000 1.0
C      1  0.4147650000000  0.4440200000000  0.4871860000000 1.0
C      1  0.4713150000000  0.5259090000000  0.4528270000000 1.0
C      1  0.5025600000000  0.4820380000000  0.4672350000000 1.0
C      1  0.5442950000000  0.5587550000000  0.4710270000000 1.0
C      1  0.4836600000000  0.5202030000000  0.5190990000000 1.0
C      1  0.5230310000000  0.5474330000000  0.5368760000000 1.0
C      1  0.5376420000000  0.5880650000000  0.4852900000000 1.0
C      1  0.5866940000000  0.4283090000000  0.5006910000000 1.0
C      1  0.5209710000000  0.5343010000000  0.5885860000000 1.0
C      1  0.5420120000000  0.4321600000000  0.4639860000000 1.0
C      1  0.4573500000000  0.4601580000000  0.5850650000000 1.0
C      1  0.4926480000000  0.5349510000000  0.4157080000000 1.0
C      1  0.4900500000000  0.4833790000000  0.5051990000000 1.0
C      1  0.4784860000000  0.5041660000000  0.4187170000000 1.0
C      1  0.5036200000000  0.5219320000000  0.4438100000000 1.0
C      1  0.5192120000000  0.4533340000000  0.5737050000000 1.0
C      1  0.4467950000000  0.4839180000000  0.4120950000000 1.0
C      1  0.5285540000000  0.5799700000000  0.4529220000000 1.0
C      1  0.5499350000000  0.5258580000000  0.5041750000000 1.0
C      1  0.5089240000000  0.5044640000000  0.6001690000000 1.0
C      1  0.4260950000000  0.4724940000000  0.5474760000000 1.0
C      1  0.4832670000000  0.5635500000000  0.4419910000000 1.0
C      1  0.4032580000000  0.5486280000000  0.4954570000000 1.0
C      1  0.5922230000000  0.5544950000000  0.5087340000000 1.0
C      1  0.4575810000000  0.5109630000000  0.5507680000000 1.0
C      1  0.5001140000000  0.4161730000000  0.4880650000000 1.0
C      1  0.4493160000000  0.5695260000000  0.4644970000000 1.0
C      1  0.5264610000000  0.5817950000000  0.5357240000000 1.0
C      1  0.5513430000000  0.5844790000000  0.5150580000000 1.0
C      1  0.5953690000000  0.4577880000000  0.4918860000000 1.0
C      1  0.4249420000000  0.4875570000000  0.4354030000000 1.0
C      1  0.4592380000000  0.3916370000000  0.4902830000000 1.0
C      1  0.4363070000000  0.5502410000000  0.4396930000000 1.0
C      1  0.5309860000000  0.5101880000000  0.4057560000000 1.0
C      1  0.5559460000000  0.4466470000000  0.5183120000000 1.0
C      1  0.5051890000000  0.5624410000000  0.5834290000000 1.0
C      1  0.4282180000000  0.5402530000000  0.5160800000000 1.0
C      1  0.5394870000000  0.4392000000000  0.4338350000000 1.0
C      1  0.5440720000000  0.4923840000000  0.4420690000000 1.0
C      1  0.5983390000000  0.5068480000000  0.4766170000000 1.0
C      1  0.4194580000000  0.5463290000000  0.5602830000000 1.0
C      1  0.5338000000000  0.5030070000000  0.5552660000000 1.0
C      1  0.5999970000000  0.5230840000000  0.5065850000000 1.0
C      1  0.4744560000000  0.5579340000000  0.5694730000000 1.0
C      1  0.5594350000000  0.4415750000000  0.4850870000000 1.0
C      1  0.5682050000000  0.4361300000000  0.5547590000000 1.0
C      1  0.4348880000000  0.5638810000000  0.5355160000000 1.0
C      1  0.4839330000000  0.5420770000000  0.5435610000000 1.0
C      1  0.5917240000000  0.5672840000000  0.4840370000000 1.0
C      1  0.5741520000000  0.4799640000000  0.4414310000000 1.0
C      1  0.4012930000000  0.5130980000000  0.5275940000000 1.0
C      1  0.4492120000000  0.4887460000000  0.5919710000000 1.0
C      1  0.4468020000000  0.5171740000000  0.4199350000000 1.0
C      1  0.4577460000000  0.4643170000000  0.4715930000000 1.0
C      1  0.4246590000000  0.4946280000000  0.4680350000000 1.0
C      1  0.4625060000000  0.5475460000000  0.4209810000000 1.0
C      1  0.4581600000000  0.5201400000000  0.5822930000000 1.0
C      1  0.5242290000000  0.4079900000000  0.4726260000000 1.0
C      1  0.4439640000000  0.4497570000000  0.5587600000000 1.0
C      1  0.5310810000000  0.3911770000000  0.5303820000000 1.0
C      1  0.4402130000000  0.5846830000000  0.4899860000000 1.0
C      1  0.4521340000000  0.4429700000000  0.5267280000000 1.0
C      1  0.4226740000000  0.4198260000000  0.4755580000000 1.0
C      1  0.5099520000000  0.4249990000000  0.4260180000000 1.0
C      1  0.5508140000000  0.5351440000000  0.5843850000000 1.0
C      1  0.4390540000000  0.4794040000000  0.5167120000000 1.0
C      1  0.4946500000000  0.4898290000000  0.5728440000000 1.0
C      1  0.4107970000000  0.4668430000000  0.4734700000000 1.0
C      1  0.3993510000000  0.4588050000000  0.5379120000000 1.0
C      1  0.4187840000000  0.5209120000000  0.4389430000000 1.0
C      1  0.4831880000000  0.5626800000000  0.5203660000000 1.0
C      1  0.4797540000000  0.4042740000000  0.5055200000000 1.0
C      1  0.5621740000000  0.4687670000000  0.5531660000000 1.0
C      1  0.4979590000000  0.4762790000000  0.4159250000000 1.0
C      1  0.4834290000000  0.4516160000000  0.5168720000000 1.0
C      1  0.5625160000000  0.5498120000000  0.5562020000000 1.0
C      1  0.4756710000000  0.4934280000000  0.4510610000000 1.0
C      1  0.5098700000000  0.4434890000000  0.4611670000000 1.0
C      1  0.4604520000000  0.4761480000000  0.4961230000000 1.0
C      1  0.4457330000000  0.5641830000000  0.5667170000000 1.0
C      1  0.5574450000000  0.4621720000000  0.4195660000000 1.0
C      1  0.5355400000000  0.4831790000000  0.4042280000000 1.0
C      1  0.4033040000000  0.5183170000000  0.4697830000000 1.0
C      1  0.4689410000000  0.5280950000000  0.4925930000000 1.0
C      1  0.5615890000000  0.5102330000000  0.5959770000000 1.0
C      1  0.4808910000000  0.4556000000000  0.4501580000000 1.0
C      1  0.5166380000000  0.4188600000000  0.5368700000000 1.0
C      1  0.5054980000000  0.5877760000000  0.4850180000000 1.0
C      1  0.4822390000000  0.5399450000000  0.5963480000000 1.0
C      1  0.5193810000000  0.4539140000000  0.4106960000000 1.0
C      1  0.4685300000000  0.4631530000000  0.4193110000000 1.0
C      1  0.5733760000000  0.5637630000000  0.5286250000000 1.0
C      1  0.5736870000000  0.5570510000000  0.4605180000000 1.0
C      1  0.4100640000000  0.5201730000000  0.5565580000000 1.0
C      1  0.4351700000000  0.5095320000000  0.5275230000000 1.0
C      1  0.5565980000000  0.5048560000000  0.5301660000000 1.0
C      1  0.5107040000000  0.4764130000000  0.5315930000000 1.0
C      1  0.4873510000000  0.5466580000000  0.4706600000000 1.0
C      1  0.5733130000000  0.5270190000000  0.4867570000000 1.0
C      1  0.5002560000000  0.5914020000000  0.5244410000000 1.0
C      1  0.5114980000000  0.5685330000000  0.4311520000000 1.0
C      1  0.5892340000000  0.5056020000000  0.5284020000000 1.0
C      1  0.5492390000000  0.4196240000000  0.5345130000000 1.0
C      1  0.4511530000000  0.4367120000000  0.4317210000000 1.0
C      1  0.5066530000000  0.4491780000000  0.4934950000000 1.0
C      1  0.5349790000000  0.5222630000000  0.4509230000000 1.0
C      1  0.4725140000000  0.4159950000000  0.5304340000000 1.0
C      1  0.5023470000000  0.5078000000000  0.4860330000000 1.0
C      1  0.4767220000000  0.5034970000000  0.6056120000000 1.0
C      1  0.5150490000000  0.5190560000000  0.5339690000000 1.0
C      1  0.5267400000000  0.4766280000000  0.4909500000000 1.0
C      1  0.5856920000000  0.5276060000000  0.4548630000000 1.0
C      1  0.5861620000000  0.4794380000000  0.4695950000000 1.0
C      1  0.4152040000000  0.5496130000000  0.4658320000000 1.0
C      1  0.5817550000000  0.4773740000000  0.5159210000000 1.0
C      1  0.4882590000000  0.4580480000000  0.5796750000000 1.0
C      1  0.4953410000000  0.5238880000000  0.5684240000000 1.0
C      1  0.4737460000000  0.4347840000000  0.5590470000000 1.0
C      1  0.4845200000000  0.4954740000000  0.5425510000000 1.0
C      1  0.5393320000000  0.5537530000000  0.5103870000000 1.0
C      1  0.5770080000000  0.4928700000000  0.5640730000000 1.0
C      1  0.4461500000000  0.4053990000000  0.4689630000000 1.0
C      1  0.4915170000000  0.4171710000000  0.4516610000000 1.0
C      1  0.5468060000000  0.4510970000000  0.5765400000000 1.0
C      1  0.5026950000000  0.4454860000000  0.5446280000000 1.0
C      1  0.5259650000000  0.5417930000000  0.4172850000000 1.0
C      1  0.5593240000000  0.4743270000000  0.4900900000000 1.0
C      1  0.5545680000000  0.5432300000000  0.4356780000000 1.0
C      1  0.4297950000000  0.4976240000000  0.5654630000000 1.0
C      1  0.5765860000000  0.4497830000000  0.3989100000000 1.0
C      1  0.4227480000000  0.4497260000000  0.5149670000000 1.0
C      1  0.3920410000000  0.5203990000000  0.5019530000000 1.0
C      1  0.5802870000000  0.5216250000000  0.5572900000000 1.0
C      1  0.5246790000000  0.5054330000000  0.5070460000000 1.0
C      1  0.4773690000000  0.5851220000000  0.4676150000000 1.0
C      1  0.5363870000000  0.4979410000000  0.5829670000000 1.0
C      1  0.4522040000000  0.5065500000000  0.4719350000000 1.0
C      1  0.5190950000000  0.5364670000000  0.4776820000000 1.0
C      1  0.5320410000000  0.5636820000000  0.5638740000000 1.0
C      1  0.4402520000000  0.4604080000000  0.4473180000000 1.0
C      1  0.5413920000000  0.4749210000000  0.5281220000000 1.0
C      1  0.4624610000000  0.4159520000000  0.4477130000000 1.0
C      1  0.4537180000000  0.5777990000000  0.5163490000000 1.0
C      1  0.4419290000000  0.5449330000000  0.4870640000000 1.0
C      1  0.4770600000000  0.5963330000000  0.4999150000000 1.0
C      1  0.5135580000000  0.4908720000000  0.4389450000000 1.0
C      1  0.5694540000000  0.5126260000000  0.4330780000000 1.0
C      1  0.5091200000000  0.5601610000000  0.5011670000000 1.0
END
