TITL C-2778432-5617-845 -2.09922870162254e-05 125000 -309.604884272366 0 0 56 (C1) n - 1
REM
REM in /home/nfs/bkarasulu/CARBON/AIRSS/Generating-Clusters/REBO/Only-C1/SD-CG/HFTN-CG
REM
REM
REM
REM
REM
REM ./C.cell (11c1c37f851c82e70ff6c80c92926a4b)
REM
REM compiler GCC version 9.2.1 20190827 (Red Hat 9.2.1-1)
REM options -cpp -mtune=generic -march=x86-64 -g -O0 -fpre-include=/usr/include/finclude/math-vector-fortran.h
REM seed -2008204620 375352510 -810256120 551107240 -393582757 1507101258 591845118 1115386630 252936629 -123160991 794911042 -1585709550 1634995384 -428707933 732068194 -1571093108 -236422016 -2009141452 993837903 -1536081686 1796405024 780006887 1014252606 1434864315 628745403 -562896791 1520224005 -7237950 -466637431 -1384118376 1526656105 806892896 -469450337
REM
CELL 1.54180   50.00000   50.00000   50.00000   90.00000   90.00000   90.00000
LATT -1
SFAC C  
C      1  0.4309340000000  0.4757950000000  0.5271930000000 1.0
C      1  0.4626070000000  0.5378150000000  0.4926370000000 1.0
C      1  0.4639380000000  0.5228960000000  0.4691690000000 1.0
C      1  0.4333650000000  0.5009790000000  0.5002960000000 1.0
C      1  0.4974550000000  0.4482540000000  0.4361180000000 1.0
C      1  0.5028440000000  0.5286030000000  0.4985570000000 1.0
C      1  0.5767700000000  0.4961010000000  0.5116740000000 1.0
C      1  0.5506220000000  0.4636020000000  0.4795330000000 1.0
C      1  0.4995390000000  0.5019610000000  0.5140290000000 1.0
C      1  0.5069240000000  0.5067460000000  0.5456130000000 1.0
C      1  0.4439840000000  0.5263520000000  0.5118550000000 1.0
C      1  0.5648430000000  0.4877920000000  0.5359830000000 1.0
C      1  0.4465940000000  0.4787150000000  0.5548610000000 1.0
C      1  0.4902940000000  0.5184700000000  0.4503300000000 1.0
C      1  0.4653190000000  0.4971500000000  0.5656810000000 1.0
C      1  0.4557060000000  0.4805210000000  0.4519170000000 1.0
C      1  0.5681030000000  0.5227070000000  0.4965290000000 1.0
C      1  0.4500070000000  0.4726240000000  0.4997610000000 1.0
C      1  0.4621650000000  0.4586890000000  0.5348780000000 1.0
C      1  0.5062670000000  0.5816280000000  0.4877430000000 1.0
C      1  0.5327780000000  0.4529630000000  0.5059670000000 1.0
C      1  0.4928480000000  0.4505950000000  0.5243040000000 1.0
C      1  0.4452600000000  0.4518790000000  0.4822050000000 1.0
C      1  0.4845450000000  0.5569550000000  0.5067030000000 1.0
C      1  0.5239540000000  0.5698740000000  0.4716570000000 1.0
C      1  0.5456230000000  0.5737480000000  0.5116490000000 1.0
C      1  0.5535640000000  0.5403960000000  0.4451050000000 1.0
C      1  0.5072650000000  0.4690130000000  0.4192480000000 1.0
C      1  0.5589700000000  0.4933980000000  0.4827530000000 1.0
C      1  0.5267630000000  0.4846500000000  0.5046910000000 1.0
C      1  0.5075270000000  0.4753670000000  0.4631760000000 1.0
C      1  0.5048160000000  0.5373850000000  0.5837880000000 1.0
C      1  0.5227510000000  0.4641580000000  0.3974540000000 1.0
C      1  0.4462250000000  0.4999790000000  0.4709680000000 1.0
C      1  0.4638750000000  0.5254830000000  0.5590270000000 1.0
C      1  0.5227480000000  0.5487920000000  0.5149380000000 1.0
C      1  0.4768940000000  0.4608010000000  0.4596270000000 1.0
C      1  0.4986920000000  0.4952240000000  0.4265050000000 1.0
C      1  0.5423300000000  0.4684860000000  0.5528520000000 1.0
C      1  0.5545250000000  0.5443910000000  0.5045130000000 1.0
C      1  0.4682010000000  0.4989670000000  0.4331950000000 1.0
C      1  0.5135630000000  0.5226420000000  0.4699990000000 1.0
C      1  0.4991580000000  0.4366700000000  0.4681860000000 1.0
C      1  0.4619420000000  0.5637250000000  0.5303060000000 1.0
C      1  0.4982700000000  0.4332470000000  0.5018170000000 1.0
C      1  0.5330440000000  0.4949760000000  0.5345710000000 1.0
C      1  0.4485710000000  0.5385440000000  0.5379190000000 1.0
C      1  0.4924710000000  0.4878410000000  0.5628810000000 1.0
C      1  0.5085490000000  0.4618460000000  0.5524130000000 1.0
C      1  0.4898220000000  0.5393620000000  0.5611950000000 1.0
C      1  0.5289610000000  0.4385010000000  0.4768450000000 1.0
C      1  0.4793600000000  0.4784710000000  0.5123200000000 1.0
C      1  0.5318090000000  0.5450650000000  0.4613750000000 1.0
C      1  0.4990230000000  0.5505050000000  0.5372650000000 1.0
C      1  0.5310060000000  0.4440660000000  0.5339340000000 1.0
C      1  0.5260170000000  0.4946310000000  0.4742900000000 1.0
END
