TITL C-2778437-8639-1322 -0.0914454762389269 125000 -835.794999620167 0 0 146 (C1) n - 1
REM
REM in /home/nfs/bkarasulu/CARBON/AIRSS/Generating-Clusters/REBO/Only-C1/SD-CG/HFTN-CG
REM
REM
REM
REM
REM
REM ./C.cell (11c1c37f851c82e70ff6c80c92926a4b)
REM
REM compiler GCC version 9.2.1 20190827 (Red Hat 9.2.1-1)
REM options -cpp -mtune=generic -march=x86-64 -g -O0 -fpre-include=/usr/include/finclude/math-vector-fortran.h
REM seed -1742425820 -1094969550 803222849 -1755517934 -101942158 -514268980 -2145609637 121094491 1135960151 -782936658 -98854721 -1786920969 -1799654649 400567013 -475208543 718881029 468622665 101410014 -1013385793 539850513 1511780691 -52382035 -540073904 1145297978 1606823216 -574506097 -1249470345 -1494184590 681443637 1102169462 1782348769 1619127965 524425699
REM
CELL 1.54180   50.00000   50.00000   50.00000   90.00000   90.00000   90.00000
LATT -1
SFAC C  
C      1  0.5270360000000  0.5490700000000  0.5474660000000 1.0
C      1  0.5616100000000  0.4241900000000  0.5046370000000 1.0
C      1  0.5519380000000  0.5781400000000  0.4549910000000 1.0
C      1  0.5105250000000  0.5412970000000  0.3913620000000 1.0
C      1  0.5169110000000  0.5006600000000  0.5360030000000 1.0
C      1  0.5520770000000  0.4587890000000  0.4871090000000 1.0
C      1  0.4257080000000  0.4444420000000  0.4799220000000 1.0
C      1  0.4586920000000  0.5064070000000  0.4174180000000 1.0
C      1  0.3960580000000  0.4795710000000  0.5057380000000 1.0
C      1  0.5597780000000  0.5952980000000  0.4793140000000 1.0
C      1  0.5032180000000  0.5886010000000  0.4912250000000 1.0
C      1  0.4796800000000  0.4122780000000  0.4653320000000 1.0
C      1  0.4596790000000  0.5363880000000  0.5708150000000 1.0
C      1  0.5062020000000  0.4737220000000  0.5470170000000 1.0
C      1  0.5453010000000  0.5322030000000  0.4909660000000 1.0
C      1  0.5499830000000  0.5113140000000  0.5715150000000 1.0
C      1  0.5598580000000  0.4433610000000  0.5713930000000 1.0
C      1  0.4300580000000  0.4127730000000  0.5239140000000 1.0
C      1  0.4841340000000  0.5001070000000  0.4678250000000 1.0
C      1  0.4958040000000  0.5187150000000  0.3877860000000 1.0
C      1  0.4092510000000  0.5413160000000  0.4769230000000 1.0
C      1  0.6012680000000  0.4897070000000  0.5118330000000 1.0
C      1  0.5437060000000  0.4793650000000  0.4459750000000 1.0
C      1  0.4659890000000  0.4667740000000  0.4546010000000 1.0
C      1  0.5004780000000  0.4555610000000  0.4271820000000 1.0
C      1  0.4736400000000  0.4578140000000  0.5809300000000 1.0
C      1  0.3997680000000  0.5191400000000  0.4634810000000 1.0
C      1  0.5312930000000  0.4861640000000  0.4004890000000 1.0
C      1  0.4427290000000  0.5095020000000  0.5322800000000 1.0
C      1  0.4301450000000  0.5690540000000  0.5512660000000 1.0
C      1  0.5615950000000  0.4937980000000  0.5139840000000 1.0
C      1  0.5866330000000  0.5151030000000  0.5225670000000 1.0
C      1  0.5775380000000  0.5656870000000  0.5062540000000 1.0
C      1  0.4467230000000  0.5787560000000  0.5266520000000 1.0
C      1  0.5691400000000  0.4533990000000  0.5161340000000 1.0
C      1  0.5167240000000  0.4432610000000  0.4508340000000 1.0
C      1  0.4978840000000  0.4917640000000  0.5977810000000 1.0
C      1  0.5629780000000  0.4187800000000  0.4525230000000 1.0
C      1  0.4779040000000  0.5664200000000  0.5328490000000 1.0
C      1  0.5885150000000  0.4567670000000  0.4712420000000 1.0
C      1  0.4901140000000  0.4027760000000  0.4963220000000 1.0
C      1  0.5245290000000  0.4772890000000  0.5820170000000 1.0
C      1  0.5764430000000  0.4761840000000  0.4502880000000 1.0
C      1  0.5060690000000  0.4576930000000  0.4775840000000 1.0
C      1  0.5951170000000  0.4675770000000  0.5550770000000 1.0
C      1  0.5089610000000  0.5335020000000  0.5707520000000 1.0
C      1  0.4778070000000  0.4643420000000  0.5210170000000 1.0
C      1  0.5107440000000  0.4344100000000  0.5093230000000 1.0
C      1  0.4765850000000  0.4372930000000  0.4431940000000 1.0
C      1  0.5327360000000  0.4132360000000  0.4482160000000 1.0
C      1  0.5016830000000  0.4897810000000  0.4271360000000 1.0
C      1  0.4772220000000  0.6050100000000  0.4527760000000 1.0
C      1  0.4056100000000  0.4580010000000  0.4586710000000 1.0
C      1  0.5972230000000  0.4881180000000  0.4818120000000 1.0
C      1  0.4825980000000  0.5333480000000  0.5309660000000 1.0
C      1  0.5761870000000  0.4904250000000  0.5658570000000 1.0
C      1  0.5397600000000  0.5149200000000  0.4636920000000 1.0
C      1  0.4424040000000  0.4636670000000  0.4318150000000 1.0
C      1  0.5782370000000  0.4306440000000  0.4762450000000 1.0
C      1  0.4175160000000  0.4387910000000  0.5112240000000 1.0
C      1  0.5363160000000  0.5817580000000  0.5413930000000 1.0
C      1  0.5833540000000  0.5428450000000  0.4855850000000 1.0
C      1  0.5413540000000  0.4700090000000  0.5283440000000 1.0
C      1  0.4405620000000  0.5406590000000  0.4725810000000 1.0
C      1  0.5255920000000  0.5676850000000  0.4591100000000 1.0
C      1  0.5739830000000  0.5561710000000  0.4481260000000 1.0
C      1  0.4582560000000  0.4198020000000  0.5360010000000 1.0
C      1  0.5610090000000  0.5631050000000  0.5321610000000 1.0
C      1  0.4553260000000  0.4968590000000  0.4499130000000 1.0
C      1  0.4662100000000  0.4867300000000  0.5920210000000 1.0
C      1  0.4467020000000  0.5451550000000  0.4434060000000 1.0
C      1  0.5197390000000  0.5852660000000  0.5648390000000 1.0
C      1  0.4343820000000  0.4946750000000  0.5827020000000 1.0
C      1  0.5750790000000  0.5142810000000  0.4824190000000 1.0
C      1  0.4136640000000  0.5422080000000  0.5490020000000 1.0
C      1  0.4321370000000  0.5786320000000  0.5007450000000 1.0
C      1  0.5225230000000  0.5110960000000  0.5858610000000 1.0
C      1  0.4586490000000  0.5630520000000  0.5608410000000 1.0
C      1  0.5071520000000  0.4056530000000  0.5256920000000 1.0
C      1  0.4515150000000  0.4318300000000  0.4669050000000 1.0
C      1  0.4893670000000  0.4157110000000  0.5481260000000 1.0
C      1  0.4051220000000  0.4631000000000  0.5321040000000 1.0
C      1  0.5081400000000  0.4257900000000  0.5731530000000 1.0
C      1  0.4815790000000  0.4841270000000  0.4942170000000 1.0
C      1  0.4773440000000  0.4318550000000  0.5108720000000 1.0
C      1  0.4842740000000  0.4484420000000  0.5496800000000 1.0
C      1  0.4038800000000  0.5108520000000  0.5397590000000 1.0
C      1  0.4159080000000  0.4857730000000  0.5550850000000 1.0
C      1  0.4921860000000  0.5355810000000  0.4508590000000 1.0
C      1  0.4843840000000  0.5315880000000  0.4810400000000 1.0
C      1  0.5329260000000  0.4305660000000  0.4886260000000 1.0
C      1  0.5140320000000  0.5182740000000  0.4416390000000 1.0
C      1  0.5125110000000  0.4102940000000  0.4729980000000 1.0
C      1  0.5220460000000  0.4449250000000  0.5372090000000 1.0
C      1  0.5942190000000  0.4663340000000  0.5266170000000 1.0
C      1  0.4805410000000  0.4914770000000  0.5606800000000 1.0
C      1  0.5475930000000  0.4721940000000  0.5620030000000 1.0
C      1  0.5165770000000  0.5590410000000  0.4108240000000 1.0
C      1  0.5019230000000  0.5188980000000  0.5168580000000 1.0
C      1  0.5394800000000  0.4163420000000  0.5293120000000 1.0
C      1  0.5087710000000  0.5648000000000  0.5793240000000 1.0
C      1  0.4070440000000  0.5653150000000  0.4959950000000 1.0
C      1  0.4333930000000  0.4796080000000  0.5198940000000 1.0
C      1  0.5834660000000  0.5196860000000  0.5530830000000 1.0
C      1  0.4246700000000  0.4776450000000  0.4877860000000 1.0
C      1  0.5555020000000  0.5293310000000  0.4381110000000 1.0
C      1  0.5946530000000  0.5008450000000  0.4502830000000 1.0
C      1  0.4871440000000  0.5603180000000  0.4947120000000 1.0
C      1  0.5875200000000  0.5261150000000  0.4418550000000 1.0
C      1  0.4733130000000  0.5532640000000  0.4384720000000 1.0
C      1  0.4887450000000  0.6086490000000  0.4774810000000 1.0
C      1  0.5861970000000  0.5743100000000  0.4744400000000 1.0
C      1  0.5095030000000  0.5605870000000  0.5205980000000 1.0
C      1  0.5583640000000  0.5330040000000  0.5189600000000 1.0
C      1  0.5263860000000  0.5560890000000  0.4911310000000 1.0
C      1  0.4492380000000  0.4786480000000  0.5571530000000 1.0
C      1  0.4181260000000  0.4737970000000  0.4400340000000 1.0
C      1  0.4485720000000  0.4451330000000  0.5628570000000 1.0
C      1  0.5874320000000  0.4432760000000  0.5682710000000 1.0
C      1  0.4375280000000  0.5361520000000  0.5136290000000 1.0
C      1  0.4077410000000  0.5097240000000  0.5058460000000 1.0
C      1  0.5521270000000  0.4903410000000  0.4833730000000 1.0
C      1  0.5337150000000  0.5889060000000  0.4919670000000 1.0
C      1  0.4764130000000  0.4485300000000  0.4814740000000 1.0
C      1  0.4833900000000  0.5018580000000  0.4064700000000 1.0
C      1  0.5484790000000  0.4485600000000  0.4565640000000 1.0
C      1  0.5118190000000  0.4822910000000  0.4580670000000 1.0
C      1  0.4563700000000  0.5573950000000  0.4943370000000 1.0
C      1  0.5164540000000  0.5033390000000  0.4962330000000 1.0
C      1  0.4043620000000  0.5412460000000  0.5165840000000 1.0
C      1  0.4354300000000  0.5198600000000  0.5622410000000 1.0
C      1  0.4819000000000  0.5819180000000  0.4375380000000 1.0
C      1  0.4614270000000  0.5179520000000  0.4980550000000 1.0
C      1  0.5180280000000  0.4645930000000  0.4008940000000 1.0
C      1  0.4697270000000  0.4959470000000  0.5224310000000 1.0
C      1  0.5095620000000  0.5699010000000  0.4358350000000 1.0
C      1  0.5045220000000  0.4514330000000  0.5839040000000 1.0
C      1  0.4366840000000  0.5239520000000  0.4276390000000 1.0
C      1  0.4326140000000  0.5096810000000  0.4842050000000 1.0
C      1  0.5393550000000  0.5031190000000  0.4255220000000 1.0
C      1  0.4835090000000  0.5222960000000  0.5596240000000 1.0
C      1  0.5586930000000  0.5412750000000  0.5578830000000 1.0
C      1  0.5198900000000  0.4760510000000  0.5020600000000 1.0
C      1  0.4424380000000  0.4498130000000  0.5308130000000 1.0
C      1  0.4209580000000  0.5037340000000  0.4464350000000 1.0
C      1  0.5455930000000  0.5086150000000  0.5391150000000 1.0
END
