TITL C-2778428-5639-722 0.00176894897311288 125000 -803.052203429041 0 0 137 (C1) n - 1
REM
REM in /home/nfs/bkarasulu/CARBON/AIRSS/Generating-Clusters/REBO/Only-C1/SD-CG/HFTN-CG
REM
REM
REM
REM
REM
REM ./C.cell (11c1c37f851c82e70ff6c80c92926a4b)
REM
REM compiler GCC version 9.2.1 20190827 (Red Hat 9.2.1-1)
REM options -cpp -mtune=generic -march=x86-64 -g -O0 -fpre-include=/usr/include/finclude/math-vector-fortran.h
REM seed 226411876 588074671 -1566853581 -1359019488 22347321 -436864302 1659780108 -1572500765 -746735692 343980948 -1923648297 -508222439 259965782 -253290055 -1138999316 -2007199497 -131247252 -449929867 74388799 -464168287 1155600077 -1433678148 -1859233826 2131230947 -527953675 -2022967384 -712799744 -1125078543 -1635537274 270475901 957371255 1574381719 -56400264
REM
CELL 1.54180   50.00000   50.00000   50.00000   90.00000   90.00000   90.00000
LATT -1
SFAC C  
C      1  0.5021840000000  0.5447730000000  0.5088380000000 1.0
C      1  0.5384380000000  0.5348350000000  0.5222150000000 1.0
C      1  0.4507610000000  0.5312860000000  0.4372000000000 1.0
C      1  0.4352130000000  0.5094040000000  0.5886380000000 1.0
C      1  0.4677920000000  0.5774930000000  0.4458330000000 1.0
C      1  0.5456920000000  0.4338740000000  0.4517940000000 1.0
C      1  0.4742590000000  0.4867020000000  0.4963680000000 1.0
C      1  0.4661920000000  0.4194730000000  0.5385810000000 1.0
C      1  0.5199340000000  0.4796320000000  0.5077110000000 1.0
C      1  0.5119800000000  0.4981790000000  0.4738330000000 1.0
C      1  0.5567640000000  0.5125130000000  0.5217720000000 1.0
C      1  0.4502970000000  0.4622290000000  0.5168520000000 1.0
C      1  0.4723050000000  0.5417110000000  0.4827800000000 1.0
C      1  0.5093960000000  0.4645870000000  0.4789970000000 1.0
C      1  0.4683530000000  0.5252510000000  0.4153790000000 1.0
C      1  0.4931030000000  0.5111520000000  0.5299310000000 1.0
C      1  0.5315790000000  0.5687140000000  0.4037160000000 1.0
C      1  0.5108420000000  0.5775540000000  0.5031300000000 1.0
C      1  0.4720310000000  0.4953310000000  0.5819630000000 1.0
C      1  0.4724890000000  0.5442090000000  0.5384370000000 1.0
C      1  0.4812500000000  0.4427790000000  0.4218590000000 1.0
C      1  0.5102960000000  0.4355980000000  0.5517250000000 1.0
C      1  0.5465720000000  0.5585320000000  0.5616280000000 1.0
C      1  0.5158240000000  0.4699370000000  0.4399010000000 1.0
C      1  0.5196090000000  0.4944220000000  0.5946760000000 1.0
C      1  0.4803390000000  0.5197640000000  0.5597520000000 1.0
C      1  0.4931470000000  0.5165260000000  0.4558780000000 1.0
C      1  0.5797270000000  0.4848640000000  0.5600740000000 1.0
C      1  0.5127730000000  0.5450270000000  0.4758600000000 1.0
C      1  0.5088050000000  0.5741710000000  0.5578810000000 1.0
C      1  0.4507010000000  0.5659070000000  0.5486110000000 1.0
C      1  0.5953470000000  0.4828350000000  0.4704340000000 1.0
C      1  0.4311780000000  0.5633980000000  0.5122310000000 1.0
C      1  0.4854270000000  0.4043780000000  0.5518490000000 1.0
C      1  0.5657360000000  0.4856620000000  0.4105200000000 1.0
C      1  0.4533550000000  0.5102350000000  0.5279850000000 1.0
C      1  0.4616360000000  0.5917900000000  0.5509560000000 1.0
C      1  0.4620540000000  0.5190160000000  0.4626810000000 1.0
C      1  0.5306800000000  0.5063570000000  0.4466060000000 1.0
C      1  0.4782090000000  0.5795550000000  0.4936760000000 1.0
C      1  0.4301120000000  0.4680890000000  0.5508410000000 1.0
C      1  0.4176970000000  0.5353950000000  0.5049610000000 1.0
C      1  0.5435490000000  0.5797830000000  0.4936290000000 1.0
C      1  0.5102580000000  0.5415940000000  0.4420580000000 1.0
C      1  0.5627310000000  0.4640850000000  0.5305340000000 1.0
C      1  0.3917280000000  0.5017130000000  0.4793720000000 1.0
C      1  0.5288880000000  0.4369730000000  0.4750180000000 1.0
C      1  0.5763160000000  0.5469160000000  0.5258380000000 1.0
C      1  0.5615050000000  0.5712180000000  0.5190660000000 1.0
C      1  0.3902460000000  0.5280840000000  0.4745490000000 1.0
C      1  0.5838880000000  0.5206230000000  0.5056020000000 1.0
C      1  0.4941850000000  0.4845950000000  0.6008240000000 1.0
C      1  0.4435590000000  0.4269290000000  0.4931830000000 1.0
C      1  0.4061610000000  0.4832950000000  0.5040830000000 1.0
C      1  0.4043660000000  0.5508020000000  0.4705520000000 1.0
C      1  0.5498950000000  0.4274340000000  0.4987710000000 1.0
C      1  0.5236300000000  0.5254240000000  0.5513880000000 1.0
C      1  0.5535000000000  0.5266400000000  0.4411980000000 1.0
C      1  0.5448130000000  0.5787990000000  0.5414030000000 1.0
C      1  0.4478220000000  0.4984430000000  0.4800440000000 1.0
C      1  0.5020640000000  0.4442530000000  0.5757910000000 1.0
C      1  0.5637630000000  0.4639900000000  0.4329190000000 1.0
C      1  0.4603150000000  0.5240810000000  0.5938280000000 1.0
C      1  0.5028320000000  0.4878450000000  0.3926490000000 1.0
C      1  0.4879920000000  0.5976400000000  0.5488490000000 1.0
C      1  0.4624360000000  0.5565810000000  0.5116040000000 1.0
C      1  0.5165190000000  0.5918580000000  0.5310970000000 1.0
C      1  0.5460720000000  0.4582790000000  0.5046860000000 1.0
C      1  0.5807350000000  0.4597070000000  0.4614930000000 1.0
C      1  0.4267400000000  0.5478170000000  0.5418480000000 1.0
C      1  0.4779220000000  0.4954670000000  0.4104320000000 1.0
C      1  0.4625730000000  0.4711770000000  0.4192060000000 1.0
C      1  0.5390720000000  0.5476590000000  0.4958250000000 1.0
C      1  0.4179470000000  0.4625930000000  0.5214880000000 1.0
C      1  0.4180880000000  0.4345790000000  0.5101190000000 1.0
C      1  0.5421700000000  0.4879960000000  0.5307190000000 1.0
C      1  0.5152250000000  0.4186820000000  0.5161570000000 1.0
C      1  0.4896600000000  0.5429960000000  0.4155170000000 1.0
C      1  0.5219830000000  0.4921250000000  0.5548240000000 1.0
C      1  0.4672970000000  0.4249970000000  0.4693460000000 1.0
C      1  0.5367000000000  0.4761650000000  0.5792160000000 1.0
C      1  0.5960310000000  0.4905480000000  0.5031480000000 1.0
C      1  0.4443190000000  0.5839220000000  0.4891630000000 1.0
C      1  0.5430290000000  0.4769930000000  0.4542740000000 1.0
C      1  0.4553190000000  0.4724230000000  0.5728020000000 1.0
C      1  0.5670830000000  0.5388020000000  0.5532250000000 1.0
C      1  0.4315540000000  0.5194590000000  0.5427880000000 1.0
C      1  0.5208310000000  0.4640760000000  0.4070550000000 1.0
C      1  0.5760110000000  0.5143130000000  0.4202620000000 1.0
C      1  0.5981220000000  0.5094110000000  0.4597520000000 1.0
C      1  0.4277060000000  0.5653890000000  0.4658840000000 1.0
C      1  0.5004180000000  0.4220410000000  0.4673490000000 1.0
C      1  0.4306000000000  0.4692850000000  0.4218550000000 1.0
C      1  0.4669320000000  0.4162440000000  0.5104150000000 1.0
C      1  0.4692840000000  0.4444880000000  0.5829580000000 1.0
C      1  0.5771000000000  0.4427530000000  0.4850130000000 1.0
C      1  0.4917530000000  0.4826840000000  0.5469490000000 1.0
C      1  0.5012860000000  0.4974300000000  0.4314360000000 1.0
C      1  0.5449840000000  0.5196220000000  0.4073580000000 1.0
C      1  0.4173820000000  0.4733180000000  0.4424500000000 1.0
C      1  0.4248620000000  0.5097360000000  0.5000280000000 1.0
C      1  0.5578810000000  0.4401270000000  0.5503350000000 1.0
C      1  0.5456520000000  0.4183160000000  0.5313500000000 1.0
C      1  0.5743820000000  0.5127930000000  0.5622770000000 1.0
C      1  0.4723650000000  0.5187440000000  0.5041860000000 1.0
C      1  0.5610040000000  0.4646730000000  0.5703260000000 1.0
C      1  0.4907510000000  0.5375270000000  0.5868370000000 1.0
C      1  0.4264560000000  0.4996160000000  0.5631880000000 1.0
C      1  0.4633300000000  0.4842970000000  0.5356340000000 1.0
C      1  0.5292230000000  0.5455510000000  0.4161710000000 1.0
C      1  0.4585340000000  0.4394870000000  0.4430130000000 1.0
C      1  0.5187840000000  0.4035200000000  0.5464170000000 1.0
C      1  0.4576890000000  0.5988960000000  0.4623680000000 1.0
C      1  0.5928470000000  0.4755090000000  0.5327840000000 1.0
C      1  0.5392470000000  0.4423080000000  0.4233880000000 1.0
C      1  0.5564570000000  0.5688000000000  0.4667380000000 1.0
C      1  0.4880630000000  0.5648280000000  0.4655940000000 1.0
C      1  0.5083380000000  0.4374150000000  0.4379980000000 1.0
C      1  0.5197840000000  0.5213520000000  0.5844890000000 1.0
C      1  0.4525150000000  0.4425160000000  0.5548520000000 1.0
C      1  0.5362010000000  0.4915300000000  0.3959900000000 1.0
C      1  0.5490860000000  0.4744510000000  0.4808820000000 1.0
C      1  0.5853800000000  0.5297000000000  0.4756290000000 1.0
C      1  0.5926230000000  0.4564880000000  0.5051490000000 1.0
C      1  0.5043030000000  0.5476510000000  0.5413090000000 1.0
C      1  0.4924330000000  0.4126740000000  0.4975630000000 1.0
C      1  0.4183930000000  0.4844360000000  0.4700370000000 1.0
C      1  0.4841230000000  0.4618350000000  0.5102400000000 1.0
C      1  0.4923940000000  0.4562410000000  0.6030910000000 1.0
C      1  0.4559490000000  0.4708400000000  0.4526610000000 1.0
C      1  0.4448110000000  0.5591640000000  0.4428360000000 1.0
C      1  0.5025670000000  0.4479910000000  0.5248980000000 1.0
C      1  0.5199000000000  0.5537910000000  0.5793330000000 1.0
C      1  0.4502200000000  0.4579490000000  0.4836550000000 1.0
C      1  0.5116850000000  0.5124150000000  0.5027820000000 1.0
C      1  0.4814840000000  0.4569660000000  0.4706830000000 1.0
C      1  0.5653220000000  0.5436890000000  0.4618710000000 1.0
END
