TITL C-2778434-4341-1343 -0.00211736830476377 125000 -731.077033380643 0 0 124 (C1) n - 1
REM
REM in /home/nfs/bkarasulu/CARBON/AIRSS/Generating-Clusters/REBO/Only-C1/SD-CG/HFTN-CG
REM
REM
REM
REM
REM
REM ./C.cell (11c1c37f851c82e70ff6c80c92926a4b)
REM
REM compiler GCC version 9.2.1 20190827 (Red Hat 9.2.1-1)
REM options -cpp -mtune=generic -march=x86-64 -g -O0 -fpre-include=/usr/include/finclude/math-vector-fortran.h
REM seed -1975064527 -1084518528 740853476 1907430769 -1856830465 -1031912073 -591280973 -1728399620 608867762 -1667279564 -1301026219 1743812471 1412827030 -2091312704 2022685803 -514991807 -254782102 -661394318 319025617 -249554307 1630496894 -2055050877 -515903998 541388432 -925856364 1264025091 535611331 -144762080 -107638755 -1260930486 609149364 381865233 670496494
REM
CELL 1.54180   50.00000   50.00000   50.00000   90.00000   90.00000   90.00000
LATT -1
SFAC C  
C      1  0.5768990000000  0.4574940000000  0.4841760000000 1.0
C      1  0.5691710000000  0.4643360000000  0.4517190000000 1.0
C      1  0.4441220000000  0.4890240000000  0.4687710000000 1.0
C      1  0.4953480000000  0.4189330000000  0.4802110000000 1.0
C      1  0.4574450000000  0.5261770000000  0.4188780000000 1.0
C      1  0.4376390000000  0.4690040000000  0.4241560000000 1.0
C      1  0.5097870000000  0.4192440000000  0.4497000000000 1.0
C      1  0.5808990000000  0.5035320000000  0.4720440000000 1.0
C      1  0.5594750000000  0.4466780000000  0.5655800000000 1.0
C      1  0.5527020000000  0.4698400000000  0.5788410000000 1.0
C      1  0.4664220000000  0.5868310000000  0.4688310000000 1.0
C      1  0.5344590000000  0.5335480000000  0.4321360000000 1.0
C      1  0.5700760000000  0.4896030000000  0.5216840000000 1.0
C      1  0.5198740000000  0.4619490000000  0.4356990000000 1.0
C      1  0.4144040000000  0.4556130000000  0.4948540000000 1.0
C      1  0.5169640000000  0.4491030000000  0.4659620000000 1.0
C      1  0.5646540000000  0.3793460000000  0.5053000000000 1.0
C      1  0.4707070000000  0.5268240000000  0.4565600000000 1.0
C      1  0.4701610000000  0.5030110000000  0.4958070000000 1.0
C      1  0.5187740000000  0.5653680000000  0.5543940000000 1.0
C      1  0.5467800000000  0.5865570000000  0.5222680000000 1.0
C      1  0.5637070000000  0.5475490000000  0.4991630000000 1.0
C      1  0.5852260000000  0.5266010000000  0.5142800000000 1.0
C      1  0.4464850000000  0.5526240000000  0.4805470000000 1.0
C      1  0.5454900000000  0.4411860000000  0.5374930000000 1.0
C      1  0.4672430000000  0.4731040000000  0.4579910000000 1.0
C      1  0.5285310000000  0.5124810000000  0.5119490000000 1.0
C      1  0.5326100000000  0.5496970000000  0.4864450000000 1.0
C      1  0.5206590000000  0.4966980000000  0.6050360000000 1.0
C      1  0.5480970000000  0.4463090000000  0.4411080000000 1.0
C      1  0.4716830000000  0.4273260000000  0.4571550000000 1.0
C      1  0.4930750000000  0.4275730000000  0.5093750000000 1.0
C      1  0.5235260000000  0.5314250000000  0.4643510000000 1.0
C      1  0.5412080000000  0.4207500000000  0.4517630000000 1.0
C      1  0.5310200000000  0.4695590000000  0.5969150000000 1.0
C      1  0.4950740000000  0.5764990000000  0.4643390000000 1.0
C      1  0.4275560000000  0.5164770000000  0.5536470000000 1.0
C      1  0.5036790000000  0.4497260000000  0.5920270000000 1.0
C      1  0.4703550000000  0.5906060000000  0.5246230000000 1.0
C      1  0.4319970000000  0.4564280000000  0.4491620000000 1.0
C      1  0.4762290000000  0.4749060000000  0.4320330000000 1.0
C      1  0.4160790000000  0.5256850000000  0.5034960000000 1.0
C      1  0.5068450000000  0.4859790000000  0.4552170000000 1.0
C      1  0.4968600000000  0.5477980000000  0.4509270000000 1.0
C      1  0.4640740000000  0.4481750000000  0.5448860000000 1.0
C      1  0.5063450000000  0.4815260000000  0.4897050000000 1.0
C      1  0.5519720000000  0.4951530000000  0.5583920000000 1.0
C      1  0.4836440000000  0.4545470000000  0.5196040000000 1.0
C      1  0.4955320000000  0.5330760000000  0.5910120000000 1.0
C      1  0.5315150000000  0.4157570000000  0.4824600000000 1.0
C      1  0.5274560000000  0.5022400000000  0.4733540000000 1.0
C      1  0.5089500000000  0.5231910000000  0.4177030000000 1.0
C      1  0.4657180000000  0.5443330000000  0.5786430000000 1.0
C      1  0.5000830000000  0.5193970000000  0.4983700000000 1.0
C      1  0.4101740000000  0.4693120000000  0.5227320000000 1.0
C      1  0.5012860000000  0.4447850000000  0.4181170000000 1.0
C      1  0.4774910000000  0.4334090000000  0.4302000000000 1.0
C      1  0.5671150000000  0.5709550000000  0.5343110000000 1.0
C      1  0.4440990000000  0.5182720000000  0.4850320000000 1.0
C      1  0.4366800000000  0.4374390000000  0.4934680000000 1.0
C      1  0.4966160000000  0.4863240000000  0.5204710000000 1.0
C      1  0.5569310000000  0.5120690000000  0.4280400000000 1.0
C      1  0.5080370000000  0.5502750000000  0.5087080000000 1.0
C      1  0.5408750000000  0.4886470000000  0.5205370000000 1.0
C      1  0.4694950000000  0.5141360000000  0.5928540000000 1.0
C      1  0.5323760000000  0.4119590000000  0.5323640000000 1.0
C      1  0.5686820000000  0.4919650000000  0.4357760000000 1.0
C      1  0.4412190000000  0.4801530000000  0.5112740000000 1.0
C      1  0.4163440000000  0.5464810000000  0.4809670000000 1.0
C      1  0.5428870000000  0.4560940000000  0.4805980000000 1.0
C      1  0.4931280000000  0.4818130000000  0.5968140000000 1.0
C      1  0.4999410000000  0.4975890000000  0.5672860000000 1.0
C      1  0.4773300000000  0.5404670000000  0.4850560000000 1.0
C      1  0.5054170000000  0.4119020000000  0.5281630000000 1.0
C      1  0.4625000000000  0.4548890000000  0.4088030000000 1.0
C      1  0.5491180000000  0.4358120000000  0.5055400000000 1.0
C      1  0.5770380000000  0.5467230000000  0.5394770000000 1.0
C      1  0.4412140000000  0.5201280000000  0.4471610000000 1.0
C      1  0.4613740000000  0.5719340000000  0.5502660000000 1.0
C      1  0.5047000000000  0.5099040000000  0.5437330000000 1.0
C      1  0.4697290000000  0.5364730000000  0.5174010000000 1.0
C      1  0.4928320000000  0.5092080000000  0.4422990000000 1.0
C      1  0.3919170000000  0.4876350000000  0.4632420000000 1.0
C      1  0.4380630000000  0.4663330000000  0.5419600000000 1.0
C      1  0.4638500000000  0.4861420000000  0.5793610000000 1.0
C      1  0.5844240000000  0.4701340000000  0.5070330000000 1.0
C      1  0.5427050000000  0.5357170000000  0.5222380000000 1.0
C      1  0.5491940000000  0.4015430000000  0.5065640000000 1.0
C      1  0.5372320000000  0.5217020000000  0.5680130000000 1.0
C      1  0.4527010000000  0.6002190000000  0.4506960000000 1.0
C      1  0.4879080000000  0.4581870000000  0.4766920000000 1.0
C      1  0.4963090000000  0.5377700000000  0.5362140000000 1.0
C      1  0.5957930000000  0.5063890000000  0.4948130000000 1.0
C      1  0.5463710000000  0.5598440000000  0.4484170000000 1.0
C      1  0.5810450000000  0.5269860000000  0.4561860000000 1.0
C      1  0.4539540000000  0.5800110000000  0.4979840000000 1.0
C      1  0.4466430000000  0.4369700000000  0.4661100000000 1.0
C      1  0.4670950000000  0.4718010000000  0.4978770000000 1.0
C      1  0.4188720000000  0.5021390000000  0.5246720000000 1.0
C      1  0.4893160000000  0.5576920000000  0.5603000000000 1.0
C      1  0.5212140000000  0.5214580000000  0.5913200000000 1.0
C      1  0.4983600000000  0.5930020000000  0.5203210000000 1.0
C      1  0.5069920000000  0.5793650000000  0.4936040000000 1.0
C      1  0.4395390000000  0.4974670000000  0.4232760000000 1.0
C      1  0.4780280000000  0.4565400000000  0.5701400000000 1.0
C      1  0.5218530000000  0.5877600000000  0.5370830000000 1.0
C      1  0.5288420000000  0.5795990000000  0.4604880000000 1.0
C      1  0.5093630000000  0.4671070000000  0.5633820000000 1.0
C      1  0.4396320000000  0.5474210000000  0.5605100000000 1.0
C      1  0.4817030000000  0.5409070000000  0.4209860000000 1.0
C      1  0.4150010000000  0.4739370000000  0.4699780000000 1.0
C      1  0.4503800000000  0.4325160000000  0.5179560000000 1.0
C      1  0.5326730000000  0.4696710000000  0.5444060000000 1.0
C      1  0.4683710000000  0.5042960000000  0.5288490000000 1.0
C      1  0.5361220000000  0.5428600000000  0.5493730000000 1.0
C      1  0.4498730000000  0.4942490000000  0.5517300000000 1.0
C      1  0.4865400000000  0.4782710000000  0.4022420000000 1.0
C      1  0.4228870000000  0.5412590000000  0.5310570000000 1.0
C      1  0.5538070000000  0.4878210000000  0.4738920000000 1.0
C      1  0.5400150000000  0.5828480000000  0.4924630000000 1.0
C      1  0.5669750000000  0.5497500000000  0.4660360000000 1.0
C      1  0.4486250000000  0.5575970000000  0.5230700000000 1.0
C      1  0.5761600000000  0.5129050000000  0.5437570000000 1.0
C      1  0.5037400000000  0.4986700000000  0.3975220000000 1.0
END
