TITL C-2778425-5191-501 0.00391082752832479 125000 -964.734969051446 0 0 167 (C1) n - 1
REM
REM in /home/nfs/bkarasulu/CARBON/AIRSS/Generating-Clusters/REBO/Only-C1/SD-CG/HFTN-CG
REM
REM
REM
REM
REM
REM ./C.cell (11c1c37f851c82e70ff6c80c92926a4b)
REM
REM compiler GCC version 9.2.1 20190827 (Red Hat 9.2.1-1)
REM options -cpp -mtune=generic -march=x86-64 -g -O0 -fpre-include=/usr/include/finclude/math-vector-fortran.h
REM seed -1807804476 -1091983728 -1889586841 -867903377 1938349511 217412928 342393945 322632869 -2093311321 -1252243510 175692203 965777191 -92621829 1741997749 -1055954885 471170954 1466537314 555056465 -1364244057 -1995782782 389229200 -1720761578 178439650 849880336 -258777133 -315005341 -1552251651 -1186860669 -1362663646 -1014514394 -1217056104 -477058343 -1469164734
REM
CELL 1.54180   50.00000   50.00000   50.00000   90.00000   90.00000   90.00000
LATT -1
SFAC C  
C      1  0.6074810000000  0.5246000000000  0.4967330000000 1.0
C      1  0.5897700000000  0.5244270000000  0.5520320000000 1.0
C      1  0.4368920000000  0.5249610000000  0.5086660000000 1.0
C      1  0.4494300000000  0.4993460000000  0.5136440000000 1.0
C      1  0.4851530000000  0.4672380000000  0.5985740000000 1.0
C      1  0.4840080000000  0.4969960000000  0.6111280000000 1.0
C      1  0.5914640000000  0.4988710000000  0.4734230000000 1.0
C      1  0.4104090000000  0.4595530000000  0.5278810000000 1.0
C      1  0.4578970000000  0.4304760000000  0.4107410000000 1.0
C      1  0.5017300000000  0.5291850000000  0.3996480000000 1.0
C      1  0.5711320000000  0.5044160000000  0.5334170000000 1.0
C      1  0.5892930000000  0.5082530000000  0.4437900000000 1.0
C      1  0.5852760000000  0.4303640000000  0.5244290000000 1.0
C      1  0.5024810000000  0.5907040000000  0.4920890000000 1.0
C      1  0.5124750000000  0.4496190000000  0.4516650000000 1.0
C      1  0.5612000000000  0.4782070000000  0.4889620000000 1.0
C      1  0.4534290000000  0.5951270000000  0.5118700000000 1.0
C      1  0.5686370000000  0.4214740000000  0.5446360000000 1.0
C      1  0.4772160000000  0.5924110000000  0.5361150000000 1.0
C      1  0.5817720000000  0.5716730000000  0.4961510000000 1.0
C      1  0.5296690000000  0.4494580000000  0.5034180000000 1.0
C      1  0.4753980000000  0.4146460000000  0.4484610000000 1.0
C      1  0.4341910000000  0.4425630000000  0.4784850000000 1.0
C      1  0.4896460000000  0.5726680000000  0.4485960000000 1.0
C      1  0.4210830000000  0.5168310000000  0.5672090000000 1.0
C      1  0.5398510000000  0.4703190000000  0.5218460000000 1.0
C      1  0.4816960000000  0.5574460000000  0.4780220000000 1.0
C      1  0.4940400000000  0.4358000000000  0.5915350000000 1.0
C      1  0.5509480000000  0.5272580000000  0.5000390000000 1.0
C      1  0.5041330000000  0.5883480000000  0.5227280000000 1.0
C      1  0.4364350000000  0.5727560000000  0.4646110000000 1.0
C      1  0.5479250000000  0.4854650000000  0.4061860000000 1.0
C      1  0.6097280000000  0.5131140000000  0.5284490000000 1.0
C      1  0.5467290000000  0.5232530000000  0.5741370000000 1.0
C      1  0.5835150000000  0.4407000000000  0.4984120000000 1.0
C      1  0.5566380000000  0.4264800000000  0.4855290000000 1.0
C      1  0.5594410000000  0.4602990000000  0.5457710000000 1.0
C      1  0.5475170000000  0.3986270000000  0.4736940000000 1.0
C      1  0.5132770000000  0.4830530000000  0.4892910000000 1.0
C      1  0.5999600000000  0.4690660000000  0.4887340000000 1.0
C      1  0.4201560000000  0.5472200000000  0.4759200000000 1.0
C      1  0.4614230000000  0.4610870000000  0.5794140000000 1.0
C      1  0.5667490000000  0.5528740000000  0.4347510000000 1.0
C      1  0.5518820000000  0.5349950000000  0.4094160000000 1.0
C      1  0.5748960000000  0.5259710000000  0.5784000000000 1.0
C      1  0.5011310000000  0.4927470000000  0.4588620000000 1.0
C      1  0.4025420000000  0.5256520000000  0.4561480000000 1.0
C      1  0.5720040000000  0.5269070000000  0.4745230000000 1.0
C      1  0.4995690000000  0.5122440000000  0.5636650000000 1.0
C      1  0.4666980000000  0.5210300000000  0.4624640000000 1.0
C      1  0.5389600000000  0.5710840000000  0.4569670000000 1.0
C      1  0.4652990000000  0.4367820000000  0.5029430000000 1.0
C      1  0.4526090000000  0.3946490000000  0.5250700000000 1.0
C      1  0.4234370000000  0.4339180000000  0.5096990000000 1.0
C      1  0.4488090000000  0.4689790000000  0.5231610000000 1.0
C      1  0.4105190000000  0.4949890000000  0.4463110000000 1.0
C      1  0.6191180000000  0.4940490000000  0.5017750000000 1.0
C      1  0.4800990000000  0.5960360000000  0.4681540000000 1.0
C      1  0.5292360000000  0.4161670000000  0.5046340000000 1.0
C      1  0.4062360000000  0.5429970000000  0.5409120000000 1.0
C      1  0.4803870000000  0.5925190000000  0.5663540000000 1.0
C      1  0.4756930000000  0.4889870000000  0.5013610000000 1.0
C      1  0.5477280000000  0.4392850000000  0.4156920000000 1.0
C      1  0.5444290000000  0.4547070000000  0.4748950000000 1.0
C      1  0.5343980000000  0.4605430000000  0.4006420000000 1.0
C      1  0.5692330000000  0.5504950000000  0.5474470000000 1.0
C      1  0.4548970000000  0.4705430000000  0.4588320000000 1.0
C      1  0.5232180000000  0.4409020000000  0.5767500000000 1.0
C      1  0.5025730000000  0.4853750000000  0.5199920000000 1.0
C      1  0.4935160000000  0.5398980000000  0.5973790000000 1.0
C      1  0.5473120000000  0.4615690000000  0.5713680000000 1.0
C      1  0.4064810000000  0.5225400000000  0.5203290000000 1.0
C      1  0.5671600000000  0.4804790000000  0.4260970000000 1.0
C      1  0.4696170000000  0.5050250000000  0.5557870000000 1.0
C      1  0.5037480000000  0.4573870000000  0.5325460000000 1.0
C      1  0.5025130000000  0.6198070000000  0.4773150000000 1.0
C      1  0.4701480000000  0.3908110000000  0.4962400000000 1.0
C      1  0.5287760000000  0.5410120000000  0.4319940000000 1.0
C      1  0.5005100000000  0.5559350000000  0.4209100000000 1.0
C      1  0.5159890000000  0.5134680000000  0.5341550000000 1.0
C      1  0.4535790000000  0.4377620000000  0.5567520000000 1.0
C      1  0.5835470000000  0.5670940000000  0.5254060000000 1.0
C      1  0.4019920000000  0.5233850000000  0.4896170000000 1.0
C      1  0.5339170000000  0.5960350000000  0.5256670000000 1.0
C      1  0.4366390000000  0.4740060000000  0.5907320000000 1.0
C      1  0.4521320000000  0.5407960000000  0.4825390000000 1.0
C      1  0.5373420000000  0.5385700000000  0.5452370000000 1.0
C      1  0.5380120000000  0.5024050000000  0.4478700000000 1.0
C      1  0.4308720000000  0.4497320000000  0.4465110000000 1.0
C      1  0.4274880000000  0.4755180000000  0.4301810000000 1.0
C      1  0.5638600000000  0.5189180000000  0.4362040000000 1.0
C      1  0.4797610000000  0.4234200000000  0.5682710000000 1.0
C      1  0.4959420000000  0.4107490000000  0.5474980000000 1.0
C      1  0.4288870000000  0.6094270000000  0.5219090000000 1.0
C      1  0.5067820000000  0.4647700000000  0.3974380000000 1.0
C      1  0.5497980000000  0.5677460000000  0.5693280000000 1.0
C      1  0.4707420000000  0.4729340000000  0.5488690000000 1.0
C      1  0.4303530000000  0.5487020000000  0.5587340000000 1.0
C      1  0.5748720000000  0.4739130000000  0.4580720000000 1.0
C      1  0.4499720000000  0.4891600000000  0.4180650000000 1.0
C      1  0.4107580000000  0.4935550000000  0.4785170000000 1.0
C      1  0.5360700000000  0.5537080000000  0.5006040000000 1.0
C      1  0.4322030000000  0.4640120000000  0.5523400000000 1.0
C      1  0.5001860000000  0.4951760000000  0.4042700000000 1.0
C      1  0.5194030000000  0.5231500000000  0.5893290000000 1.0
C      1  0.4971930000000  0.4311550000000  0.4375450000000 1.0
C      1  0.4958370000000  0.5687390000000  0.5831580000000 1.0
C      1  0.5200420000000  0.5586230000000  0.5281040000000 1.0
C      1  0.4998420000000  0.4611410000000  0.5620880000000 1.0
C      1  0.5151220000000  0.5640810000000  0.4781440000000 1.0
C      1  0.4578750000000  0.4070680000000  0.4263400000000 1.0
C      1  0.4848160000000  0.5137110000000  0.4862770000000 1.0
C      1  0.3969430000000  0.5071520000000  0.5559740000000 1.0
C      1  0.5077730000000  0.4859080000000  0.5810170000000 1.0
C      1  0.4300620000000  0.4701440000000  0.4947090000000 1.0
C      1  0.5596360000000  0.5858480000000  0.4755440000000 1.0
C      1  0.4325840000000  0.5280680000000  0.4431190000000 1.0
C      1  0.5801340000000  0.5292290000000  0.5135300000000 1.0
C      1  0.4701860000000  0.4640360000000  0.4839260000000 1.0
C      1  0.4505940000000  0.5468800000000  0.5235100000000 1.0
C      1  0.4854800000000  0.3919040000000  0.5270600000000 1.0
C      1  0.4489550000000  0.5121150000000  0.4017130000000 1.0
C      1  0.4699800000000  0.5294700000000  0.4078270000000 1.0
C      1  0.4527850000000  0.5906030000000  0.4794700000000 1.0
C      1  0.5193870000000  0.4272420000000  0.5349960000000 1.0
C      1  0.4435340000000  0.5548540000000  0.4408560000000 1.0
C      1  0.5401810000000  0.4988580000000  0.5027090000000 1.0
C      1  0.4533380000000  0.5707340000000  0.5466010000000 1.0
C      1  0.5066720000000  0.5273160000000  0.5043210000000 1.0
C      1  0.4712950000000  0.5351300000000  0.5471740000000 1.0
C      1  0.5421400000000  0.5389490000000  0.4629590000000 1.0
C      1  0.4703390000000  0.5668220000000  0.5063780000000 1.0
C      1  0.4413780000000  0.4936940000000  0.5663050000000 1.0
C      1  0.4816440000000  0.4864310000000  0.4314150000000 1.0
C      1  0.5770670000000  0.5582810000000  0.4649890000000 1.0
C      1  0.3973570000000  0.4756580000000  0.5019690000000 1.0
C      1  0.5352320000000  0.4707300000000  0.4480870000000 1.0
C      1  0.5462150000000  0.5766390000000  0.4278040000000 1.0
C      1  0.5038800000000  0.3941970000000  0.4989360000000 1.0
C      1  0.4603330000000  0.4215320000000  0.4729280000000 1.0
C      1  0.5849690000000  0.4673890000000  0.5394290000000 1.0
C      1  0.4676680000000  0.5628210000000  0.4277660000000 1.0
C      1  0.4902760000000  0.5481230000000  0.5243980000000 1.0
C      1  0.4887060000000  0.4440660000000  0.4081340000000 1.0
C      1  0.4704900000000  0.5214620000000  0.6010440000000 1.0
C      1  0.5203340000000  0.5184920000000  0.4742740000000 1.0
C      1  0.3976290000000  0.4915620000000  0.5303920000000 1.0
C      1  0.4800100000000  0.5259340000000  0.4363940000000 1.0
C      1  0.5432860000000  0.4965840000000  0.5424870000000 1.0
C      1  0.4455510000000  0.4994620000000  0.4563590000000 1.0
C      1  0.5270240000000  0.5717290000000  0.5778810000000 1.0
C      1  0.4397650000000  0.4070120000000  0.4958080000000 1.0
C      1  0.5265530000000  0.3860240000000  0.4785130000000 1.0
C      1  0.4671550000000  0.5553860000000  0.5722720000000 1.0
C      1  0.5106770000000  0.5061890000000  0.6153070000000 1.0
C      1  0.5668090000000  0.4499130000000  0.4353330000000 1.0
C      1  0.5007080000000  0.4571240000000  0.4771960000000 1.0
C      1  0.4668040000000  0.4560900000000  0.4311590000000 1.0
C      1  0.5510350000000  0.5821740000000  0.5079150000000 1.0
C      1  0.4964730000000  0.4410600000000  0.5053430000000 1.0
C      1  0.4491110000000  0.4265300000000  0.5290890000000 1.0
C      1  0.5827670000000  0.4833850000000  0.5126230000000 1.0
C      1  0.5089470000000  0.5164330000000  0.4365900000000 1.0
C      1  0.4456300000000  0.5325290000000  0.5848890000000 1.0
C      1  0.5378780000000  0.4908440000000  0.5749860000000 1.0
C      1  0.5438180000000  0.4248610000000  0.5551140000000 1.0
C      1  0.5303210000000  0.5115300000000  0.4018380000000 1.0
END
