TITL C-2778425-5191-1294 0.00455429099138583 125000 -950.763673879028 0 0 167 (C1) n - 1
REM
REM in /home/nfs/bkarasulu/CARBON/AIRSS/Generating-Clusters/REBO/Only-C1/SD-CG/HFTN-CG
REM
REM
REM
REM
REM
REM ./C.cell (11c1c37f851c82e70ff6c80c92926a4b)
REM
REM compiler GCC version 9.2.1 20190827 (Red Hat 9.2.1-1)
REM options -cpp -mtune=generic -march=x86-64 -g -O0 -fpre-include=/usr/include/finclude/math-vector-fortran.h
REM seed -659330145 -210121085 1688259787 -1722325386 -1787624279 -1160859042 1506786460 2065910425 -26420906 1523421397 -298280560 -1674534296 -1897794104 1114866153 -40772331 -1437603289 -80426479 1553672424 1944306920 -1067965028 933830554 -1212657041 -1097617268 -846201841 -1546866986 -1051775763 -631766450 -1578109376 1203508143 -1018674795 -473773920 1817408357 -2017513699
REM
CELL 1.54180   50.00000   50.00000   50.00000   90.00000   90.00000   90.00000
LATT -1
SFAC C  
C      1  0.6027510000000  0.4642780000000  0.4650590000000 1.0
C      1  0.5164980000000  0.6004910000000  0.5184240000000 1.0
C      1  0.5306570000000  0.4671300000000  0.5508940000000 1.0
C      1  0.3865920000000  0.4933510000000  0.5272860000000 1.0
C      1  0.4956280000000  0.5928500000000  0.5369940000000 1.0
C      1  0.5968480000000  0.5131800000000  0.4863230000000 1.0
C      1  0.5186930000000  0.5638650000000  0.4977350000000 1.0
C      1  0.5359810000000  0.4079370000000  0.5333870000000 1.0
C      1  0.4153480000000  0.4781970000000  0.4436340000000 1.0
C      1  0.4949340000000  0.4478070000000  0.5985380000000 1.0
C      1  0.5684510000000  0.5063740000000  0.5808710000000 1.0
C      1  0.4777510000000  0.4828870000000  0.5445050000000 1.0
C      1  0.4721260000000  0.5355260000000  0.4721370000000 1.0
C      1  0.4978330000000  0.4372060000000  0.5288190000000 1.0
C      1  0.4440840000000  0.5390130000000  0.4531780000000 1.0
C      1  0.4399010000000  0.4985190000000  0.4537960000000 1.0
C      1  0.4971710000000  0.5728720000000  0.4454880000000 1.0
C      1  0.5900870000000  0.4949940000000  0.5610180000000 1.0
C      1  0.5472660000000  0.4338660000000  0.5187580000000 1.0
C      1  0.4226710000000  0.4261090000000  0.5284110000000 1.0
C      1  0.4328680000000  0.5581940000000  0.5463110000000 1.0
C      1  0.5526010000000  0.5962790000000  0.4661840000000 1.0
C      1  0.5853020000000  0.4532240000000  0.4877290000000 1.0
C      1  0.5441260000000  0.5407300000000  0.4181890000000 1.0
C      1  0.5629760000000  0.5492990000000  0.4413890000000 1.0
C      1  0.4990620000000  0.4689930000000  0.5236650000000 1.0
C      1  0.4705220000000  0.4595320000000  0.4681580000000 1.0
C      1  0.4439090000000  0.5055680000000  0.4132700000000 1.0
C      1  0.4905990000000  0.3939200000000  0.4978020000000 1.0
C      1  0.5803940000000  0.4449320000000  0.4481510000000 1.0
C      1  0.5767830000000  0.5327030000000  0.5447780000000 1.0
C      1  0.4424480000000  0.4085040000000  0.5068270000000 1.0
C      1  0.4383400000000  0.5270760000000  0.5721250000000 1.0
C      1  0.4393630000000  0.4992220000000  0.5102900000000 1.0
C      1  0.4821950000000  0.4713620000000  0.4403230000000 1.0
C      1  0.6096130000000  0.5720500000000  0.4775640000000 1.0
C      1  0.4906140000000  0.4047920000000  0.5259120000000 1.0
C      1  0.4168770000000  0.4797040000000  0.5272390000000 1.0
C      1  0.4373480000000  0.5282430000000  0.5204230000000 1.0
C      1  0.4945920000000  0.4787170000000  0.5733450000000 1.0
C      1  0.5962100000000  0.5140510000000  0.4463700000000 1.0
C      1  0.5302780000000  0.4771240000000  0.4603420000000 1.0
C      1  0.4667450000000  0.5079000000000  0.4446230000000 1.0
C      1  0.5173470000000  0.5071360000000  0.4899350000000 1.0
C      1  0.4481810000000  0.4746900000000  0.5999920000000 1.0
C      1  0.5233410000000  0.4350250000000  0.5595430000000 1.0
C      1  0.4713900000000  0.4268640000000  0.4349910000000 1.0
C      1  0.5548320000000  0.4251240000000  0.5566760000000 1.0
C      1  0.4237760000000  0.5040550000000  0.5508610000000 1.0
C      1  0.5561460000000  0.5645460000000  0.5325880000000 1.0
C      1  0.4587420000000  0.5747510000000  0.4467060000000 1.0
C      1  0.5126650000000  0.5474760000000  0.5824790000000 1.0
C      1  0.4217620000000  0.4389230000000  0.4771770000000 1.0
C      1  0.4645770000000  0.4417770000000  0.5073400000000 1.0
C      1  0.4867960000000  0.5126140000000  0.5297240000000 1.0
C      1  0.4628200000000  0.5378920000000  0.5932160000000 1.0
C      1  0.4246490000000  0.4507670000000  0.4462530000000 1.0
C      1  0.5054770000000  0.4124150000000  0.4735580000000 1.0
C      1  0.5982380000000  0.5238800000000  0.5185900000000 1.0
C      1  0.5323950000000  0.4278180000000  0.4282390000000 1.0
C      1  0.5219630000000  0.5086920000000  0.3878850000000 1.0
C      1  0.5288240000000  0.5085460000000  0.5914970000000 1.0
C      1  0.5000870000000  0.5015380000000  0.6055500000000 1.0
C      1  0.4963240000000  0.5984320000000  0.4627010000000 1.0
C      1  0.5656870000000  0.4565600000000  0.5352190000000 1.0
C      1  0.5161830000000  0.5126590000000  0.5203590000000 1.0
C      1  0.5585550000000  0.4373610000000  0.4805950000000 1.0
C      1  0.5627300000000  0.5805960000000  0.4447540000000 1.0
C      1  0.5009580000000  0.4805050000000  0.4946690000000 1.0
C      1  0.5910030000000  0.5368960000000  0.4375460000000 1.0
C      1  0.5325370000000  0.4709390000000  0.5170840000000 1.0
C      1  0.5378860000000  0.5399740000000  0.5391080000000 1.0
C      1  0.4401010000000  0.4740190000000  0.4747030000000 1.0
C      1  0.5302390000000  0.4922940000000  0.4325160000000 1.0
C      1  0.5717150000000  0.5355690000000  0.4911660000000 1.0
C      1  0.4084340000000  0.5101480000000  0.4531410000000 1.0
C      1  0.4115900000000  0.5342320000000  0.5408850000000 1.0
C      1  0.4757710000000  0.4158490000000  0.5549350000000 1.0
C      1  0.5068140000000  0.4632500000000  0.4205650000000 1.0
C      1  0.5993570000000  0.4951190000000  0.5312350000000 1.0
C      1  0.4572510000000  0.4572620000000  0.5544670000000 1.0
C      1  0.4831610000000  0.4765110000000  0.4006700000000 1.0
C      1  0.4762180000000  0.5562440000000  0.4241810000000 1.0
C      1  0.5841480000000  0.5665500000000  0.4928430000000 1.0
C      1  0.4005230000000  0.5055320000000  0.4919210000000 1.0
C      1  0.5239230000000  0.3974600000000  0.5050340000000 1.0
C      1  0.4590150000000  0.3948010000000  0.4889270000000 1.0
C      1  0.4912920000000  0.5248070000000  0.5870060000000 1.0
C      1  0.4757000000000  0.5195670000000  0.5601410000000 1.0
C      1  0.4728340000000  0.4380090000000  0.5782090000000 1.0
C      1  0.4499430000000  0.4471010000000  0.4323580000000 1.0
C      1  0.6153330000000  0.4884680000000  0.4719900000000 1.0
C      1  0.5086340000000  0.4072330000000  0.5535450000000 1.0
C      1  0.4969120000000  0.4464970000000  0.3924790000000 1.0
C      1  0.5540470000000  0.4540520000000  0.5731640000000 1.0
C      1  0.5044520000000  0.5652460000000  0.4078430000000 1.0
C      1  0.5308250000000  0.4477780000000  0.4942760000000 1.0
C      1  0.4716460000000  0.5262030000000  0.4170920000000 1.0
C      1  0.5074510000000  0.4408580000000  0.4455150000000 1.0
C      1  0.4887950000000  0.4947680000000  0.4648000000000 1.0
C      1  0.5156750000000  0.4719750000000  0.5986450000000 1.0
C      1  0.4564540000000  0.4703670000000  0.5038690000000 1.0
C      1  0.5055910000000  0.4562870000000  0.4724210000000 1.0
C      1  0.3850750000000  0.5179850000000  0.5335550000000 1.0
C      1  0.5456330000000  0.5552600000000  0.5779710000000 1.0
C      1  0.5273100000000  0.5661460000000  0.4336070000000 1.0
C      1  0.5001310000000  0.4243150000000  0.4169420000000 1.0
C      1  0.5106780000000  0.5348370000000  0.4161200000000 1.0
C      1  0.5342580000000  0.5004210000000  0.5435770000000 1.0
C      1  0.5623620000000  0.5876050000000  0.4910280000000 1.0
C      1  0.4610280000000  0.5404040000000  0.5418600000000 1.0
C      1  0.4484240000000  0.5600700000000  0.5740630000000 1.0
C      1  0.4732090000000  0.4122520000000  0.4631060000000 1.0
C      1  0.4357440000000  0.4640850000000  0.5785340000000 1.0
C      1  0.4338310000000  0.5290940000000  0.4290420000000 1.0
C      1  0.5470290000000  0.5019860000000  0.4773600000000 1.0
C      1  0.5612560000000  0.4728090000000  0.4507630000000 1.0
C      1  0.5864050000000  0.5555790000000  0.5223620000000 1.0
C      1  0.4561760000000  0.4239370000000  0.5325470000000 1.0
C      1  0.4822240000000  0.5627000000000  0.5786520000000 1.0
C      1  0.5052710000000  0.5077310000000  0.4269380000000 1.0
C      1  0.5269410000000  0.5229980000000  0.5642320000000 1.0
C      1  0.4259380000000  0.4540260000000  0.5474920000000 1.0
C      1  0.4087600000000  0.5580770000000  0.4815590000000 1.0
C      1  0.4564930000000  0.5728540000000  0.4809140000000 1.0
C      1  0.5304480000000  0.5803340000000  0.5688020000000 1.0
C      1  0.4300290000000  0.5661340000000  0.4623260000000 1.0
C      1  0.4933270000000  0.4337680000000  0.4959080000000 1.0
C      1  0.5508310000000  0.5346860000000  0.4677740000000 1.0
C      1  0.5559530000000  0.4509150000000  0.4251220000000 1.0
C      1  0.5542920000000  0.4916100000000  0.5088690000000 1.0
C      1  0.5642630000000  0.5343560000000  0.5725240000000 1.0
C      1  0.4662810000000  0.4993930000000  0.4890970000000 1.0
C      1  0.5039770000000  0.5244450000000  0.4672850000000 1.0
C      1  0.5414810000000  0.5822050000000  0.5121740000000 1.0
C      1  0.5821750000000  0.4754690000000  0.5129360000000 1.0
C      1  0.5266760000000  0.5550550000000  0.4657120000000 1.0
C      1  0.4144590000000  0.5740190000000  0.5051340000000 1.0
C      1  0.5583400000000  0.5228150000000  0.5178740000000 1.0
C      1  0.3920320000000  0.4543300000000  0.4837470000000 1.0
C      1  0.4140090000000  0.4505790000000  0.5088540000000 1.0
C      1  0.4526160000000  0.4975480000000  0.5631100000000 1.0
C      1  0.4737810000000  0.5244140000000  0.5048100000000 1.0
C      1  0.5407720000000  0.5097850000000  0.4089340000000 1.0
C      1  0.4940080000000  0.5604610000000  0.4750640000000 1.0
C      1  0.5469870000000  0.4814380000000  0.5889570000000 1.0
C      1  0.4528930000000  0.4336900000000  0.4777890000000 1.0
C      1  0.4009970000000  0.5309800000000  0.4759360000000 1.0
C      1  0.5054970000000  0.6111120000000  0.4927620000000 1.0
C      1  0.5641800000000  0.4858340000000  0.5470230000000 1.0
C      1  0.5024690000000  0.5813880000000  0.5615580000000 1.0
C      1  0.5276030000000  0.6092140000000  0.4672660000000 1.0
C      1  0.4341400000000  0.5791700000000  0.5240810000000 1.0
C      1  0.5098990000000  0.5462960000000  0.5219520000000 1.0
C      1  0.5801770000000  0.4355760000000  0.5139850000000 1.0
C      1  0.4741020000000  0.4818940000000  0.6003790000000 1.0
C      1  0.4958440000000  0.4501700000000  0.5586950000000 1.0
C      1  0.4567820000000  0.4761520000000  0.4179930000000 1.0
C      1  0.4817590000000  0.5571530000000  0.5261270000000 1.0
C      1  0.4669010000000  0.5871880000000  0.5197090000000 1.0
C      1  0.5373910000000  0.4107780000000  0.4774620000000 1.0
C      1  0.5770750000000  0.4958960000000  0.4643010000000 1.0
C      1  0.4556910000000  0.5522150000000  0.5041910000000 1.0
C      1  0.5558960000000  0.4211570000000  0.4511300000000 1.0
C      1  0.4096900000000  0.4804130000000  0.4829870000000 1.0
C      1  0.4749670000000  0.5972450000000  0.4892040000000 1.0
C      1  0.4903780000000  0.5064710000000  0.3965890000000 1.0
END
