TITL C-2778424-3986-1272 -0.505602866565166 125000 -312.799600076466 0 0 54 (C1) n - 1
REM
REM in /home/nfs/bkarasulu/CARBON/AIRSS/Generating-Clusters/REBO/Only-C1/SD-CG/HFTN-CG
REM
REM
REM
REM
REM
REM ./C.cell (11c1c37f851c82e70ff6c80c92926a4b)
REM
REM compiler GCC version 9.2.1 20190827 (Red Hat 9.2.1-1)
REM options -cpp -mtune=generic -march=x86-64 -g -O0 -fpre-include=/usr/include/finclude/math-vector-fortran.h
REM seed -889533109 1973481026 1160747748 1409410645 -33370514 -5628424 1843691214 -2066078051 1051706213 -1247605023 -512425686 -1527106282 -2004540342 -1904236221 -785987399 1030873736 876139535 382554512 -164454326 621032789 -885050838 856690530 1041355752 1857475573 1295541801 -752704086 675595688 -1665505546 -1799820598 -1642949163 1307775365 -425294573 706849232
REM
CELL 1.54180   50.00000   50.00000   50.00000   90.00000   90.00000   90.00000
LATT -1
SFAC C  
C      1  0.4663250000000  0.5542340000000  0.4901720000000 1.0
C      1  0.4954100000000  0.4413970000000  0.5012050000000 1.0
C      1  0.4729400000000  0.5184270000000  0.5415770000000 1.0
C      1  0.4701720000000  0.5452790000000  0.4628710000000 1.0
C      1  0.4304320000000  0.5161650000000  0.5100020000000 1.0
C      1  0.5677440000000  0.4978770000000  0.5537270000000 1.0
C      1  0.4965700000000  0.5404580000000  0.4521290000000 1.0
C      1  0.5194710000000  0.5355970000000  0.5433730000000 1.0
C      1  0.3962720000000  0.4500200000000  0.5111720000000 1.0
C      1  0.5454990000000  0.5421350000000  0.5359740000000 1.0
C      1  0.4936050000000  0.5422520000000  0.5326640000000 1.0
C      1  0.5470160000000  0.5318850000000  0.4614260000000 1.0
C      1  0.4673170000000  0.4408560000000  0.5068850000000 1.0
C      1  0.5418230000000  0.4819560000000  0.4542400000000 1.0
C      1  0.4482410000000  0.5316390000000  0.4502700000000 1.0
C      1  0.4852150000000  0.5194370000000  0.4943520000000 1.0
C      1  0.5538570000000  0.5449870000000  0.4884200000000 1.0
C      1  0.5165820000000  0.5131750000000  0.5619130000000 1.0
C      1  0.5923210000000  0.4950620000000  0.5334370000000 1.0
C      1  0.4209340000000  0.4616260000000  0.5112320000000 1.0
C      1  0.4830060000000  0.5612990000000  0.5145380000000 1.0
C      1  0.5377500000000  0.4958120000000  0.5666440000000 1.0
C      1  0.5698300000000  0.5370650000000  0.5124610000000 1.0
C      1  0.4585480000000  0.5297720000000  0.5128280000000 1.0
C      1  0.5929840000000  0.5141380000000  0.5140010000000 1.0
C      1  0.4563910000000  0.4874500000000  0.5005110000000 1.0
C      1  0.6004820000000  0.4681320000000  0.5392890000000 1.0
C      1  0.5319700000000  0.4511980000000  0.5399470000000 1.0
C      1  0.5017790000000  0.4467830000000  0.4735020000000 1.0
C      1  0.5081630000000  0.5182300000000  0.4367130000000 1.0
C      1  0.5144280000000  0.4435070000000  0.5216110000000 1.0
C      1  0.4291680000000  0.4938270000000  0.4868080000000 1.0
C      1  0.5522390000000  0.4674020000000  0.5560150000000 1.0
C      1  0.4682330000000  0.4935990000000  0.4278370000000 1.0
C      1  0.4890180000000  0.5073140000000  0.5655270000000 1.0
C      1  0.4463790000000  0.4574220000000  0.4659730000000 1.0
C      1  0.5049200000000  0.5375050000000  0.4911210000000 1.0
C      1  0.5279820000000  0.5592350000000  0.4982850000000 1.0
C      1  0.4565830000000  0.4938890000000  0.5301580000000 1.0
C      1  0.4775130000000  0.4916960000000  0.5850390000000 1.0
C      1  0.5219310000000  0.5530080000000  0.4659590000000 1.0
C      1  0.5340330000000  0.5093520000000  0.4477970000000 1.0
C      1  0.4437120000000  0.5048250000000  0.4411480000000 1.0
C      1  0.5241250000000  0.4621650000000  0.4646450000000 1.0
C      1  0.4721870000000  0.4809310000000  0.4557250000000 1.0
C      1  0.4429310000000  0.4501580000000  0.4955250000000 1.0
C      1  0.5683830000000  0.4755880000000  0.4521390000000 1.0
C      1  0.4771570000000  0.4951820000000  0.4818560000000 1.0
C      1  0.4782810000000  0.4501140000000  0.4575790000000 1.0
C      1  0.4256740000000  0.4866220000000  0.5258870000000 1.0
C      1  0.5816280000000  0.4539520000000  0.5538880000000 1.0
C      1  0.4316240000000  0.4855810000000  0.4589420000000 1.0
C      1  0.4914080000000  0.5054350000000  0.4179460000000 1.0
C      1  0.5718120000000  0.5273460000000  0.5451140000000 1.0
END
