TITL C-2778428-5639-763 -0.00196916154164503 125000 -956.985976557818 0 0 164 (C1) n - 1
REM
REM in /home/nfs/bkarasulu/CARBON/AIRSS/Generating-Clusters/REBO/Only-C1/SD-CG/HFTN-CG
REM
REM
REM
REM
REM
REM ./C.cell (11c1c37f851c82e70ff6c80c92926a4b)
REM
REM compiler GCC version 9.2.1 20190827 (Red Hat 9.2.1-1)
REM options -cpp -mtune=generic -march=x86-64 -g -O0 -fpre-include=/usr/include/finclude/math-vector-fortran.h
REM seed 1370381026 -474565523 -214620976 2068179748 680415875 -451014817 -1756392667 841789245 1322567630 -703344060 -668017188 568028892 1865276868 649959482 -192772400 -443828136 349208718 592286561 1827986841 1874293000 -1152126641 2098650094 -1552607993 1096963136 -49578492 50269808 -1420380627 -2031445668 1543673313 -361435365 -666723604 -1769150165 -1257174038
REM
CELL 1.54180   50.00000   50.00000   50.00000   90.00000   90.00000   90.00000
LATT -1
SFAC C  
C      1  0.4680230000000  0.5161710000000  0.4752770000000 1.0
C      1  0.4733720000000  0.5815610000000  0.5423030000000 1.0
C      1  0.4087620000000  0.4816820000000  0.4389980000000 1.0
C      1  0.5254490000000  0.4634850000000  0.5866390000000 1.0
C      1  0.5995640000000  0.5197640000000  0.4693090000000 1.0
C      1  0.4309920000000  0.5120570000000  0.4256670000000 1.0
C      1  0.5600670000000  0.5948200000000  0.4876200000000 1.0
C      1  0.4304450000000  0.5143310000000  0.5713070000000 1.0
C      1  0.4908380000000  0.6010600000000  0.5121410000000 1.0
C      1  0.5066910000000  0.4747700000000  0.5180930000000 1.0
C      1  0.5544460000000  0.4580840000000  0.5732390000000 1.0
C      1  0.5325120000000  0.4255320000000  0.4944010000000 1.0
C      1  0.6033220000000  0.4965540000000  0.4943340000000 1.0
C      1  0.5154710000000  0.5453130000000  0.5455720000000 1.0
C      1  0.4252080000000  0.4237150000000  0.5015060000000 1.0
C      1  0.5514980000000  0.5105750000000  0.5114610000000 1.0
C      1  0.5113690000000  0.4891540000000  0.4547220000000 1.0
C      1  0.4475140000000  0.5696440000000  0.4314370000000 1.0
C      1  0.5228300000000  0.5135710000000  0.4840900000000 1.0
C      1  0.4517060000000  0.5480690000000  0.5969570000000 1.0
C      1  0.5351770000000  0.5764930000000  0.4766880000000 1.0
C      1  0.4170530000000  0.5203850000000  0.5259270000000 1.0
C      1  0.4030560000000  0.5229060000000  0.4637970000000 1.0
C      1  0.4405630000000  0.4030830000000  0.4893800000000 1.0
C      1  0.4761990000000  0.5679150000000  0.4140690000000 1.0
C      1  0.4592490000000  0.4837140000000  0.4701340000000 1.0
C      1  0.4834800000000  0.4168640000000  0.5572380000000 1.0
C      1  0.4226840000000  0.4322990000000  0.5295820000000 1.0
C      1  0.6005450000000  0.4959340000000  0.5259030000000 1.0
C      1  0.4962070000000  0.4396570000000  0.4862050000000 1.0
C      1  0.4096990000000  0.5260250000000  0.4374010000000 1.0
C      1  0.5484680000000  0.5228470000000  0.4299390000000 1.0
C      1  0.5178990000000  0.5295210000000  0.4414940000000 1.0
C      1  0.5361240000000  0.5136150000000  0.5908420000000 1.0
C      1  0.4209660000000  0.4901230000000  0.5612570000000 1.0
C      1  0.5242280000000  0.5404860000000  0.4036020000000 1.0
C      1  0.4747520000000  0.4645050000000  0.4467150000000 1.0
C      1  0.4449890000000  0.5193300000000  0.5950180000000 1.0
C      1  0.4891170000000  0.5500000000000  0.4596320000000 1.0
C      1  0.4592840000000  0.5188700000000  0.4356400000000 1.0
C      1  0.5514040000000  0.5213130000000  0.4694630000000 1.0
C      1  0.4688770000000  0.3986170000000  0.4996460000000 1.0
C      1  0.4889690000000  0.4643980000000  0.3929750000000 1.0
C      1  0.5173750000000  0.4464100000000  0.5102710000000 1.0
C      1  0.5614160000000  0.4352450000000  0.4856670000000 1.0
C      1  0.4804650000000  0.5534610000000  0.5908160000000 1.0
C      1  0.4578720000000  0.5766400000000  0.4818730000000 1.0
C      1  0.4107860000000  0.4930620000000  0.5345520000000 1.0
C      1  0.5821990000000  0.5470560000000  0.5350520000000 1.0
C      1  0.4592080000000  0.4955740000000  0.6036480000000 1.0
C      1  0.5378690000000  0.4627600000000  0.4688670000000 1.0
C      1  0.4236530000000  0.4485430000000  0.4810420000000 1.0
C      1  0.4583640000000  0.4762380000000  0.4030540000000 1.0
C      1  0.3900100000000  0.4611520000000  0.4983570000000 1.0
C      1  0.4826630000000  0.4902170000000  0.5018630000000 1.0
C      1  0.4998760000000  0.4409300000000  0.5841780000000 1.0
C      1  0.5484740000000  0.4658640000000  0.4147740000000 1.0
C      1  0.4987210000000  0.5198030000000  0.4025800000000 1.0
C      1  0.4760200000000  0.5564330000000  0.5258940000000 1.0
C      1  0.5626610000000  0.4833130000000  0.5243850000000 1.0
C      1  0.5391320000000  0.4391660000000  0.4318400000000 1.0
C      1  0.4901680000000  0.4685030000000  0.5686130000000 1.0
C      1  0.5227980000000  0.5509360000000  0.4642370000000 1.0
C      1  0.5753720000000  0.4580820000000  0.5051300000000 1.0
C      1  0.4957220000000  0.3920920000000  0.5157600000000 1.0
C      1  0.5648150000000  0.5459330000000  0.5742250000000 1.0
C      1  0.4878390000000  0.5401700000000  0.5603650000000 1.0
C      1  0.4373730000000  0.5667370000000  0.5259290000000 1.0
C      1  0.5122190000000  0.4492190000000  0.4133760000000 1.0
C      1  0.4993880000000  0.4753140000000  0.4298580000000 1.0
C      1  0.5380280000000  0.4873200000000  0.3989980000000 1.0
C      1  0.5622590000000  0.4303020000000  0.5202370000000 1.0
C      1  0.5071590000000  0.5872630000000  0.4648620000000 1.0
C      1  0.5815750000000  0.5212540000000  0.5170560000000 1.0
C      1  0.5430630000000  0.4095180000000  0.5299310000000 1.0
C      1  0.5427720000000  0.4086870000000  0.5618650000000 1.0
C      1  0.5100420000000  0.4494080000000  0.4583570000000 1.0
C      1  0.5723720000000  0.5633210000000  0.4823460000000 1.0
C      1  0.6002270000000  0.4713420000000  0.4730220000000 1.0
C      1  0.5053290000000  0.5717250000000  0.5773940000000 1.0
C      1  0.5240330000000  0.4031750000000  0.4714060000000 1.0
C      1  0.5452780000000  0.4256350000000  0.4569660000000 1.0
C      1  0.5659520000000  0.4548860000000  0.5434320000000 1.0
C      1  0.4089740000000  0.4626390000000  0.5224420000000 1.0
C      1  0.5801460000000  0.5256890000000  0.4419960000000 1.0
C      1  0.5459080000000  0.5155920000000  0.3999590000000 1.0
C      1  0.5097740000000  0.6027690000000  0.5334340000000 1.0
C      1  0.5318160000000  0.5356990000000  0.5078500000000 1.0
C      1  0.5962970000000  0.4988280000000  0.4354580000000 1.0
C      1  0.4911560000000  0.5434800000000  0.4257820000000 1.0
C      1  0.4387390000000  0.4341230000000  0.5543820000000 1.0
C      1  0.4814910000000  0.4677630000000  0.5364530000000 1.0
C      1  0.5022430000000  0.5469710000000  0.5143270000000 1.0
C      1  0.4341830000000  0.5665760000000  0.5831690000000 1.0
C      1  0.5102790000000  0.4067100000000  0.5394830000000 1.0
C      1  0.5140150000000  0.4143250000000  0.5724930000000 1.0
C      1  0.4968010000000  0.5306690000000  0.4865580000000 1.0
C      1  0.4720310000000  0.5045120000000  0.4103730000000 1.0
C      1  0.4345180000000  0.5020100000000  0.4954820000000 1.0
C      1  0.4025130000000  0.4734380000000  0.4715330000000 1.0
C      1  0.5605600000000  0.5228270000000  0.5583480000000 1.0
C      1  0.4583640000000  0.5458330000000  0.4503390000000 1.0
C      1  0.4355810000000  0.4703490000000  0.4497060000000 1.0
C      1  0.4913020000000  0.4973280000000  0.6026800000000 1.0
C      1  0.4130770000000  0.5018040000000  0.4793670000000 1.0
C      1  0.5965440000000  0.4643150000000  0.5313050000000 1.0
C      1  0.4548010000000  0.4117440000000  0.4644440000000 1.0
C      1  0.5253620000000  0.5635070000000  0.4210720000000 1.0
C      1  0.4897210000000  0.5116040000000  0.4493220000000 1.0
C      1  0.4313680000000  0.5632360000000  0.5551610000000 1.0
C      1  0.4966450000000  0.4731470000000  0.4795020000000 1.0
C      1  0.4819120000000  0.4078100000000  0.4490800000000 1.0
C      1  0.4604840000000  0.4440440000000  0.4661160000000 1.0
C      1  0.4533010000000  0.4595100000000  0.4936380000000 1.0
C      1  0.5206180000000  0.4691360000000  0.5549990000000 1.0
C      1  0.4871470000000  0.5897560000000  0.4849010000000 1.0
C      1  0.4313920000000  0.4382960000000  0.4496960000000 1.0
C      1  0.4297040000000  0.4849610000000  0.4132140000000 1.0
C      1  0.4978190000000  0.5889990000000  0.5567020000000 1.0
C      1  0.4881450000000  0.5076070000000  0.5306450000000 1.0
C      1  0.5736280000000  0.5003500000000  0.4798960000000 1.0
C      1  0.5213950000000  0.4907500000000  0.5994140000000 1.0
C      1  0.5477200000000  0.5652640000000  0.4364310000000 1.0
C      1  0.4494030000000  0.5437080000000  0.4830990000000 1.0
C      1  0.4538340000000  0.4924010000000  0.5176010000000 1.0
C      1  0.5398330000000  0.4973600000000  0.4496270000000 1.0
C      1  0.5528550000000  0.6112120000000  0.5082840000000 1.0
C      1  0.5531590000000  0.5846120000000  0.5479650000000 1.0
C      1  0.4476110000000  0.5905320000000  0.4570070000000 1.0
C      1  0.4389190000000  0.4651770000000  0.5659230000000 1.0
C      1  0.5252970000000  0.3949310000000  0.5045780000000 1.0
C      1  0.5478080000000  0.5609690000000  0.5043540000000 1.0
C      1  0.4800920000000  0.5098850000000  0.5728600000000 1.0
C      1  0.4944220000000  0.4315950000000  0.4357160000000 1.0
C      1  0.5271010000000  0.4470610000000  0.5383110000000 1.0
C      1  0.5765840000000  0.4778930000000  0.5743350000000 1.0
C      1  0.4624830000000  0.4697980000000  0.5854440000000 1.0
C      1  0.5190890000000  0.4973800000000  0.5393380000000 1.0
C      1  0.4744170000000  0.4178600000000  0.5260720000000 1.0
C      1  0.5639600000000  0.5663480000000  0.5293140000000 1.0
C      1  0.5568380000000  0.5726750000000  0.5737180000000 1.0
C      1  0.4320230000000  0.5432140000000  0.5094550000000 1.0
C      1  0.5879320000000  0.4762910000000  0.4489110000000 1.0
C      1  0.5347810000000  0.5208550000000  0.5474110000000 1.0
C      1  0.4364810000000  0.5332470000000  0.5478570000000 1.0
C      1  0.4704690000000  0.5955470000000  0.4324600000000 1.0
C      1  0.4647900000000  0.4934110000000  0.5507410000000 1.0
C      1  0.5079300000000  0.4894580000000  0.4015950000000 1.0
C      1  0.5231980000000  0.5427000000000  0.5788370000000 1.0
C      1  0.4411730000000  0.4673000000000  0.5324290000000 1.0
C      1  0.5586780000000  0.4713610000000  0.4449870000000 1.0
C      1  0.4662900000000  0.4373950000000  0.5745240000000 1.0
C      1  0.5622640000000  0.5487670000000  0.4570590000000 1.0
C      1  0.4915770000000  0.4089840000000  0.4797740000000 1.0
C      1  0.5774620000000  0.4985040000000  0.5510300000000 1.0
C      1  0.4724510000000  0.4488520000000  0.4172180000000 1.0
C      1  0.5015040000000  0.5812630000000  0.4334850000000 1.0
C      1  0.5436230000000  0.4868640000000  0.4879690000000 1.0
C      1  0.5913600000000  0.5400040000000  0.4926560000000 1.0
C      1  0.4584870000000  0.5892600000000  0.5126690000000 1.0
C      1  0.4641690000000  0.4463320000000  0.5209600000000 1.0
C      1  0.4647170000000  0.5311500000000  0.5387060000000 1.0
C      1  0.5386020000000  0.6047100000000  0.5326510000000 1.0
C      1  0.4992460000000  0.5276600000000  0.5962150000000 1.0
END
