TITL C-2778436-5916-1407 0.00434764195324116 125000 -473.112459454559 0 0 83 (C1) n - 1
REM
REM in /home/nfs/bkarasulu/CARBON/AIRSS/Generating-Clusters/REBO/Only-C1/SD-CG/HFTN-CG
REM
REM
REM
REM
REM
REM ./C.cell (11c1c37f851c82e70ff6c80c92926a4b)
REM
REM compiler GCC version 9.2.1 20190827 (Red Hat 9.2.1-1)
REM options -cpp -mtune=generic -march=x86-64 -g -O0 -fpre-include=/usr/include/finclude/math-vector-fortran.h
REM seed 272651895 430537181 1019082544 -750311580 1938380398 -881354707 1304485825 -903152166 831180156 -543584562 -1362825996 -860970395 944931862 -170893983 1412630482 1728823320 -1269475299 -1354436878 541799852 -1596228924 1704895335 1036202353 1655242508 -860976151 -1641910814 -1732646874 -1110383942 -1069381717 379342636 709137766 -26376590 -1236284205 549596952
REM
CELL 1.54180   50.00000   50.00000   50.00000   90.00000   90.00000   90.00000
LATT -1
SFAC C  
C      1  0.5217780000000  0.4798000000000  0.4630520000000 1.0
C      1  0.5470000000000  0.5175520000000  0.4413420000000 1.0
C      1  0.4395310000000  0.4948260000000  0.5176080000000 1.0
C      1  0.4477080000000  0.4858580000000  0.4360060000000 1.0
C      1  0.5104940000000  0.4606000000000  0.5365160000000 1.0
C      1  0.4439420000000  0.4794180000000  0.4691990000000 1.0
C      1  0.4492170000000  0.5653920000000  0.5188280000000 1.0
C      1  0.4979220000000  0.4266560000000  0.4980870000000 1.0
C      1  0.4870110000000  0.5111610000000  0.5233700000000 1.0
C      1  0.5150560000000  0.5957530000000  0.5386180000000 1.0
C      1  0.5193030000000  0.5126940000000  0.5337000000000 1.0
C      1  0.5434810000000  0.5435930000000  0.4505210000000 1.0
C      1  0.4719390000000  0.4879250000000  0.4211500000000 1.0
C      1  0.5746390000000  0.5153760000000  0.4911000000000 1.0
C      1  0.4993800000000  0.5169410000000  0.4635970000000 1.0
C      1  0.4753990000000  0.4359120000000  0.4527150000000 1.0
C      1  0.4671250000000  0.5237220000000  0.4537520000000 1.0
C      1  0.5662880000000  0.4849660000000  0.5009040000000 1.0
C      1  0.4144310000000  0.5230020000000  0.4522250000000 1.0
C      1  0.4206020000000  0.4716330000000  0.5117610000000 1.0
C      1  0.4737710000000  0.5816920000000  0.4796000000000 1.0
C      1  0.5339190000000  0.4482230000000  0.4420060000000 1.0
C      1  0.5505740000000  0.5378170000000  0.5424310000000 1.0
C      1  0.4961980000000  0.5741520000000  0.4567150000000 1.0
C      1  0.4793240000000  0.5306080000000  0.5743190000000 1.0
C      1  0.5173610000000  0.4738160000000  0.4298020000000 1.0
C      1  0.5279830000000  0.4256200000000  0.5109980000000 1.0
C      1  0.5435970000000  0.5513930000000  0.5186520000000 1.0
C      1  0.4657330000000  0.5331400000000  0.4844870000000 1.0
C      1  0.4836680000000  0.4486240000000  0.5094840000000 1.0
C      1  0.3906920000000  0.5330390000000  0.4569730000000 1.0
C      1  0.5903630000000  0.5204710000000  0.4668950000000 1.0
C      1  0.5038260000000  0.5711080000000  0.4898500000000 1.0
C      1  0.5520170000000  0.4934140000000  0.5651530000000 1.0
C      1  0.4812160000000  0.4396590000000  0.4244110000000 1.0
C      1  0.5026690000000  0.4751720000000  0.5083500000000 1.0
C      1  0.4618400000000  0.5084440000000  0.5710400000000 1.0
C      1  0.4813760000000  0.5545630000000  0.5594910000000 1.0
C      1  0.5691620000000  0.5040210000000  0.4531430000000 1.0
C      1  0.5185310000000  0.5246200000000  0.5030530000000 1.0
C      1  0.4910020000000  0.4446590000000  0.5594170000000 1.0
C      1  0.5653030000000  0.5124750000000  0.5494900000000 1.0
C      1  0.5422220000000  0.4975820000000  0.5204790000000 1.0
C      1  0.5687010000000  0.4574850000000  0.5194010000000 1.0
C      1  0.4688070000000  0.4627350000000  0.4613440000000 1.0
C      1  0.5469400000000  0.4501830000000  0.4965260000000 1.0
C      1  0.4707180000000  0.4573420000000  0.5363460000000 1.0
C      1  0.4883840000000  0.5011170000000  0.4916360000000 1.0
C      1  0.5101190000000  0.4921040000000  0.5978390000000 1.0
C      1  0.5239380000000  0.4262090000000  0.4578770000000 1.0
C      1  0.5491500000000  0.5331340000000  0.4931930000000 1.0
C      1  0.4905950000000  0.4784720000000  0.4589560000000 1.0
C      1  0.5173750000000  0.5074580000000  0.4354940000000 1.0
C      1  0.4392300000000  0.5125170000000  0.4472640000000 1.0
C      1  0.5291790000000  0.4730510000000  0.4920540000000 1.0
C      1  0.5045830000000  0.5220180000000  0.5842390000000 1.0
C      1  0.5341860000000  0.4703840000000  0.5579010000000 1.0
C      1  0.5652050000000  0.4798900000000  0.4683150000000 1.0
C      1  0.4979120000000  0.5696900000000  0.5436790000000 1.0
C      1  0.5192140000000  0.5698210000000  0.5169930000000 1.0
C      1  0.5419900000000  0.4219620000000  0.4802000000000 1.0
C      1  0.4950370000000  0.5415350000000  0.4986660000000 1.0
C      1  0.4545510000000  0.5014200000000  0.4897240000000 1.0
C      1  0.4410750000000  0.5404740000000  0.5356410000000 1.0
C      1  0.5583900000000  0.4575340000000  0.4531770000000 1.0
C      1  0.5032570000000  0.4851810000000  0.6236280000000 1.0
C      1  0.4261270000000  0.5184830000000  0.5318490000000 1.0
C      1  0.5279370000000  0.5251730000000  0.5621240000000 1.0
C      1  0.4052250000000  0.4602150000000  0.5315270000000 1.0
C      1  0.4553600000000  0.5624130000000  0.4902340000000 1.0
C      1  0.4726150000000  0.5403090000000  0.5232260000000 1.0
C      1  0.5410620000000  0.4457440000000  0.5354520000000 1.0
C      1  0.5150790000000  0.5469230000000  0.4601790000000 1.0
C      1  0.5046430000000  0.4718510000000  0.5747860000000 1.0
C      1  0.4740510000000  0.4797150000000  0.5624370000000 1.0
C      1  0.4911040000000  0.5475810000000  0.4361050000000 1.0
C      1  0.4861510000000  0.5162030000000  0.4262060000000 1.0
C      1  0.4967820000000  0.4242260000000  0.4687730000000 1.0
C      1  0.4217870000000  0.4648940000000  0.4850640000000 1.0
C      1  0.4662110000000  0.4897750000000  0.5322020000000 1.0
C      1  0.5385050000000  0.5068050000000  0.5891130000000 1.0
C      1  0.4901210000000  0.4663280000000  0.4183830000000 1.0
C      1  0.5341090000000  0.5045550000000  0.4819560000000 1.0
END
