TITL C-2778436-5916-841 -0.00258196912800762 125000 -1156.31008615031 0 0 198 (C1) n - 1
REM
REM in /home/nfs/bkarasulu/CARBON/AIRSS/Generating-Clusters/REBO/Only-C1/SD-CG/HFTN-CG
REM
REM
REM
REM
REM
REM ./C.cell (11c1c37f851c82e70ff6c80c92926a4b)
REM
REM compiler GCC version 9.2.1 20190827 (Red Hat 9.2.1-1)
REM options -cpp -mtune=generic -march=x86-64 -g -O0 -fpre-include=/usr/include/finclude/math-vector-fortran.h
REM seed -705522751 -570562952 994488422 400486985 -1845895227 -417445453 -1905299615 -205436206 -1172672537 1474024882 -338459965 264344457 1303652120 1213819947 -2141963185 1941182985 2026190641 -1647816595 -534543187 1098253186 -1552900767 -1111560176 1390529709 -1133024438 450862029 1044187098 -280642639 -1547548030 1596706787 -69531116 963643283 1585670319 -420393480
REM
CELL 1.54180   50.00000   50.00000   50.00000   90.00000   90.00000   90.00000
LATT -1
SFAC C  
C      1  0.5860870000000  0.4744020000000  0.5425060000000 1.0
C      1  0.6095260000000  0.4869220000000  0.5297500000000 1.0
C      1  0.5314840000000  0.4370660000000  0.5192680000000 1.0
C      1  0.4474970000000  0.4175220000000  0.4378270000000 1.0
C      1  0.4977170000000  0.4935110000000  0.4949400000000 1.0
C      1  0.6220370000000  0.5168870000000  0.4669280000000 1.0
C      1  0.5619070000000  0.5645390000000  0.5625330000000 1.0
C      1  0.5352960000000  0.4720820000000  0.4380120000000 1.0
C      1  0.4930590000000  0.3942820000000  0.5586130000000 1.0
C      1  0.5492470000000  0.4570140000000  0.5040850000000 1.0
C      1  0.4453990000000  0.4132030000000  0.4696510000000 1.0
C      1  0.4283990000000  0.5667340000000  0.4837080000000 1.0
C      1  0.5867310000000  0.5698330000000  0.5192260000000 1.0
C      1  0.5037060000000  0.4080020000000  0.4582480000000 1.0
C      1  0.4934380000000  0.5397560000000  0.4093700000000 1.0
C      1  0.5038600000000  0.5660660000000  0.5817230000000 1.0
C      1  0.4729140000000  0.4325290000000  0.4647060000000 1.0
C      1  0.6242460000000  0.5069530000000  0.4985230000000 1.0
C      1  0.4972010000000  0.4105950000000  0.5825340000000 1.0
C      1  0.4535390000000  0.4295530000000  0.5769440000000 1.0
C      1  0.4985250000000  0.5587980000000  0.4438870000000 1.0
C      1  0.4777870000000  0.4818660000000  0.4051600000000 1.0
C      1  0.5093230000000  0.5146630000000  0.5655250000000 1.0
C      1  0.5763050000000  0.5722300000000  0.4612840000000 1.0
C      1  0.5376760000000  0.5091910000000  0.4236520000000 1.0
C      1  0.5554910000000  0.5011060000000  0.5436470000000 1.0
C      1  0.5202730000000  0.5970850000000  0.5434400000000 1.0
C      1  0.4630690000000  0.5410900000000  0.5692110000000 1.0
C      1  0.4180580000000  0.5598420000000  0.5121940000000 1.0
C      1  0.4401220000000  0.5347990000000  0.4837190000000 1.0
C      1  0.4973680000000  0.5245020000000  0.5060170000000 1.0
C      1  0.5282040000000  0.4911850000000  0.5707910000000 1.0
C      1  0.5140930000000  0.5937450000000  0.4781410000000 1.0
C      1  0.5197740000000  0.5435900000000  0.5231260000000 1.0
C      1  0.4052930000000  0.5642080000000  0.4628820000000 1.0
C      1  0.4361450000000  0.5067960000000  0.5026330000000 1.0
C      1  0.4839790000000  0.5243340000000  0.4578310000000 1.0
C      1  0.4493160000000  0.5927760000000  0.4829020000000 1.0
C      1  0.4668910000000  0.6096850000000  0.5281080000000 1.0
C      1  0.4634580000000  0.5893690000000  0.4219690000000 1.0
C      1  0.5655450000000  0.4119940000000  0.5663380000000 1.0
C      1  0.5401100000000  0.4386590000000  0.4462320000000 1.0
C      1  0.4660130000000  0.4764710000000  0.5466450000000 1.0
C      1  0.4905040000000  0.5878750000000  0.4343890000000 1.0
C      1  0.5066200000000  0.4313800000000  0.5014770000000 1.0
C      1  0.5416460000000  0.4964800000000  0.6011760000000 1.0
C      1  0.4153490000000  0.4905520000000  0.4597680000000 1.0
C      1  0.4790200000000  0.3914900000000  0.5334830000000 1.0
C      1  0.4763580000000  0.4011620000000  0.4772880000000 1.0
C      1  0.4884720000000  0.5067760000000  0.5327890000000 1.0
C      1  0.5752920000000  0.4166370000000  0.5399460000000 1.0
C      1  0.5048690000000  0.5658690000000  0.4937620000000 1.0
C      1  0.4078270000000  0.4478240000000  0.5594340000000 1.0
C      1  0.5004290000000  0.5789910000000  0.6110400000000 1.0
C      1  0.4952590000000  0.5799410000000  0.5565600000000 1.0
C      1  0.4475330000000  0.5378370000000  0.5278910000000 1.0
C      1  0.4251400000000  0.4466230000000  0.5301640000000 1.0
C      1  0.5516700000000  0.5876810000000  0.5477210000000 1.0
C      1  0.5646790000000  0.6118380000000  0.5039470000000 1.0
C      1  0.5256200000000  0.4017410000000  0.4757800000000 1.0
C      1  0.4225370000000  0.4871720000000  0.4080890000000 1.0
C      1  0.4291690000000  0.5385880000000  0.5710150000000 1.0
C      1  0.5854260000000  0.5553980000000  0.5471200000000 1.0
C      1  0.4230950000000  0.4319820000000  0.4823730000000 1.0
C      1  0.3966700000000  0.5386910000000  0.4576210000000 1.0
C      1  0.3983080000000  0.5030380000000  0.5382330000000 1.0
C      1  0.4306630000000  0.4633830000000  0.4703480000000 1.0
C      1  0.5034250000000  0.4790960000000  0.4282380000000 1.0
C      1  0.5654210000000  0.5402140000000  0.4542760000000 1.0
C      1  0.5409090000000  0.6090520000000  0.4885350000000 1.0
C      1  0.5146430000000  0.5320090000000  0.4336420000000 1.0
C      1  0.4955450000000  0.4330980000000  0.5495990000000 1.0
C      1  0.4157220000000  0.4796340000000  0.5503180000000 1.0
C      1  0.4896830000000  0.4649250000000  0.3780910000000 1.0
C      1  0.5346770000000  0.3974580000000  0.5229180000000 1.0
C      1  0.4757290000000  0.4952480000000  0.4714590000000 1.0
C      1  0.3979550000000  0.4564310000000  0.4485390000000 1.0
C      1  0.4430910000000  0.5121820000000  0.5881380000000 1.0
C      1  0.4940940000000  0.6173410000000  0.5364620000000 1.0
C      1  0.5215060000000  0.4325340000000  0.5922510000000 1.0
C      1  0.4718540000000  0.5645670000000  0.4609260000000 1.0
C      1  0.5448890000000  0.5538250000000  0.4775420000000 1.0
C      1  0.4757300000000  0.6021130000000  0.4845390000000 1.0
C      1  0.4260560000000  0.4423350000000  0.4438970000000 1.0
C      1  0.5308600000000  0.4856200000000  0.4000650000000 1.0
C      1  0.5585360000000  0.4811750000000  0.5194220000000 1.0
C      1  0.4782150000000  0.5301570000000  0.5937070000000 1.0
C      1  0.5726210000000  0.5098130000000  0.5621450000000 1.0
C      1  0.4287770000000  0.5436430000000  0.4102970000000 1.0
C      1  0.4394620000000  0.5681520000000  0.5323140000000 1.0
C      1  0.4739660000000  0.5628050000000  0.4915870000000 1.0
C      1  0.4645480000000  0.4791460000000  0.4371120000000 1.0
C      1  0.3852780000000  0.4910940000000  0.5121070000000 1.0
C      1  0.5482980000000  0.4185860000000  0.4707250000000 1.0
C      1  0.4496410000000  0.4702080000000  0.4939100000000 1.0
C      1  0.5971820000000  0.5146600000000  0.4444110000000 1.0
C      1  0.5204070000000  0.5406790000000  0.5792060000000 1.0
C      1  0.4828360000000  0.5110270000000  0.3950060000000 1.0
C      1  0.5247090000000  0.5368280000000  0.3846770000000 1.0
C      1  0.5381270000000  0.4637580000000  0.4768680000000 1.0
C      1  0.5856790000000  0.5313920000000  0.5295540000000 1.0
C      1  0.4460660000000  0.4449400000000  0.4178130000000 1.0
C      1  0.5668370000000  0.4183870000000  0.4917930000000 1.0
C      1  0.4454530000000  0.4704930000000  0.4033090000000 1.0
C      1  0.5616840000000  0.5347760000000  0.5084290000000 1.0
C      1  0.6088430000000  0.5166850000000  0.5270940000000 1.0
C      1  0.5231330000000  0.4171980000000  0.5457540000000 1.0
C      1  0.4943840000000  0.4682240000000  0.5095740000000 1.0
C      1  0.4970450000000  0.4516280000000  0.5782930000000 1.0
C      1  0.4502550000000  0.5730740000000  0.4428500000000 1.0
C      1  0.4754680000000  0.4359360000000  0.4311240000000 1.0
C      1  0.5886990000000  0.5479650000000  0.4932800000000 1.0
C      1  0.5133850000000  0.4257850000000  0.4384450000000 1.0
C      1  0.4045710000000  0.4811670000000  0.4303370000000 1.0
C      1  0.5627960000000  0.4822500000000  0.4086690000000 1.0
C      1  0.5081160000000  0.5029780000000  0.4493010000000 1.0
C      1  0.5393750000000  0.4178570000000  0.5711180000000 1.0
C      1  0.3846370000000  0.4675070000000  0.4969510000000 1.0
C      1  0.5515090000000  0.4662290000000  0.5770990000000 1.0
C      1  0.3952630000000  0.5168260000000  0.5008280000000 1.0
C      1  0.4457790000000  0.4972990000000  0.4555330000000 1.0
C      1  0.4638990000000  0.5805200000000  0.5180640000000 1.0
C      1  0.5454220000000  0.4502960000000  0.5473870000000 1.0
C      1  0.4020380000000  0.5337450000000  0.5526030000000 1.0
C      1  0.5121140000000  0.4583310000000  0.3956600000000 1.0
C      1  0.5268020000000  0.4653210000000  0.6008090000000 1.0
C      1  0.5975260000000  0.5452870000000  0.4601380000000 1.0
C      1  0.5822140000000  0.4847360000000  0.4368970000000 1.0
C      1  0.4673100000000  0.5883960000000  0.5638260000000 1.0
C      1  0.4993530000000  0.5472540000000  0.6121090000000 1.0
C      1  0.4261910000000  0.4772670000000  0.5177310000000 1.0
C      1  0.5799020000000  0.4382070000000  0.4440510000000 1.0
C      1  0.5618240000000  0.5195520000000  0.5862610000000 1.0
C      1  0.4942310000000  0.4759640000000  0.6019610000000 1.0
C      1  0.5174650000000  0.3921360000000  0.5014140000000 1.0
C      1  0.5385950000000  0.5212560000000  0.4769630000000 1.0
C      1  0.4443250000000  0.5279600000000  0.4545850000000 1.0
C      1  0.5591320000000  0.4530010000000  0.4225940000000 1.0
C      1  0.4565250000000  0.5278820000000  0.4006160000000 1.0
C      1  0.4331930000000  0.4257950000000  0.5110860000000 1.0
C      1  0.5219860000000  0.5219690000000  0.6077800000000 1.0
C      1  0.5208990000000  0.5590040000000  0.4048700000000 1.0
C      1  0.4918410000000  0.5625850000000  0.5272870000000 1.0
C      1  0.5185010000000  0.4888750000000  0.4741530000000 1.0
C      1  0.4298160000000  0.5133170000000  0.5339990000000 1.0
C      1  0.4466090000000  0.4503870000000  0.5526600000000 1.0
C      1  0.4605590000000  0.4770130000000  0.5807300000000 1.0
C      1  0.4326510000000  0.5515480000000  0.4367280000000 1.0
C      1  0.4018690000000  0.5383890000000  0.5202160000000 1.0
C      1  0.5757870000000  0.4469170000000  0.5320400000000 1.0
C      1  0.5796320000000  0.4718910000000  0.5722230000000 1.0
C      1  0.5228550000000  0.5075570000000  0.5347220000000 1.0
C      1  0.5006440000000  0.6027480000000  0.5080210000000 1.0
C      1  0.5758040000000  0.4929820000000  0.4752710000000 1.0
C      1  0.4653510000000  0.4947950000000  0.6073270000000 1.0
C      1  0.4686450000000  0.5350020000000  0.4318310000000 1.0
C      1  0.4006350000000  0.5148980000000  0.4725140000000 1.0
C      1  0.5087730000000  0.5367560000000  0.4766230000000 1.0
C      1  0.4767060000000  0.5353150000000  0.5410250000000 1.0
C      1  0.5786220000000  0.4457320000000  0.4997780000000 1.0
C      1  0.4218100000000  0.4908590000000  0.5804270000000 1.0
C      1  0.5492870000000  0.4990140000000  0.4540530000000 1.0
C      1  0.3941630000000  0.4493380000000  0.4773540000000 1.0
C      1  0.5621590000000  0.4037480000000  0.5170230000000 1.0
C      1  0.5959900000000  0.4182770000000  0.4466110000000 1.0
C      1  0.5452030000000  0.5742590000000  0.4501210000000 1.0
C      1  0.4792020000000  0.5047350000000  0.5714950000000 1.0
C      1  0.5937010000000  0.5155000000000  0.4860350000000 1.0
C      1  0.5770270000000  0.5119030000000  0.4171590000000 1.0
C      1  0.4663240000000  0.5348650000000  0.5024200000000 1.0
C      1  0.4630300000000  0.4919060000000  0.5164630000000 1.0
C      1  0.5504760000000  0.5451980000000  0.5802030000000 1.0
C      1  0.5314490000000  0.5883500000000  0.5133800000000 1.0
C      1  0.5675710000000  0.4642070000000  0.4597780000000 1.0
C      1  0.4451570000000  0.5678810000000  0.5630920000000 1.0
C      1  0.4945050000000  0.5076480000000  0.6129880000000 1.0
C      1  0.4923510000000  0.4636810000000  0.5382880000000 1.0
C      1  0.5025360000000  0.4407210000000  0.4160710000000 1.0
C      1  0.4309260000000  0.4599260000000  0.5815800000000 1.0
C      1  0.4750180000000  0.4526700000000  0.4894720000000 1.0
C      1  0.4262350000000  0.5137700000000  0.4003050000000 1.0
C      1  0.5432900000000  0.5090090000000  0.5070440000000 1.0
C      1  0.4492450000000  0.5055010000000  0.5553250000000 1.0
C      1  0.5405860000000  0.5611280000000  0.4248790000000 1.0
C      1  0.5570530000000  0.5348640000000  0.4255960000000 1.0
C      1  0.4928510000000  0.6041020000000  0.4577600000000 1.0
C      1  0.5144710000000  0.5118980000000  0.3889890000000 1.0
C      1  0.5695540000000  0.5930240000000  0.5245630000000 1.0
C      1  0.4894130000000  0.4683490000000  0.4560130000000 1.0
C      1  0.6174840000000  0.4756150000000  0.5030110000000 1.0
C      1  0.5413670000000  0.5605410000000  0.5087390000000 1.0
C      1  0.5948150000000  0.4674790000000  0.4877950000000 1.0
C      1  0.5069570000000  0.4507920000000  0.4754040000000 1.0
C      1  0.4719670000000  0.4183450000000  0.5929250000000 1.0
C      1  0.4577540000000  0.4126110000000  0.5171590000000 1.0
C      1  0.4890000000000  0.3913720000000  0.5042430000000 1.0
C      1  0.4842460000000  0.4284220000000  0.5196200000000 1.0
C      1  0.5179460000000  0.4655130000000  0.5561440000000 1.0
END
