TITL C-2778426-5645-1175 -0.00281627364333593 125000 -274.707717291583 0 0 47 (C1) n - 1
REM
REM in /home/nfs/bkarasulu/CARBON/AIRSS/Generating-Clusters/REBO/Only-C1/SD-CG/HFTN-CG
REM
REM
REM
REM
REM
REM ./C.cell (11c1c37f851c82e70ff6c80c92926a4b)
REM
REM compiler GCC version 9.2.1 20190827 (Red Hat 9.2.1-1)
REM options -cpp -mtune=generic -march=x86-64 -g -O0 -fpre-include=/usr/include/finclude/math-vector-fortran.h
REM seed -80827747 -149258850 2060981790 311702945 -1178497917 1303327307 712385500 745929592 -1453434818 -590356842 -759066583 -714049486 -895165233 1929736406 953128999 179882081 1599029073 418521559 36416516 278014688 1881235168 -1336808348 1488172366 842832440 1203350937 -98340095 -881459000 -971838579 -784808075 -1532189161 1008081519 2099938805 666179749
REM
CELL 1.54180   50.00000   50.00000   50.00000   90.00000   90.00000   90.00000
LATT -1
SFAC C  
C      1  0.5273470000000  0.5951100000000  0.5703200000000 1.0
C      1  0.5073570000000  0.5023180000000  0.5168890000000 1.0
C      1  0.5110970000000  0.4363380000000  0.5183860000000 1.0
C      1  0.4867250000000  0.4898120000000  0.4430400000000 1.0
C      1  0.5115770000000  0.4159540000000  0.5003540000000 1.0
C      1  0.5131820000000  0.5229990000000  0.4634690000000 1.0
C      1  0.4388650000000  0.5301440000000  0.4543810000000 1.0
C      1  0.5447340000000  0.5596310000000  0.5334150000000 1.0
C      1  0.4033470000000  0.4624920000000  0.4455210000000 1.0
C      1  0.4374990000000  0.5265250000000  0.5057750000000 1.0
C      1  0.4660890000000  0.5109490000000  0.4552320000000 1.0
C      1  0.5545920000000  0.5026090000000  0.4721650000000 1.0
C      1  0.4501370000000  0.4538430000000  0.4552160000000 1.0
C      1  0.4842590000000  0.5133240000000  0.5032320000000 1.0
C      1  0.5343810000000  0.4816360000000  0.5634820000000 1.0
C      1  0.5452310000000  0.5316550000000  0.5382430000000 1.0
C      1  0.5048020000000  0.4853260000000  0.5573740000000 1.0
C      1  0.5491190000000  0.4691380000000  0.5415120000000 1.0
C      1  0.5231270000000  0.4828940000000  0.5020910000000 1.0
C      1  0.4352760000000  0.4978790000000  0.4522950000000 1.0
C      1  0.5350510000000  0.4475360000000  0.5290910000000 1.0
C      1  0.4294520000000  0.5418900000000  0.4840670000000 1.0
C      1  0.4509030000000  0.4790860000000  0.5133800000000 1.0
C      1  0.4876750000000  0.4658460000000  0.5485690000000 1.0
C      1  0.5697540000000  0.5163710000000  0.5657210000000 1.0
C      1  0.5508310000000  0.5670180000000  0.5069100000000 1.0
C      1  0.5515340000000  0.4893220000000  0.4980640000000 1.0
C      1  0.4155910000000  0.5688480000000  0.4758520000000 1.0
C      1  0.5404530000000  0.5292610000000  0.4721060000000 1.0
C      1  0.5196040000000  0.5136770000000  0.5451050000000 1.0
C      1  0.5357750000000  0.5779120000000  0.5524310000000 1.0
C      1  0.5643000000000  0.4879430000000  0.5239540000000 1.0
C      1  0.4284690000000  0.4716300000000  0.4503080000000 1.0
C      1  0.4863080000000  0.4491420000000  0.5258650000000 1.0
C      1  0.4642290000000  0.4544090000000  0.5082590000000 1.0
C      1  0.4872100000000  0.5220520000000  0.4759700000000 1.0
C      1  0.5488600000000  0.5529600000000  0.4839050000000 1.0
C      1  0.4956850000000  0.4482760000000  0.4705130000000 1.0
C      1  0.4664310000000  0.4454360000000  0.4809870000000 1.0
C      1  0.5137650000000  0.4612140000000  0.4871760000000 1.0
C      1  0.4798060000000  0.4625320000000  0.4476460000000 1.0
C      1  0.5425350000000  0.5096080000000  0.5714810000000 1.0
C      1  0.5710010000000  0.5140720000000  0.5354250000000 1.0
C      1  0.5410130000000  0.4887350000000  0.4493470000000 1.0
C      1  0.5138150000000  0.4990410000000  0.4457560000000 1.0
C      1  0.4242200000000  0.5588350000000  0.4485730000000 1.0
C      1  0.4569880000000  0.5067720000000  0.5111470000000 1.0
END
