TITL C-2778428-5639-555 -0.00140064989484279 125000 -664.295379176547 0 0 116 (C1) n - 1
REM
REM in /home/nfs/bkarasulu/CARBON/AIRSS/Generating-Clusters/REBO/Only-C1/SD-CG/HFTN-CG
REM
REM
REM
REM
REM
REM ./C.cell (11c1c37f851c82e70ff6c80c92926a4b)
REM
REM compiler GCC version 9.2.1 20190827 (Red Hat 9.2.1-1)
REM options -cpp -mtune=generic -march=x86-64 -g -O0 -fpre-include=/usr/include/finclude/math-vector-fortran.h
REM seed 577882135 198221721 -1900850304 -620625617 -1888597368 -1777842423 -1190542499 657175848 -1892833755 -395731794 1303661911 1652607135 -1551328872 313349137 -2123298848 1593928458 741622506 849184859 1445719657 -735742784 1763027516 327200965 -1161846053 1057320531 470285883 2090029105 56035586 -594528624 690228872 -234684230 -1022365815 -7774573 592125589
REM
CELL 1.54180   50.00000   50.00000   50.00000   90.00000   90.00000   90.00000
LATT -1
SFAC C  
C      1  0.5550750000000  0.5468840000000  0.5223990000000 1.0
C      1  0.5148010000000  0.4527750000000  0.4249370000000 1.0
C      1  0.5404200000000  0.5447670000000  0.4214050000000 1.0
C      1  0.5146210000000  0.5215130000000  0.4016090000000 1.0
C      1  0.4503120000000  0.4276640000000  0.4966930000000 1.0
C      1  0.4653010000000  0.4282200000000  0.5272270000000 1.0
C      1  0.4105940000000  0.5280560000000  0.4684750000000 1.0
C      1  0.5854360000000  0.5215620000000  0.5194440000000 1.0
C      1  0.4260960000000  0.5008190000000  0.5268720000000 1.0
C      1  0.5337860000000  0.5704610000000  0.4402860000000 1.0
C      1  0.4374750000000  0.4774290000000  0.4375160000000 1.0
C      1  0.5172240000000  0.4361460000000  0.5398260000000 1.0
C      1  0.5583480000000  0.5297630000000  0.5704920000000 1.0
C      1  0.4689370000000  0.5776950000000  0.5279650000000 1.0
C      1  0.5286410000000  0.5408850000000  0.5140600000000 1.0
C      1  0.5067070000000  0.5497040000000  0.4197660000000 1.0
C      1  0.5264340000000  0.4935950000000  0.5339780000000 1.0
C      1  0.4313700000000  0.5546870000000  0.4607290000000 1.0
C      1  0.4998020000000  0.5429390000000  0.4613020000000 1.0
C      1  0.4411310000000  0.5073890000000  0.4315020000000 1.0
C      1  0.5431790000000  0.4191470000000  0.4677280000000 1.0
C      1  0.5038670000000  0.4165410000000  0.4682590000000 1.0
C      1  0.5623550000000  0.5469980000000  0.4745500000000 1.0
C      1  0.4637100000000  0.5609800000000  0.5012910000000 1.0
C      1  0.4417100000000  0.4687770000000  0.5694720000000 1.0
C      1  0.4662400000000  0.5475450000000  0.4436730000000 1.0
C      1  0.5299680000000  0.5832990000000  0.4853590000000 1.0
C      1  0.5200430000000  0.4063000000000  0.5139080000000 1.0
C      1  0.4425210000000  0.5000240000000  0.5563770000000 1.0
C      1  0.4700110000000  0.5201120000000  0.5583530000000 1.0
C      1  0.5136050000000  0.5612480000000  0.5656820000000 1.0
C      1  0.5883710000000  0.4928480000000  0.5014450000000 1.0
C      1  0.4132690000000  0.4570800000000  0.5110080000000 1.0
C      1  0.4933540000000  0.5220690000000  0.4348520000000 1.0
C      1  0.5165720000000  0.4853070000000  0.5923120000000 1.0
C      1  0.4633210000000  0.4951740000000  0.5134880000000 1.0
C      1  0.4895300000000  0.5064440000000  0.5903860000000 1.0
C      1  0.5797690000000  0.4735280000000  0.5287630000000 1.0
C      1  0.4985270000000  0.5953920000000  0.4863160000000 1.0
C      1  0.5612520000000  0.4637810000000  0.4499160000000 1.0
C      1  0.5531110000000  0.4328690000000  0.4897460000000 1.0
C      1  0.5607710000000  0.4580740000000  0.4804400000000 1.0
C      1  0.4414240000000  0.5415540000000  0.4899260000000 1.0
C      1  0.4919710000000  0.4193350000000  0.5281450000000 1.0
C      1  0.5451900000000  0.5691720000000  0.4662630000000 1.0
C      1  0.4614640000000  0.4894470000000  0.4151360000000 1.0
C      1  0.5224690000000  0.4644660000000  0.5228160000000 1.0
C      1  0.4914800000000  0.5979040000000  0.5178900000000 1.0
C      1  0.4774760000000  0.4808820000000  0.5566010000000 1.0
C      1  0.4538460000000  0.4322250000000  0.4636460000000 1.0
C      1  0.5699790000000  0.5376490000000  0.5461730000000 1.0
C      1  0.5324400000000  0.5006200000000  0.4600980000000 1.0
C      1  0.4934320000000  0.5362380000000  0.5292470000000 1.0
C      1  0.4919930000000  0.4699500000000  0.4437220000000 1.0
C      1  0.5147620000000  0.5667950000000  0.5090510000000 1.0
C      1  0.5170870000000  0.4980840000000  0.4320000000000 1.0
C      1  0.5785180000000  0.4959690000000  0.5493290000000 1.0
C      1  0.4691620000000  0.4682500000000  0.5286140000000 1.0
C      1  0.4953730000000  0.3980220000000  0.4918650000000 1.0
C      1  0.5441840000000  0.5129710000000  0.4175860000000 1.0
C      1  0.4798710000000  0.4548760000000  0.5755890000000 1.0
C      1  0.5653190000000  0.5015440000000  0.5746990000000 1.0
C      1  0.4889700000000  0.4663800000000  0.4831650000000 1.0
C      1  0.4591990000000  0.5740700000000  0.4544080000000 1.0
C      1  0.5560210000000  0.5055540000000  0.5269960000000 1.0
C      1  0.4464730000000  0.5682160000000  0.5484040000000 1.0
C      1  0.5331650000000  0.5385750000000  0.5801580000000 1.0
C      1  0.5440230000000  0.4303630000000  0.5192060000000 1.0
C      1  0.4492540000000  0.5230170000000  0.5243930000000 1.0
C      1  0.5406170000000  0.5059520000000  0.4987170000000 1.0
C      1  0.4218140000000  0.4750310000000  0.4622150000000 1.0
C      1  0.4081320000000  0.5481530000000  0.4924080000000 1.0
C      1  0.5571650000000  0.5166330000000  0.4725180000000 1.0
C      1  0.5202550000000  0.5188360000000  0.5960230000000 1.0
C      1  0.5067120000000  0.4554490000000  0.5850620000000 1.0
C      1  0.5475660000000  0.4806960000000  0.5814990000000 1.0
C      1  0.5367660000000  0.4415360000000  0.4470710000000 1.0
C      1  0.4512300000000  0.5093760000000  0.4848020000000 1.0
C      1  0.4567670000000  0.4471950000000  0.5515800000000 1.0
C      1  0.5111150000000  0.4340690000000  0.4963690000000 1.0
C      1  0.5652250000000  0.4953560000000  0.4381270000000 1.0
C      1  0.4765330000000  0.5317840000000  0.5059940000000 1.0
C      1  0.4476740000000  0.5243860000000  0.4544970000000 1.0
C      1  0.4340440000000  0.4562450000000  0.4879040000000 1.0
C      1  0.5282820000000  0.5323920000000  0.4506650000000 1.0
C      1  0.4119690000000  0.4998830000000  0.4757780000000 1.0
C      1  0.5223350000000  0.4635500000000  0.4900340000000 1.0
C      1  0.4845070000000  0.5561640000000  0.5492190000000 1.0
C      1  0.4949280000000  0.4974630000000  0.5197850000000 1.0
C      1  0.4909860000000  0.4561940000000  0.5131650000000 1.0
C      1  0.5251730000000  0.4421610000000  0.5681180000000 1.0
C      1  0.5040630000000  0.5779590000000  0.4379980000000 1.0
C      1  0.3962120000000  0.4577570000000  0.5299790000000 1.0
C      1  0.5497760000000  0.4566930000000  0.5650900000000 1.0
C      1  0.4991990000000  0.5038300000000  0.5516760000000 1.0
C      1  0.5618610000000  0.4523960000000  0.5380180000000 1.0
C      1  0.4983330000000  0.4307170000000  0.4449240000000 1.0
C      1  0.4844270000000  0.5885020000000  0.4561400000000 1.0
C      1  0.4829150000000  0.4943280000000  0.4656360000000 1.0
C      1  0.4918340000000  0.5623260000000  0.4852780000000 1.0
C      1  0.4457170000000  0.5407560000000  0.5501310000000 1.0
C      1  0.4860380000000  0.5038310000000  0.4084780000000 1.0
C      1  0.4118240000000  0.4965070000000  0.5046350000000 1.0
C      1  0.5125950000000  0.5151950000000  0.5013520000000 1.0
C      1  0.5752240000000  0.5479510000000  0.5000730000000 1.0
C      1  0.4712830000000  0.4436990000000  0.4469870000000 1.0
C      1  0.5407500000000  0.4744070000000  0.4250250000000 1.0
C      1  0.4900750000000  0.5194800000000  0.4798390000000 1.0
C      1  0.4689180000000  0.4001690000000  0.4990520000000 1.0
C      1  0.5221470000000  0.4700600000000  0.4599650000000 1.0
C      1  0.4576070000000  0.4763760000000  0.4791960000000 1.0
C      1  0.4616080000000  0.4917940000000  0.5846630000000 1.0
C      1  0.5128460000000  0.5815370000000  0.5382850000000 1.0
C      1  0.5822850000000  0.4977190000000  0.4679340000000 1.0
C      1  0.4910280000000  0.5380040000000  0.5772930000000 1.0
C      1  0.5595290000000  0.4808850000000  0.4958700000000 1.0
END
