TITL C-2778431-5191-1198 -0.0035564150577086 125000 -475.156712817171 0 0 83 (C1) n - 1
REM
REM in /home/nfs/bkarasulu/CARBON/AIRSS/Generating-Clusters/REBO/Only-C1/SD-CG/HFTN-CG
REM
REM
REM
REM
REM
REM ./C.cell (11c1c37f851c82e70ff6c80c92926a4b)
REM
REM compiler GCC version 9.2.1 20190827 (Red Hat 9.2.1-1)
REM options -cpp -mtune=generic -march=x86-64 -g -O0 -fpre-include=/usr/include/finclude/math-vector-fortran.h
REM seed -1530425553 1770391546 1330900388 -1222818665 -2105880511 1946496786 -780827472 722739022 -576025993 1759506866 2031060777 -389233498 -242875434 -1913817904 457685189 1018576843 -1637176850 -1708858187 1395922600 113659600 1307290654 -2121629479 -1702641619 -1020157386 -869277072 -1976395028 -2015683378 785454453 1713813496 1241588905 318900213 1185874127 -1814473940
REM
CELL 1.54180   50.00000   50.00000   50.00000   90.00000   90.00000   90.00000
LATT -1
SFAC C  
C      1  0.5318450000000  0.5291800000000  0.4856420000000 1.0
C      1  0.4604610000000  0.5631050000000  0.4618420000000 1.0
C      1  0.4815990000000  0.5082780000000  0.4766670000000 1.0
C      1  0.5110550000000  0.5139280000000  0.5890760000000 1.0
C      1  0.4474800000000  0.5478210000000  0.5047900000000 1.0
C      1  0.5510230000000  0.5574940000000  0.4649690000000 1.0
C      1  0.5136910000000  0.4720580000000  0.4847180000000 1.0
C      1  0.5681090000000  0.4680300000000  0.5234640000000 1.0
C      1  0.5175790000000  0.4114440000000  0.4911110000000 1.0
C      1  0.4637910000000  0.5296330000000  0.5773970000000 1.0
C      1  0.5108530000000  0.4789490000000  0.4454190000000 1.0
C      1  0.5167540000000  0.4431040000000  0.5463700000000 1.0
C      1  0.4894860000000  0.4088760000000  0.4998910000000 1.0
C      1  0.5535690000000  0.5719930000000  0.4887850000000 1.0
C      1  0.5497490000000  0.5149920000000  0.4381940000000 1.0
C      1  0.5225570000000  0.4213510000000  0.4640770000000 1.0
C      1  0.5751470000000  0.5286470000000  0.5145760000000 1.0
C      1  0.4715680000000  0.4838300000000  0.4927680000000 1.0
C      1  0.4519270000000  0.5133760000000  0.4670300000000 1.0
C      1  0.4888700000000  0.5763060000000  0.4739280000000 1.0
C      1  0.4484020000000  0.4700890000000  0.5288660000000 1.0
C      1  0.4552120000000  0.4817250000000  0.5562910000000 1.0
C      1  0.4891600000000  0.5257710000000  0.4306490000000 1.0
C      1  0.4887760000000  0.5475600000000  0.4551750000000 1.0
C      1  0.4806090000000  0.5019100000000  0.4202100000000 1.0
C      1  0.5545240000000  0.4898040000000  0.4298150000000 1.0
C      1  0.5333670000000  0.4287810000000  0.5128740000000 1.0
C      1  0.4663050000000  0.5197380000000  0.5261050000000 1.0
C      1  0.4465720000000  0.4967650000000  0.4396400000000 1.0
C      1  0.4509270000000  0.5120380000000  0.5554750000000 1.0
C      1  0.4736000000000  0.4668110000000  0.5708710000000 1.0
C      1  0.4847760000000  0.4430810000000  0.5584570000000 1.0
C      1  0.5082460000000  0.5046190000000  0.4585850000000 1.0
C      1  0.4363110000000  0.5338960000000  0.5338070000000 1.0
C      1  0.5347030000000  0.5287120000000  0.5406140000000 1.0
C      1  0.4711840000000  0.5546400000000  0.5648250000000 1.0
C      1  0.5469420000000  0.4375530000000  0.4666480000000 1.0
C      1  0.5321480000000  0.5150550000000  0.5716670000000 1.0
C      1  0.5206870000000  0.5292710000000  0.4397250000000 1.0
C      1  0.4414360000000  0.5439170000000  0.4759800000000 1.0
C      1  0.4937050000000  0.4569300000000  0.4740310000000 1.0
C      1  0.4271940000000  0.4944890000000  0.4818590000000 1.0
C      1  0.4811240000000  0.5454620000000  0.5088300000000 1.0
C      1  0.5840960000000  0.5201980000000  0.4744000000000 1.0
C      1  0.5592300000000  0.5279120000000  0.4647280000000 1.0
C      1  0.4487460000000  0.4331520000000  0.4916710000000 1.0
C      1  0.4663620000000  0.4355450000000  0.5378370000000 1.0
C      1  0.5007600000000  0.5875060000000  0.5204460000000 1.0
C      1  0.5552120000000  0.5114040000000  0.5006210000000 1.0
C      1  0.4967990000000  0.5505110000000  0.5507370000000 1.0
C      1  0.5553950000000  0.5069780000000  0.5517940000000 1.0
C      1  0.5493570000000  0.4444110000000  0.5371530000000 1.0
C      1  0.4843570000000  0.5179190000000  0.5929990000000 1.0
C      1  0.4696710000000  0.4510040000000  0.4430950000000 1.0
C      1  0.4765940000000  0.4584650000000  0.5132340000000 1.0
C      1  0.4954220000000  0.5226630000000  0.5381790000000 1.0
C      1  0.5138990000000  0.5693300000000  0.5379940000000 1.0
C      1  0.5054440000000  0.4923820000000  0.5418090000000 1.0
C      1  0.5061520000000  0.5888840000000  0.4924730000000 1.0
C      1  0.5612830000000  0.5572150000000  0.5135150000000 1.0
C      1  0.5003200000000  0.4360530000000  0.5173090000000 1.0
C      1  0.4988500000000  0.5354390000000  0.4845830000000 1.0
C      1  0.4611320000000  0.4560800000000  0.4760640000000 1.0
C      1  0.4145270000000  0.5243940000000  0.4737000000000 1.0
C      1  0.5399670000000  0.5575740000000  0.5333630000000 1.0
C      1  0.4635820000000  0.4089600000000  0.4893270000000 1.0
C      1  0.4612160000000  0.5582820000000  0.5342070000000 1.0
C      1  0.5289990000000  0.5583630000000  0.4479250000000 1.0
C      1  0.5147410000000  0.4856070000000  0.5118700000000 1.0
C      1  0.5114990000000  0.4725180000000  0.5595270000000 1.0
C      1  0.5756120000000  0.4999200000000  0.5329990000000 1.0
C      1  0.4246280000000  0.4680780000000  0.4650420000000 1.0
C      1  0.5360340000000  0.4703320000000  0.4357250000000 1.0
C      1  0.4315910000000  0.4892630000000  0.5115990000000 1.0
C      1  0.5400000000000  0.4665980000000  0.4757240000000 1.0
C      1  0.4866330000000  0.4751330000000  0.4300960000000 1.0
C      1  0.5462450000000  0.4868200000000  0.5095170000000 1.0
C      1  0.5562330000000  0.4484890000000  0.4982270000000 1.0
C      1  0.4421840000000  0.4391190000000  0.5185840000000 1.0
C      1  0.5342950000000  0.5931050000000  0.4888370000000 1.0
C      1  0.5185810000000  0.5182620000000  0.5146820000000 1.0
C      1  0.4422330000000  0.4693130000000  0.4434700000000 1.0
C      1  0.4990960000000  0.4358060000000  0.4532240000000 1.0
END
