TITL C-2778429-3646-1329 0.124431181492251 125000 -867.614032271821 0 0 152 (C1) n - 1
REM
REM in /home/nfs/bkarasulu/CARBON/AIRSS/Generating-Clusters/REBO/Only-C1/SD-CG/HFTN-CG
REM
REM
REM
REM
REM
REM ./C.cell (11c1c37f851c82e70ff6c80c92926a4b)
REM
REM compiler GCC version 9.2.1 20190827 (Red Hat 9.2.1-1)
REM options -cpp -mtune=generic -march=x86-64 -g -O0 -fpre-include=/usr/include/finclude/math-vector-fortran.h
REM seed 397927354 -673046054 -412228414 -1105687768 667516744 723003580 1353182179 445834222 1558625427 -1010374232 613861079 1654140690 1393879682 427380783 -1837871709 568170247 1788292825 1590675826 -1264205773 84662729 1663811686 -856706517 -1038109838 -1392771865 206361909 -1459050228 801383666 1834433992 447454724 -1082279205 1531385772 -1638964043 -1903319530
REM
CELL 1.54180   50.00000   50.00000   50.00000   90.00000   90.00000   90.00000
LATT -1
SFAC C  
C      1  0.5025540000000  0.5492630000000  0.4189930000000 1.0
C      1  0.4443410000000  0.5196080000000  0.4662240000000 1.0
C      1  0.5536890000000  0.5697500000000  0.4503230000000 1.0
C      1  0.4426700000000  0.4807530000000  0.5384330000000 1.0
C      1  0.4962970000000  0.4260440000000  0.4164540000000 1.0
C      1  0.5513890000000  0.4682980000000  0.4285940000000 1.0
C      1  0.6032140000000  0.5164080000000  0.4832070000000 1.0
C      1  0.5362860000000  0.4449310000000  0.5337370000000 1.0
C      1  0.4090790000000  0.4763820000000  0.5430100000000 1.0
C      1  0.4569890000000  0.5174450000000  0.4170920000000 1.0
C      1  0.4716290000000  0.4563280000000  0.5756390000000 1.0
C      1  0.4544910000000  0.5660050000000  0.4372400000000 1.0
C      1  0.4686750000000  0.5769670000000  0.5403520000000 1.0
C      1  0.5951450000000  0.5149500000000  0.5464880000000 1.0
C      1  0.5559880000000  0.4746420000000  0.4677030000000 1.0
C      1  0.4354000000000  0.5507230000000  0.4785840000000 1.0
C      1  0.4318250000000  0.5519150000000  0.4467660000000 1.0
C      1  0.5436850000000  0.4628910000000  0.5889660000000 1.0
C      1  0.4681460000000  0.4416700000000  0.4280200000000 1.0
C      1  0.4111560000000  0.4362080000000  0.5105100000000 1.0
C      1  0.4894710000000  0.5097070000000  0.6005420000000 1.0
C      1  0.4799120000000  0.4205400000000  0.4520100000000 1.0
C      1  0.4142880000000  0.4631030000000  0.4903940000000 1.0
C      1  0.4403320000000  0.4262340000000  0.4516320000000 1.0
C      1  0.4215820000000  0.5597980000000  0.5331300000000 1.0
C      1  0.5796870000000  0.4934710000000  0.5579350000000 1.0
C      1  0.5401800000000  0.5999800000000  0.4957510000000 1.0
C      1  0.4734430000000  0.4990470000000  0.4842310000000 1.0
C      1  0.5493880000000  0.5520150000000  0.4987570000000 1.0
C      1  0.4628740000000  0.4160190000000  0.5135660000000 1.0
C      1  0.4211520000000  0.4833380000000  0.4313430000000 1.0
C      1  0.4785500000000  0.5693900000000  0.4863080000000 1.0
C      1  0.5926060000000  0.4684230000000  0.5581550000000 1.0
C      1  0.4499940000000  0.5026590000000  0.5161150000000 1.0
C      1  0.4995030000000  0.5000040000000  0.4499810000000 1.0
C      1  0.5490180000000  0.5493730000000  0.4314780000000 1.0
C      1  0.5511780000000  0.4965470000000  0.5539390000000 1.0
C      1  0.4306800000000  0.5218570000000  0.4358690000000 1.0
C      1  0.4171970000000  0.4708090000000  0.4621020000000 1.0
C      1  0.4871660000000  0.5689800000000  0.5645590000000 1.0
C      1  0.5572900000000  0.5829280000000  0.4751120000000 1.0
C      1  0.4094460000000  0.5035750000000  0.4554480000000 1.0
C      1  0.5020560000000  0.4799330000000  0.5654690000000 1.0
C      1  0.4800100000000  0.4938490000000  0.5435010000000 1.0
C      1  0.4738310000000  0.5883250000000  0.5130890000000 1.0
C      1  0.4003620000000  0.4467820000000  0.5372470000000 1.0
C      1  0.5504290000000  0.5866680000000  0.5466870000000 1.0
C      1  0.5319480000000  0.5825070000000  0.5252650000000 1.0
C      1  0.5217670000000  0.4133520000000  0.5529260000000 1.0
C      1  0.5599870000000  0.5479060000000  0.5484650000000 1.0
C      1  0.5179940000000  0.5653120000000  0.5673310000000 1.0
C      1  0.5181130000000  0.5037500000000  0.5498240000000 1.0
C      1  0.5980080000000  0.4527990000000  0.5365710000000 1.0
C      1  0.5811970000000  0.4617850000000  0.4878700000000 1.0
C      1  0.5134560000000  0.4211120000000  0.4451590000000 1.0
C      1  0.4219200000000  0.4920200000000  0.5705060000000 1.0
C      1  0.5187660000000  0.4751260000000  0.3948620000000 1.0
C      1  0.5244970000000  0.5257470000000  0.4629650000000 1.0
C      1  0.5760520000000  0.4802800000000  0.4416290000000 1.0
C      1  0.5046880000000  0.5455070000000  0.5917260000000 1.0
C      1  0.4865000000000  0.4020230000000  0.5248670000000 1.0
C      1  0.5212670000000  0.4445520000000  0.4761670000000 1.0
C      1  0.5064280000000  0.5955800000000  0.4337850000000 1.0
C      1  0.5047760000000  0.4570450000000  0.4275690000000 1.0
C      1  0.4041110000000  0.5177970000000  0.4821730000000 1.0
C      1  0.5159710000000  0.4455560000000  0.3978670000000 1.0
C      1  0.5382510000000  0.5474160000000  0.5963300000000 1.0
C      1  0.5067280000000  0.5891730000000  0.5042490000000 1.0
C      1  0.4450430000000  0.5447710000000  0.5722760000000 1.0
C      1  0.4784440000000  0.4449140000000  0.5480300000000 1.0
C      1  0.5743140000000  0.4994040000000  0.5046500000000 1.0
C      1  0.5043530000000  0.4494940000000  0.5264270000000 1.0
C      1  0.5397060000000  0.4857830000000  0.4100300000000 1.0
C      1  0.3879040000000  0.4997190000000  0.5293420000000 1.0
C      1  0.4891370000000  0.5192730000000  0.4277560000000 1.0
C      1  0.4778440000000  0.4903180000000  0.5832610000000 1.0
C      1  0.5842600000000  0.5156080000000  0.4546940000000 1.0
C      1  0.5503770000000  0.4218030000000  0.4902580000000 1.0
C      1  0.5222190000000  0.5177490000000  0.6011610000000 1.0
C      1  0.4355810000000  0.4156320000000  0.4983760000000 1.0
C      1  0.5188690000000  0.5542530000000  0.4623200000000 1.0
C      1  0.4721010000000  0.5432920000000  0.5380470000000 1.0
C      1  0.5358200000000  0.4396630000000  0.5653950000000 1.0
C      1  0.4541470000000  0.4100420000000  0.4726750000000 1.0
C      1  0.4892550000000  0.4350350000000  0.5026370000000 1.0
C      1  0.5856580000000  0.5403270000000  0.5533700000000 1.0
C      1  0.5343230000000  0.4055590000000  0.5274710000000 1.0
C      1  0.4500690000000  0.4799440000000  0.5706300000000 1.0
C      1  0.4256100000000  0.5252410000000  0.5720470000000 1.0
C      1  0.4997900000000  0.5320270000000  0.5546570000000 1.0
C      1  0.5417340000000  0.5189000000000  0.4176180000000 1.0
C      1  0.5479290000000  0.5035910000000  0.5232910000000 1.0
C      1  0.4410750000000  0.5651400000000  0.5528230000000 1.0
C      1  0.4940490000000  0.4160910000000  0.5482840000000 1.0
C      1  0.4786090000000  0.5858470000000  0.4386340000000 1.0
C      1  0.5939920000000  0.4865350000000  0.4698670000000 1.0
C      1  0.5249490000000  0.5164460000000  0.4935890000000 1.0
C      1  0.5604490000000  0.4259030000000  0.5197230000000 1.0
C      1  0.5269330000000  0.4881670000000  0.4662580000000 1.0
C      1  0.5677990000000  0.5397910000000  0.4725870000000 1.0
C      1  0.5995960000000  0.5496760000000  0.4761660000000 1.0
C      1  0.4832750000000  0.4744060000000  0.5033100000000 1.0
C      1  0.5560770000000  0.5117000000000  0.4824380000000 1.0
C      1  0.5448350000000  0.6289890000000  0.4964620000000 1.0
C      1  0.5113890000000  0.5574970000000  0.5349030000000 1.0
C      1  0.4073230000000  0.4868640000000  0.5063130000000 1.0
C      1  0.4927830000000  0.4567770000000  0.4770590000000 1.0
C      1  0.4905140000000  0.4883060000000  0.3968990000000 1.0
C      1  0.4632090000000  0.5167740000000  0.5504580000000 1.0
C      1  0.5125250000000  0.5140800000000  0.4036000000000 1.0
C      1  0.3997280000000  0.5129320000000  0.5556880000000 1.0
C      1  0.5246360000000  0.4103410000000  0.4754520000000 1.0
C      1  0.5131870000000  0.4570980000000  0.5803410000000 1.0
C      1  0.4701130000000  0.4702390000000  0.4127950000000 1.0
C      1  0.4306690000000  0.5493440000000  0.5101720000000 1.0
C      1  0.5668620000000  0.4782310000000  0.6081210000000 1.0
C      1  0.5402610000000  0.4945780000000  0.6012090000000 1.0
C      1  0.4508340000000  0.4887130000000  0.4261200000000 1.0
C      1  0.5060790000000  0.4823430000000  0.5259390000000 1.0
C      1  0.5090150000000  0.5296030000000  0.5159990000000 1.0
C      1  0.6021920000000  0.5464850000000  0.5092350000000 1.0
C      1  0.4477570000000  0.5798460000000  0.4921430000000 1.0
C      1  0.3853810000000  0.4327020000000  0.5537280000000 1.0
C      1  0.5793610000000  0.5685590000000  0.4967060000000 1.0
C      1  0.5133180000000  0.5662230000000  0.4377980000000 1.0
C      1  0.5379450000000  0.4451210000000  0.4462610000000 1.0
C      1  0.5235760000000  0.5648720000000  0.4875480000000 1.0
C      1  0.5487680000000  0.5654040000000  0.5716840000000 1.0
C      1  0.4281680000000  0.5093470000000  0.5007350000000 1.0
C      1  0.4951650000000  0.5405280000000  0.3900810000000 1.0
C      1  0.5513830000000  0.5133810000000  0.4480540000000 1.0
C      1  0.4621180000000  0.4602080000000  0.5222590000000 1.0
C      1  0.4635400000000  0.5466590000000  0.5073280000000 1.0
C      1  0.4793690000000  0.5576050000000  0.4578670000000 1.0
C      1  0.4825230000000  0.5125030000000  0.5148090000000 1.0
C      1  0.3822500000000  0.5171660000000  0.5006640000000 1.0
C      1  0.5607520000000  0.4420890000000  0.4704990000000 1.0
C      1  0.4752130000000  0.5171870000000  0.3904140000000 1.0
C      1  0.5999070000000  0.5147300000000  0.5165690000000 1.0
C      1  0.5336410000000  0.4837820000000  0.4994740000000 1.0
C      1  0.4714200000000  0.5315300000000  0.4784600000000 1.0
C      1  0.4415010000000  0.4482540000000  0.5039650000000 1.0
C      1  0.5114280000000  0.3988060000000  0.5033950000000 1.0
C      1  0.4534140000000  0.4873900000000  0.4597320000000 1.0
C      1  0.4448120000000  0.4562570000000  0.4485140000000 1.0
C      1  0.5841990000000  0.4456850000000  0.5145950000000 1.0
C      1  0.4756550000000  0.5420240000000  0.5781480000000 1.0
C      1  0.5426660000000  0.5353520000000  0.5240080000000 1.0
C      1  0.5381240000000  0.4532180000000  0.5015390000000 1.0
C      1  0.4910950000000  0.4433240000000  0.5952780000000 1.0
C      1  0.4955880000000  0.4701840000000  0.4495370000000 1.0
C      1  0.4858250000000  0.4079460000000  0.4825520000000 1.0
END
