TITL C-2778436-5916-922 -0.00024869609576018 125000 -304.502059694711 0 0 52 (C1) n - 1
REM
REM in /home/nfs/bkarasulu/CARBON/AIRSS/Generating-Clusters/REBO/Only-C1/SD-CG/HFTN-CG
REM
REM
REM
REM
REM
REM ./C.cell (11c1c37f851c82e70ff6c80c92926a4b)
REM
REM compiler GCC version 9.2.1 20190827 (Red Hat 9.2.1-1)
REM options -cpp -mtune=generic -march=x86-64 -g -O0 -fpre-include=/usr/include/finclude/math-vector-fortran.h
REM seed -2095412200 -990969624 1637259221 -873554285 884933357 -2014708277 1273552744 1419783655 -214711182 138214484 1998091179 1948880591 849915744 -1885175466 -89698100 -1887931979 -1716652862 833240569 396031653 -1705251589 1938061195 660066483 -2046376940 2135669469 1291038009 -746902639 -1671561259 1883637732 -2062399339 2057715137 1427090755 -753697852 105263516
REM
CELL 1.54180   50.00000   50.00000   50.00000   90.00000   90.00000   90.00000
LATT -1
SFAC C  
C      1  0.5171340000000  0.5521700000000  0.5146940000000 1.0
C      1  0.4721400000000  0.4766470000000  0.4716990000000 1.0
C      1  0.4668520000000  0.5277980000000  0.4905980000000 1.0
C      1  0.4823460000000  0.4467070000000  0.4981270000000 1.0
C      1  0.5328460000000  0.4771990000000  0.5362520000000 1.0
C      1  0.5421870000000  0.4344960000000  0.5183030000000 1.0
C      1  0.4976400000000  0.4981770000000  0.5140010000000 1.0
C      1  0.4528100000000  0.5414440000000  0.5251510000000 1.0
C      1  0.4835410000000  0.5485920000000  0.5117320000000 1.0
C      1  0.5027820000000  0.4728030000000  0.4758270000000 1.0
C      1  0.5688100000000  0.4792810000000  0.5132090000000 1.0
C      1  0.5634430000000  0.4971890000000  0.4868370000000 1.0
C      1  0.4679850000000  0.4491310000000  0.5352620000000 1.0
C      1  0.5123370000000  0.4359250000000  0.5089100000000 1.0
C      1  0.4941110000000  0.4897260000000  0.5617670000000 1.0
C      1  0.4401110000000  0.5195160000000  0.5072730000000 1.0
C      1  0.5614170000000  0.4534480000000  0.5195110000000 1.0
C      1  0.5494390000000  0.5528790000000  0.4751780000000 1.0
C      1  0.5094880000000  0.4674320000000  0.5501240000000 1.0
C      1  0.4917380000000  0.5383020000000  0.5612690000000 1.0
C      1  0.5316110000000  0.4427660000000  0.4553040000000 1.0
C      1  0.4847450000000  0.5192310000000  0.5269250000000 1.0
C      1  0.5431760000000  0.5044380000000  0.4687810000000 1.0
C      1  0.5159680000000  0.4844970000000  0.4310670000000 1.0
C      1  0.5631040000000  0.5115540000000  0.5151090000000 1.0
C      1  0.4618200000000  0.4393530000000  0.4817740000000 1.0
C      1  0.4667310000000  0.4953740000000  0.5534510000000 1.0
C      1  0.5246480000000  0.5629700000000  0.4865240000000 1.0
C      1  0.4630080000000  0.5272850000000  0.5525040000000 1.0
C      1  0.5437920000000  0.5310100000000  0.4568880000000 1.0
C      1  0.5084910000000  0.5152140000000  0.5660710000000 1.0
C      1  0.4735660000000  0.5008520000000  0.4514680000000 1.0
C      1  0.5375410000000  0.5280200000000  0.5241930000000 1.0
C      1  0.5345700000000  0.5193300000000  0.5555420000000 1.0
C      1  0.4345590000000  0.4923190000000  0.5119150000000 1.0
C      1  0.4437980000000  0.4620370000000  0.4740180000000 1.0
C      1  0.4601130000000  0.5506270000000  0.4481960000000 1.0
C      1  0.4789330000000  0.4759070000000  0.5076410000000 1.0
C      1  0.5157150000000  0.4975500000000  0.4754190000000 1.0
C      1  0.4993690000000  0.5054990000000  0.4397930000000 1.0
C      1  0.5130710000000  0.5334160000000  0.4494730000000 1.0
C      1  0.4555400000000  0.4786710000000  0.5299860000000 1.0
C      1  0.4969680000000  0.5209630000000  0.4768360000000 1.0
C      1  0.4252820000000  0.4758050000000  0.4905020000000 1.0
C      1  0.4789620000000  0.5692760000000  0.4566730000000 1.0
C      1  0.4609680000000  0.5248420000000  0.4601180000000 1.0
C      1  0.5042490000000  0.5602540000000  0.4655510000000 1.0
C      1  0.5168660000000  0.4483120000000  0.4787100000000 1.0
C      1  0.5255840000000  0.4981550000000  0.5183560000000 1.0
C      1  0.5031710000000  0.5577790000000  0.5451680000000 1.0
C      1  0.5294100000000  0.4610010000000  0.4345740000000 1.0
C      1  0.4955130000000  0.4468270000000  0.5357470000000 1.0
END
