TITL C-2778424-3986-1130 -0.000651423741858219 125000 -225.465096827927 0 0 41 (C1) n - 1
REM
REM in /home/nfs/bkarasulu/CARBON/AIRSS/Generating-Clusters/REBO/Only-C1/SD-CG/HFTN-CG
REM
REM
REM
REM
REM
REM ./C.cell (11c1c37f851c82e70ff6c80c92926a4b)
REM
REM compiler GCC version 9.2.1 20190827 (Red Hat 9.2.1-1)
REM options -cpp -mtune=generic -march=x86-64 -g -O0 -fpre-include=/usr/include/finclude/math-vector-fortran.h
REM seed -1688702785 -15280028 562403188 -649708454 -690923347 143566877 -858764163 -1291739610 -93209547 -759991421 861424251 545015409 1386524881 -1113012615 1717107919 313260009 259751265 1588706916 803659397 830942113 -733199826 -2115197335 -682160410 998955933 -1519380602 1245695953 -577390939 -1646994042 1144891741 -1537268501 -679022464 -948674646 709557567
REM
CELL 1.54180   50.00000   50.00000   50.00000   90.00000   90.00000   90.00000
LATT -1
SFAC C  
C      1  0.4633640000000  0.5637250000000  0.5143310000000 1.0
C      1  0.4492190000000  0.5167750000000  0.5197950000000 1.0
C      1  0.4470680000000  0.4928310000000  0.5353890000000 1.0
C      1  0.5044720000000  0.4797030000000  0.5018360000000 1.0
C      1  0.4577560000000  0.5238510000000  0.4713560000000 1.0
C      1  0.4929050000000  0.5532730000000  0.5048590000000 1.0
C      1  0.5104260000000  0.5122350000000  0.4762470000000 1.0
C      1  0.5266160000000  0.5458630000000  0.4427230000000 1.0
C      1  0.4946310000000  0.4850740000000  0.5570470000000 1.0
C      1  0.5240490000000  0.5052870000000  0.5111620000000 1.0
C      1  0.4852790000000  0.5170400000000  0.5495870000000 1.0
C      1  0.5015520000000  0.4624720000000  0.5377380000000 1.0
C      1  0.5279210000000  0.4679390000000  0.5246980000000 1.0
C      1  0.4844090000000  0.5333130000000  0.5291300000000 1.0
C      1  0.4613460000000  0.5100620000000  0.4949730000000 1.0
C      1  0.4772650000000  0.4842970000000  0.4465420000000 1.0
C      1  0.4658090000000  0.4692280000000  0.4671550000000 1.0
C      1  0.5470950000000  0.5362750000000  0.4587870000000 1.0
C      1  0.5087310000000  0.4889260000000  0.4541850000000 1.0
C      1  0.4827680000000  0.4517170000000  0.5204020000000 1.0
C      1  0.4912710000000  0.5125690000000  0.4381420000000 1.0
C      1  0.5430470000000  0.5555580000000  0.5179030000000 1.0
C      1  0.4938920000000  0.5391590000000  0.4782240000000 1.0
C      1  0.4546160000000  0.4657500000000  0.5195870000000 1.0
C      1  0.5432050000000  0.4415960000000  0.4988600000000 1.0
C      1  0.5406050000000  0.5186780000000  0.4840850000000 1.0
C      1  0.5528280000000  0.5281490000000  0.5116270000000 1.0
C      1  0.4991970000000  0.5382900000000  0.4481530000000 1.0
C      1  0.4460090000000  0.5446180000000  0.5241290000000 1.0
C      1  0.4329980000000  0.4487900000000  0.5149640000000 1.0
C      1  0.4737130000000  0.4420570000000  0.4739060000000 1.0
C      1  0.5074610000000  0.5120250000000  0.5739380000000 1.0
C      1  0.5397220000000  0.4525090000000  0.4411510000000 1.0
C      1  0.5490150000000  0.4863010000000  0.5358310000000 1.0
C      1  0.4923430000000  0.4421260000000  0.4955450000000 1.0
C      1  0.4729940000000  0.4815810000000  0.4956920000000 1.0
C      1  0.5244340000000  0.4643490000000  0.4590310000000 1.0
C      1  0.5218820000000  0.5019520000000  0.5447240000000 1.0
C      1  0.5203910000000  0.5653060000000  0.5130200000000 1.0
C      1  0.5667350000000  0.5048210000000  0.5259390000000 1.0
C      1  0.5209610000000  0.4539280000000  0.4876050000000 1.0
END
