TITL C-2778422-5617-284 -0.00273601377621707 125000 -522.045902619813 0 0 93 (C1) n - 1
REM
REM in /home/nfs/bkarasulu/CARBON/AIRSS/Generating-Clusters/REBO/Only-C1/SD-CG/HFTN-CG
REM
REM
REM
REM
REM
REM ./C.cell (11c1c37f851c82e70ff6c80c92926a4b)
REM
REM compiler GCC version 9.2.1 20190827 (Red Hat 9.2.1-1)
REM options -cpp -mtune=generic -march=x86-64 -g -O0 -fpre-include=/usr/include/finclude/math-vector-fortran.h
REM seed 1291574220 1963890307 -964935879 -279017805 1119687293 -358823919 -311110562 -163240490 -1870707597 879318554 -687132668 -399786230 -149314757 -1200072240 -7439807 -1775378985 1902186233 -913336242 -10645651 655267659 -519383594 1418364695 914059985 835124940 -1607592642 -1767385424 -770424874 -1165965476 -35659188 -1364130087 -538023257 1904563324 997344687
REM
CELL 1.54180   50.00000   50.00000   50.00000   90.00000   90.00000   90.00000
LATT -1
SFAC C  
C      1  0.5370720000000  0.5053950000000  0.4788150000000 1.0
C      1  0.5108130000000  0.5784270000000  0.4747050000000 1.0
C      1  0.4870720000000  0.4501060000000  0.4994170000000 1.0
C      1  0.5205730000000  0.4322730000000  0.4854390000000 1.0
C      1  0.4782440000000  0.4686000000000  0.4242930000000 1.0
C      1  0.4496700000000  0.4722130000000  0.5013540000000 1.0
C      1  0.5528930000000  0.5508060000000  0.4564130000000 1.0
C      1  0.5073240000000  0.4819230000000  0.4662890000000 1.0
C      1  0.4856120000000  0.5597190000000  0.5413930000000 1.0
C      1  0.4919390000000  0.4982220000000  0.5172680000000 1.0
C      1  0.5334620000000  0.4908340000000  0.4500790000000 1.0
C      1  0.6309540000000  0.5546340000000  0.5026950000000 1.0
C      1  0.5227720000000  0.5303890000000  0.4976950000000 1.0
C      1  0.5615430000000  0.5187870000000  0.4488640000000 1.0
C      1  0.4796010000000  0.4858280000000  0.5724740000000 1.0
C      1  0.4239970000000  0.4894910000000  0.5148690000000 1.0
C      1  0.5643750000000  0.4473180000000  0.4928100000000 1.0
C      1  0.4264640000000  0.4805530000000  0.5474100000000 1.0
C      1  0.4196800000000  0.5025960000000  0.4519040000000 1.0
C      1  0.4532470000000  0.5070800000000  0.5355190000000 1.0
C      1  0.4537430000000  0.5249010000000  0.5831940000000 1.0
C      1  0.5190530000000  0.5524370000000  0.5403260000000 1.0
C      1  0.5129460000000  0.4395100000000  0.5162490000000 1.0
C      1  0.4297540000000  0.5226500000000  0.5201760000000 1.0
C      1  0.6095250000000  0.5397430000000  0.5051220000000 1.0
C      1  0.4559100000000  0.4392120000000  0.5014310000000 1.0
C      1  0.5830830000000  0.4991010000000  0.4914610000000 1.0
C      1  0.4923360000000  0.4209760000000  0.4702650000000 1.0
C      1  0.5191450000000  0.5539200000000  0.4521140000000 1.0
C      1  0.5285770000000  0.4675420000000  0.4288270000000 1.0
C      1  0.4388290000000  0.4592220000000  0.4716770000000 1.0
C      1  0.4580460000000  0.4252430000000  0.5288740000000 1.0
C      1  0.5146640000000  0.5214110000000  0.5844780000000 1.0
C      1  0.4716470000000  0.5315280000000  0.5332820000000 1.0
C      1  0.4677980000000  0.5194290000000  0.4342030000000 1.0
C      1  0.5093010000000  0.5198400000000  0.5376550000000 1.0
C      1  0.4583910000000  0.4869450000000  0.4305370000000 1.0
C      1  0.5111510000000  0.4857520000000  0.5425380000000 1.0
C      1  0.5000170000000  0.5082530000000  0.4370940000000 1.0
C      1  0.5728750000000  0.4968480000000  0.4633070000000 1.0
C      1  0.5731570000000  0.4753920000000  0.5053570000000 1.0
C      1  0.4720170000000  0.5438160000000  0.5044500000000 1.0
C      1  0.4529370000000  0.5668210000000  0.5340370000000 1.0
C      1  0.5523260000000  0.4339920000000  0.5193480000000 1.0
C      1  0.5644720000000  0.5305270000000  0.5244330000000 1.0
C      1  0.4352290000000  0.5510270000000  0.5179660000000 1.0
C      1  0.5061630000000  0.4261900000000  0.4396190000000 1.0
C      1  0.5644200000000  0.4689400000000  0.4662240000000 1.0
C      1  0.4843790000000  0.5369360000000  0.5839610000000 1.0
C      1  0.5284330000000  0.5233680000000  0.4414340000000 1.0
C      1  0.4989240000000  0.4660650000000  0.5757660000000 1.0
C      1  0.4679090000000  0.5284470000000  0.4752670000000 1.0
C      1  0.5867520000000  0.5239170000000  0.5077000000000 1.0
C      1  0.4709050000000  0.4953890000000  0.4969520000000 1.0
C      1  0.5196470000000  0.4913380000000  0.5039420000000 1.0
C      1  0.4444530000000  0.5576400000000  0.4887250000000 1.0
C      1  0.5231270000000  0.5707450000000  0.5118040000000 1.0
C      1  0.5541460000000  0.5334000000000  0.4851540000000 1.0
C      1  0.5428300000000  0.5113170000000  0.5178380000000 1.0
C      1  0.4778510000000  0.5842580000000  0.5214400000000 1.0
C      1  0.5032760000000  0.4813110000000  0.4229670000000 1.0
C      1  0.5044810000000  0.4164450000000  0.5350160000000 1.0
C      1  0.4600810000000  0.4328490000000  0.4683090000000 1.0
C      1  0.4365070000000  0.5262520000000  0.4421940000000 1.0
C      1  0.4860270000000  0.5044580000000  0.4676530000000 1.0
C      1  0.5464360000000  0.4400990000000  0.4647380000000 1.0
C      1  0.5527490000000  0.4819940000000  0.5238170000000 1.0
C      1  0.4184190000000  0.4853970000000  0.4813200000000 1.0
C      1  0.4599140000000  0.4739550000000  0.5399070000000 1.0
C      1  0.5135080000000  0.5517710000000  0.5739260000000 1.0
C      1  0.5530580000000  0.5495370000000  0.5410270000000 1.0
C      1  0.4841470000000  0.5136480000000  0.5598600000000 1.0
C      1  0.4368180000000  0.4790350000000  0.4465260000000 1.0
C      1  0.5292650000000  0.4641960000000  0.5316820000000 1.0
C      1  0.4294620000000  0.5366090000000  0.4703210000000 1.0
C      1  0.4925020000000  0.4557310000000  0.4694110000000 1.0
C      1  0.4995100000000  0.5435620000000  0.4945760000000 1.0
C      1  0.5357080000000  0.4365770000000  0.5489040000000 1.0
C      1  0.4422690000000  0.5052020000000  0.5663190000000 1.0
C      1  0.5306070000000  0.4411380000000  0.4385210000000 1.0
C      1  0.4879740000000  0.5460930000000  0.4403710000000 1.0
C      1  0.5029090000000  0.4446620000000  0.5544170000000 1.0
C      1  0.4872880000000  0.5773790000000  0.4537680000000 1.0
C      1  0.4621560000000  0.5570980000000  0.4600740000000 1.0
C      1  0.4989100000000  0.5877590000000  0.5038290000000 1.0
C      1  0.4416960000000  0.5087330000000  0.4846860000000 1.0
C      1  0.4778090000000  0.4435690000000  0.4411450000000 1.0
C      1  0.4781210000000  0.4505140000000  0.5325440000000 1.0
C      1  0.5200220000000  0.4993960000000  0.5703120000000 1.0
C      1  0.5261640000000  0.4646620000000  0.4884430000000 1.0
C      1  0.5397040000000  0.5641970000000  0.4848320000000 1.0
C      1  0.4487830000000  0.4731500000000  0.5724160000000 1.0
C      1  0.5495430000000  0.4238380000000  0.5722370000000 1.0
END
