TITL C-2778437-8639-330 0.00455491944417789 125000 -1061.00449580681 0 0 187 (C1) n - 1
REM
REM in /home/nfs/bkarasulu/CARBON/AIRSS/Generating-Clusters/REBO/Only-C1/SD-CG/HFTN-CG
REM
REM
REM
REM
REM
REM ./C.cell (11c1c37f851c82e70ff6c80c92926a4b)
REM
REM compiler GCC version 9.2.1 20190827 (Red Hat 9.2.1-1)
REM options -cpp -mtune=generic -march=x86-64 -g -O0 -fpre-include=/usr/include/finclude/math-vector-fortran.h
REM seed 608034833 -1342307488 1256678696 -21054149 1074810543 545876573 433189948 728853177 -1702005408 -859463775 -1969981214 -315083513 1449634273 932456712 -60589882 -1860261989 43441306 -1876431142 -1350907148 1231074498 -2052395783 1327067093 1103844017 -1200925684 1911030736 -1683087416 846697675 -2017857316 730866111 -1218921734 1404134163 1289281056 173512782
REM
CELL 1.54180   50.00000   50.00000   50.00000   90.00000   90.00000   90.00000
LATT -1
SFAC C  
C      1  0.4194570000000  0.4905610000000  0.5416540000000 1.0
C      1  0.5144370000000  0.4055220000000  0.5579450000000 1.0
C      1  0.5852380000000  0.5068420000000  0.4478320000000 1.0
C      1  0.5083800000000  0.4519820000000  0.3919670000000 1.0
C      1  0.5040620000000  0.4535650000000  0.5907200000000 1.0
C      1  0.5697090000000  0.5595980000000  0.5273210000000 1.0
C      1  0.5131270000000  0.5239570000000  0.5521760000000 1.0
C      1  0.4106670000000  0.4498640000000  0.5586170000000 1.0
C      1  0.5812400000000  0.5200540000000  0.5174660000000 1.0
C      1  0.4065490000000  0.5144350000000  0.4463410000000 1.0
C      1  0.5197810000000  0.5911060000000  0.5236100000000 1.0
C      1  0.5192040000000  0.5708050000000  0.4383050000000 1.0
C      1  0.4871350000000  0.3924510000000  0.5447320000000 1.0
C      1  0.5793350000000  0.4843470000000  0.4803400000000 1.0
C      1  0.5196650000000  0.4337970000000  0.5046610000000 1.0
C      1  0.5063480000000  0.5593600000000  0.5694440000000 1.0
C      1  0.4786600000000  0.5460690000000  0.4564150000000 1.0
C      1  0.4631210000000  0.4852020000000  0.5170410000000 1.0
C      1  0.3999430000000  0.4578840000000  0.5300650000000 1.0
C      1  0.4672180000000  0.4150500000000  0.4647370000000 1.0
C      1  0.4937700000000  0.5878680000000  0.4485320000000 1.0
C      1  0.4316090000000  0.5273610000000  0.4401850000000 1.0
C      1  0.4242480000000  0.4844240000000  0.5088310000000 1.0
C      1  0.5551070000000  0.4136880000000  0.4489540000000 1.0
C      1  0.5536500000000  0.4670700000000  0.4118190000000 1.0
C      1  0.6168420000000  0.5020110000000  0.5200070000000 1.0
C      1  0.5258660000000  0.5155070000000  0.6068170000000 1.0
C      1  0.4937100000000  0.4391300000000  0.5254250000000 1.0
C      1  0.4535080000000  0.4559920000000  0.5490210000000 1.0
C      1  0.4965970000000  0.5122840000000  0.5176900000000 1.0
C      1  0.5661450000000  0.5217160000000  0.5393930000000 1.0
C      1  0.4576890000000  0.5208790000000  0.4880590000000 1.0
C      1  0.4691170000000  0.4432760000000  0.4828380000000 1.0
C      1  0.5039620000000  0.4334750000000  0.4376290000000 1.0
C      1  0.4589880000000  0.4902470000000  0.4627550000000 1.0
C      1  0.4997840000000  0.5680280000000  0.5371150000000 1.0
C      1  0.4986800000000  0.3904160000000  0.5125900000000 1.0
C      1  0.5455100000000  0.4306800000000  0.5568010000000 1.0
C      1  0.5444910000000  0.4874760000000  0.5489080000000 1.0
C      1  0.4367920000000  0.4490290000000  0.4950700000000 1.0
C      1  0.5548800000000  0.4427800000000  0.4930420000000 1.0
C      1  0.5142890000000  0.4752100000000  0.5587970000000 1.0
C      1  0.5201490000000  0.5476720000000  0.5974850000000 1.0
C      1  0.4209620000000  0.4781250000000  0.5716940000000 1.0
C      1  0.4793610000000  0.4592760000000  0.5091860000000 1.0
C      1  0.5018380000000  0.5332570000000  0.4914020000000 1.0
C      1  0.5256880000000  0.4674780000000  0.5046850000000 1.0
C      1  0.4671170000000  0.5779130000000  0.4352410000000 1.0
C      1  0.4807400000000  0.4486410000000  0.3993110000000 1.0
C      1  0.4525860000000  0.4124900000000  0.5016920000000 1.0
C      1  0.5314720000000  0.5251950000000  0.5760400000000 1.0
C      1  0.5239510000000  0.4032600000000  0.4531010000000 1.0
C      1  0.4893990000000  0.4658100000000  0.4712910000000 1.0
C      1  0.4314330000000  0.5847880000000  0.5527450000000 1.0
C      1  0.4247910000000  0.5524990000000  0.5173220000000 1.0
C      1  0.4427110000000  0.5808820000000  0.5228600000000 1.0
C      1  0.4734430000000  0.5038180000000  0.3962060000000 1.0
C      1  0.5188550000000  0.4824190000000  0.5918900000000 1.0
C      1  0.5609370000000  0.4140970000000  0.4807430000000 1.0
C      1  0.5597330000000  0.4110010000000  0.5463910000000 1.0
C      1  0.5415350000000  0.5866710000000  0.4977710000000 1.0
C      1  0.5682190000000  0.3954430000000  0.4987980000000 1.0
C      1  0.4445590000000  0.5279460000000  0.5169010000000 1.0
C      1  0.5194820000000  0.4544690000000  0.4675220000000 1.0
C      1  0.4385320000000  0.5644470000000  0.5691650000000 1.0
C      1  0.5017320000000  0.5852030000000  0.4958220000000 1.0
C      1  0.3893990000000  0.5198340000000  0.4717900000000 1.0
C      1  0.4802500000000  0.6024850000000  0.5501760000000 1.0
C      1  0.4849860000000  0.5850760000000  0.5701210000000 1.0
C      1  0.6040030000000  0.5304150000000  0.5485130000000 1.0
C      1  0.5214350000000  0.4477300000000  0.5416790000000 1.0
C      1  0.6055530000000  0.5411790000000  0.5166820000000 1.0
C      1  0.3998490000000  0.5267960000000  0.5586330000000 1.0
C      1  0.4389720000000  0.5794860000000  0.4519550000000 1.0
C      1  0.4550450000000  0.4342240000000  0.5758640000000 1.0
C      1  0.4687630000000  0.5585670000000  0.5820410000000 1.0
C      1  0.5972850000000  0.5687550000000  0.4999650000000 1.0
C      1  0.5552500000000  0.4692790000000  0.4764630000000 1.0
C      1  0.4596140000000  0.5311470000000  0.4111430000000 1.0
C      1  0.5103670000000  0.5190130000000  0.4320340000000 1.0
C      1  0.4498920000000  0.6116080000000  0.4842880000000 1.0
C      1  0.4592340000000  0.4084010000000  0.5559370000000 1.0
C      1  0.4845840000000  0.4060310000000  0.4910080000000 1.0
C      1  0.4002370000000  0.4893550000000  0.4767750000000 1.0
C      1  0.5066530000000  0.5558150000000  0.4168910000000 1.0
C      1  0.5805900000000  0.5536290000000  0.5582330000000 1.0
C      1  0.3766480000000  0.5151540000000  0.5283430000000 1.0
C      1  0.5022300000000  0.5196820000000  0.4009330000000 1.0
C      1  0.5991510000000  0.4805540000000  0.4578690000000 1.0
C      1  0.4291920000000  0.4252740000000  0.5567500000000 1.0
C      1  0.4364710000000  0.4222690000000  0.4732640000000 1.0
C      1  0.5327470000000  0.5253080000000  0.3996510000000 1.0
C      1  0.4728550000000  0.5326760000000  0.5316650000000 1.0
C      1  0.4740380000000  0.5499100000000  0.4956410000000 1.0
C      1  0.5321620000000  0.4204640000000  0.4247660000000 1.0
C      1  0.5563900000000  0.4686990000000  0.5913890000000 1.0
C      1  0.4485870000000  0.5375280000000  0.5551540000000 1.0
C      1  0.4734740000000  0.4172370000000  0.5277140000000 1.0
C      1  0.4803500000000  0.5498310000000  0.4244160000000 1.0
C      1  0.3872920000000  0.4714290000000  0.5019530000000 1.0
C      1  0.4534580000000  0.4221560000000  0.4370910000000 1.0
C      1  0.5367280000000  0.4456600000000  0.5853070000000 1.0
C      1  0.5498160000000  0.4519100000000  0.5234250000000 1.0
C      1  0.5180920000000  0.4172740000000  0.5821440000000 1.0
C      1  0.5310990000000  0.4862080000000  0.4650150000000 1.0
C      1  0.5547080000000  0.4943330000000  0.4416160000000 1.0
C      1  0.5708100000000  0.4412290000000  0.4532340000000 1.0
C      1  0.5618700000000  0.5871630000000  0.5216140000000 1.0
C      1  0.5494550000000  0.5701530000000  0.4349190000000 1.0
C      1  0.3956110000000  0.5377720000000  0.4944510000000 1.0
C      1  0.4852940000000  0.5315100000000  0.5693010000000 1.0
C      1  0.4080530000000  0.4877690000000  0.4345310000000 1.0
C      1  0.4685720000000  0.6037460000000  0.5255970000000 1.0
C      1  0.5682600000000  0.3955400000000  0.5259830000000 1.0
C      1  0.5353600000000  0.6058700000000  0.4736040000000 1.0
C      1  0.5849650000000  0.4633100000000  0.4143340000000 1.0
C      1  0.5776940000000  0.5614430000000  0.4501250000000 1.0
C      1  0.4412670000000  0.5551960000000  0.4282180000000 1.0
C      1  0.5418280000000  0.4553520000000  0.4417640000000 1.0
C      1  0.4055440000000  0.5083610000000  0.5744360000000 1.0
C      1  0.5190720000000  0.4083930000000  0.5269670000000 1.0
C      1  0.5373400000000  0.5569830000000  0.4867400000000 1.0
C      1  0.5769910000000  0.5029590000000  0.4168090000000 1.0
C      1  0.4474420000000  0.5024080000000  0.5363180000000 1.0
C      1  0.5056930000000  0.4235530000000  0.4707300000000 1.0
C      1  0.5486140000000  0.4980040000000  0.4022550000000 1.0
C      1  0.6022700000000  0.4585500000000  0.5008470000000 1.0
C      1  0.4872670000000  0.4898630000000  0.4234200000000 1.0
C      1  0.3962140000000  0.5417590000000  0.5283150000000 1.0
C      1  0.4495390000000  0.5306460000000  0.5866860000000 1.0
C      1  0.5506060000000  0.5659100000000  0.5615470000000 1.0
C      1  0.4062880000000  0.4640080000000  0.4545620000000 1.0
C      1  0.4727190000000  0.5640860000000  0.5229990000000 1.0
C      1  0.4985940000000  0.4837950000000  0.4989870000000 1.0
C      1  0.5710930000000  0.4689400000000  0.5389370000000 1.0
C      1  0.5236290000000  0.5353820000000  0.4560230000000 1.0
C      1  0.3889400000000  0.4900830000000  0.5287780000000 1.0
C      1  0.5107600000000  0.4660470000000  0.4305940000000 1.0
C      1  0.5849110000000  0.5317720000000  0.4629950000000 1.0
C      1  0.4056090000000  0.4512020000000  0.4845700000000 1.0
C      1  0.5321000000000  0.4447990000000  0.4043570000000 1.0
C      1  0.4309300000000  0.4859200000000  0.4168770000000 1.0
C      1  0.4585240000000  0.4735480000000  0.4011790000000 1.0
C      1  0.4795640000000  0.5149480000000  0.4642400000000 1.0
C      1  0.4251150000000  0.5105320000000  0.4868190000000 1.0
C      1  0.5932430000000  0.4584870000000  0.4404810000000 1.0
C      1  0.5724270000000  0.4992730000000  0.5026130000000 1.0
C      1  0.4514280000000  0.4543210000000  0.4285370000000 1.0
C      1  0.5549900000000  0.5108960000000  0.5669460000000 1.0
C      1  0.5060400000000  0.5616820000000  0.4710610000000 1.0
C      1  0.4710530000000  0.4555710000000  0.5942660000000 1.0
C      1  0.5267710000000  0.4930720000000  0.4260100000000 1.0
C      1  0.5033070000000  0.6076530000000  0.4707980000000 1.0
C      1  0.5533500000000  0.5427610000000  0.4637490000000 1.0
C      1  0.5453760000000  0.4908720000000  0.5159000000000 1.0
C      1  0.4261370000000  0.5446900000000  0.4856100000000 1.0
C      1  0.5834050000000  0.5244820000000  0.5749500000000 1.0
C      1  0.4414350000000  0.5131400000000  0.6055420000000 1.0
C      1  0.4945370000000  0.4983860000000  0.5489390000000 1.0
C      1  0.4498880000000  0.4794770000000  0.4869840000000 1.0
C      1  0.4267210000000  0.4413560000000  0.4470270000000 1.0
C      1  0.4794780000000  0.6103150000000  0.4949650000000 1.0
C      1  0.5295830000000  0.5177480000000  0.5239350000000 1.0
C      1  0.5862530000000  0.4450720000000  0.4832030000000 1.0
C      1  0.5118230000000  0.5082590000000  0.4703520000000 1.0
C      1  0.4337520000000  0.4139740000000  0.5258410000000 1.0
C      1  0.4324350000000  0.5981020000000  0.4967390000000 1.0
C      1  0.4553240000000  0.5039040000000  0.4317100000000 1.0
C      1  0.4796200000000  0.4279220000000  0.4198620000000 1.0
C      1  0.4504500000000  0.5567950000000  0.4721110000000 1.0
C      1  0.4847670000000  0.4571940000000  0.5626850000000 1.0
C      1  0.5451180000000  0.5477320000000  0.4103570000000 1.0
C      1  0.5528530000000  0.6015520000000  0.5435300000000 1.0
C      1  0.6018790000000  0.5319210000000  0.4853520000000 1.0
C      1  0.5833370000000  0.5813630000000  0.4841850000000 1.0
C      1  0.5444590000000  0.5429230000000  0.5133990000000 1.0
C      1  0.4668740000000  0.5034350000000  0.5630710000000 1.0
C      1  0.5987140000000  0.4787350000000  0.5246320000000 1.0
C      1  0.4731270000000  0.4700900000000  0.4434070000000 1.0
C      1  0.5445650000000  0.4891250000000  0.6105250000000 1.0
C      1  0.5753070000000  0.4768110000000  0.5717620000000 1.0
C      1  0.4531380000000  0.4777830000000  0.5756550000000 1.0
C      1  0.5262940000000  0.5893530000000  0.5572960000000 1.0
C      1  0.5951520000000  0.4973710000000  0.5531890000000 1.0
C      1  0.5604480000000  0.5889380000000  0.4612220000000 1.0
C      1  0.4339010000000  0.4564020000000  0.5269050000000 1.0
C      1  0.5316530000000  0.5563760000000  0.5388120000000 1.0
END
