TITL C-2778436-5916-1228 0.00216579296785421 125000 -796.439835033086 0 0 139 (C1) n - 1
REM
REM in /home/nfs/bkarasulu/CARBON/AIRSS/Generating-Clusters/REBO/Only-C1/SD-CG/HFTN-CG
REM
REM
REM
REM
REM
REM ./C.cell (11c1c37f851c82e70ff6c80c92926a4b)
REM
REM compiler GCC version 9.2.1 20190827 (Red Hat 9.2.1-1)
REM options -cpp -mtune=generic -march=x86-64 -g -O0 -fpre-include=/usr/include/finclude/math-vector-fortran.h
REM seed -268223574 1824543603 -837603872 -2059933212 933405738 -888479476 1673653960 2127338103 -341993624 1148235567 -170420125 785563115 2085570958 1746408207 -1180485639 -1158875424 460583548 1079243144 814528733 2076796756 -2140358155 1361980293 844477634 -531459278 -154136402 683818183 1973629762 -183692416 -1244513256 1563625149 -502381051 -1033788365 1152410254
REM
CELL 1.54180   50.00000   50.00000   50.00000   90.00000   90.00000   90.00000
LATT -1
SFAC C  
C      1  0.5239600000000  0.5388180000000  0.5758370000000 1.0
C      1  0.4982820000000  0.4803110000000  0.4754110000000 1.0
C      1  0.4478550000000  0.5253130000000  0.5903220000000 1.0
C      1  0.4679230000000  0.5867890000000  0.4731630000000 1.0
C      1  0.5679480000000  0.4538510000000  0.5722890000000 1.0
C      1  0.5676980000000  0.4642110000000  0.4878900000000 1.0
C      1  0.3989000000000  0.4977650000000  0.5216140000000 1.0
C      1  0.4693590000000  0.5472350000000  0.4687060000000 1.0
C      1  0.5655800000000  0.4446580000000  0.4506480000000 1.0
C      1  0.5266910000000  0.5159690000000  0.4563400000000 1.0
C      1  0.5039820000000  0.5688980000000  0.4378620000000 1.0
C      1  0.4492720000000  0.4774570000000  0.5186180000000 1.0
C      1  0.4449390000000  0.4835750000000  0.5766670000000 1.0
C      1  0.4810870000000  0.5151550000000  0.4457150000000 1.0
C      1  0.4829760000000  0.4060750000000  0.5076860000000 1.0
C      1  0.4421910000000  0.4580760000000  0.5460310000000 1.0
C      1  0.5504720000000  0.5695330000000  0.5105330000000 1.0
C      1  0.4722610000000  0.4444770000000  0.5058880000000 1.0
C      1  0.5111250000000  0.5451360000000  0.4201930000000 1.0
C      1  0.4746670000000  0.4543720000000  0.5385620000000 1.0
C      1  0.5108150000000  0.4885700000000  0.4474840000000 1.0
C      1  0.4598860000000  0.5830540000000  0.5193520000000 1.0
C      1  0.4857600000000  0.5507780000000  0.4987880000000 1.0
C      1  0.4399860000000  0.4961130000000  0.4196070000000 1.0
C      1  0.5283680000000  0.5781120000000  0.4890790000000 1.0
C      1  0.5068420000000  0.5901310000000  0.5370070000000 1.0
C      1  0.4748420000000  0.4027900000000  0.4787010000000 1.0
C      1  0.4315750000000  0.4309390000000  0.4783560000000 1.0
C      1  0.4839660000000  0.4793410000000  0.5204990000000 1.0
C      1  0.4777000000000  0.4666070000000  0.4270570000000 1.0
C      1  0.5647260000000  0.5772480000000  0.4509900000000 1.0
C      1  0.5441150000000  0.5476860000000  0.4137380000000 1.0
C      1  0.4401220000000  0.4352840000000  0.5046070000000 1.0
C      1  0.5990460000000  0.4888620000000  0.4790310000000 1.0
C      1  0.4576260000000  0.4640510000000  0.4821750000000 1.0
C      1  0.5286260000000  0.5875680000000  0.4377610000000 1.0
C      1  0.4868940000000  0.5490690000000  0.5600160000000 1.0
C      1  0.5479950000000  0.5402120000000  0.5281240000000 1.0
C      1  0.4602670000000  0.5362340000000  0.4376300000000 1.0
C      1  0.4480760000000  0.4247510000000  0.5422700000000 1.0
C      1  0.4687810000000  0.5156650000000  0.4926770000000 1.0
C      1  0.4508550000000  0.5090250000000  0.5167360000000 1.0
C      1  0.4095210000000  0.5571830000000  0.5330630000000 1.0
C      1  0.4009240000000  0.5441220000000  0.4754450000000 1.0
C      1  0.5215840000000  0.4713960000000  0.5628380000000 1.0
C      1  0.5712760000000  0.4752440000000  0.4555930000000 1.0
C      1  0.4892170000000  0.5097670000000  0.5276420000000 1.0
C      1  0.5710220000000  0.4869470000000  0.5111400000000 1.0
C      1  0.4983720000000  0.5614990000000  0.4685190000000 1.0
C      1  0.5795060000000  0.5614470000000  0.4947860000000 1.0
C      1  0.4596230000000  0.4583030000000  0.4510600000000 1.0
C      1  0.4239910000000  0.4964050000000  0.5676590000000 1.0
C      1  0.5474720000000  0.4754380000000  0.5820190000000 1.0
C      1  0.5444140000000  0.4908880000000  0.4697070000000 1.0
C      1  0.5507110000000  0.5238610000000  0.4355370000000 1.0
C      1  0.4190250000000  0.5512970000000  0.5033780000000 1.0
C      1  0.5207740000000  0.4356240000000  0.5221360000000 1.0
C      1  0.4439040000000  0.5248950000000  0.4720310000000 1.0
C      1  0.5638020000000  0.5037460000000  0.5776620000000 1.0
C      1  0.4105740000000  0.5103340000000  0.5478900000000 1.0
C      1  0.4682070000000  0.4933630000000  0.4681610000000 1.0
C      1  0.5151330000000  0.4088140000000  0.5077650000000 1.0
C      1  0.4663650000000  0.4870290000000  0.4111170000000 1.0
C      1  0.5274890000000  0.5198440000000  0.4034600000000 1.0
C      1  0.5411650000000  0.5910240000000  0.4654440000000 1.0
C      1  0.5418400000000  0.4955190000000  0.5146880000000 1.0
C      1  0.5298950000000  0.5057100000000  0.5812430000000 1.0
C      1  0.5746120000000  0.4645450000000  0.5438180000000 1.0
C      1  0.4769510000000  0.5478210000000  0.5271610000000 1.0
C      1  0.5111310000000  0.4407580000000  0.5603090000000 1.0
C      1  0.5706040000000  0.4258580000000  0.4985570000000 1.0
C      1  0.4772350000000  0.4685830000000  0.6217540000000 1.0
C      1  0.5125280000000  0.5668870000000  0.5597280000000 1.0
C      1  0.5346750000000  0.5203910000000  0.4948840000000 1.0
C      1  0.5336260000000  0.4635070000000  0.4861970000000 1.0
C      1  0.4738530000000  0.5828240000000  0.4454690000000 1.0
C      1  0.5293010000000  0.4716420000000  0.4279500000000 1.0
C      1  0.4437800000000  0.5725170000000  0.4926270000000 1.0
C      1  0.4343400000000  0.4409970000000  0.4404600000000 1.0
C      1  0.5659480000000  0.5252800000000  0.5033990000000 1.0
C      1  0.4704830000000  0.4817340000000  0.5989140000000 1.0
C      1  0.5846510000000  0.4501360000000  0.5146110000000 1.0
C      1  0.4733110000000  0.4146520000000  0.5338090000000 1.0
C      1  0.5380420000000  0.5772860000000  0.5391350000000 1.0
C      1  0.5366000000000  0.4425800000000  0.4405130000000 1.0
C      1  0.5941290000000  0.4993400000000  0.4477650000000 1.0
C      1  0.4992620000000  0.3958750000000  0.4645220000000 1.0
C      1  0.4357690000000  0.5236220000000  0.4291270000000 1.0
C      1  0.4974370000000  0.5200930000000  0.4733970000000 1.0
C      1  0.4286270000000  0.4712680000000  0.4916670000000 1.0
C      1  0.5047330000000  0.4485340000000  0.4298990000000 1.0
C      1  0.5181290000000  0.5481810000000  0.5007510000000 1.0
C      1  0.5408870000000  0.4366730000000  0.5484780000000 1.0
C      1  0.5609110000000  0.4251820000000  0.5710590000000 1.0
C      1  0.4253610000000  0.4740210000000  0.4377370000000 1.0
C      1  0.4944020000000  0.5233890000000  0.5775560000000 1.0
C      1  0.5241380000000  0.4977280000000  0.5425710000000 1.0
C      1  0.5026890000000  0.5125410000000  0.4245730000000 1.0
C      1  0.5491030000000  0.5533190000000  0.5599330000000 1.0
C      1  0.4950700000000  0.4503190000000  0.4812440000000 1.0
C      1  0.5957660000000  0.5073240000000  0.5231970000000 1.0
C      1  0.5948470000000  0.5382570000000  0.5116250000000 1.0
C      1  0.5522060000000  0.5137880000000  0.5485520000000 1.0
C      1  0.5490170000000  0.4119380000000  0.5077480000000 1.0
C      1  0.4867810000000  0.5918400000000  0.5173840000000 1.0
C      1  0.5764490000000  0.5280850000000  0.4525970000000 1.0
C      1  0.4745340000000  0.4710410000000  0.5667860000000 1.0
C      1  0.4994000000000  0.4919060000000  0.5733070000000 1.0
C      1  0.4841670000000  0.4364380000000  0.4529650000000 1.0
C      1  0.4163710000000  0.4568710000000  0.4650550000000 1.0
C      1  0.6036500000000  0.4778790000000  0.5079280000000 1.0
C      1  0.5450980000000  0.4954430000000  0.4174190000000 1.0
C      1  0.4546610000000  0.4196950000000  0.4588060000000 1.0
C      1  0.5436580000000  0.4651830000000  0.5300980000000 1.0
C      1  0.4221950000000  0.4484340000000  0.5235110000000 1.0
C      1  0.5525320000000  0.5747550000000  0.4223220000000 1.0
C      1  0.4794410000000  0.4987390000000  0.3903570000000 1.0
C      1  0.4935090000000  0.4221310000000  0.5526810000000 1.0
C      1  0.4053280000000  0.4719510000000  0.5137050000000 1.0
C      1  0.4310530000000  0.5561160000000  0.4661760000000 1.0
C      1  0.4215980000000  0.5480400000000  0.5552820000000 1.0
C      1  0.5780500000000  0.5570610000000  0.4657760000000 1.0
C      1  0.4146300000000  0.5337120000000  0.4463140000000 1.0
C      1  0.5739100000000  0.4278180000000  0.4703960000000 1.0
C      1  0.4966650000000  0.5881270000000  0.4897270000000 1.0
C      1  0.4424700000000  0.5316190000000  0.5635320000000 1.0
C      1  0.5142390000000  0.4667000000000  0.5122760000000 1.0
C      1  0.4715260000000  0.5130440000000  0.5959380000000 1.0
C      1  0.5708860000000  0.5084190000000  0.4778220000000 1.0
C      1  0.5063530000000  0.5035350000000  0.4989290000000 1.0
C      1  0.5238630000000  0.4379500000000  0.4690620000000 1.0
C      1  0.5801620000000  0.4959510000000  0.5488410000000 1.0
C      1  0.5209320000000  0.4086020000000  0.4764960000000 1.0
C      1  0.4552460000000  0.5677700000000  0.5443580000000 1.0
C      1  0.4605610000000  0.5659690000000  0.5730270000000 1.0
C      1  0.4624830000000  0.5225880000000  0.5428350000000 1.0
C      1  0.4222530000000  0.5223050000000  0.5181910000000 1.0
C      1  0.5158590000000  0.5283700000000  0.5287810000000 1.0
C      1  0.4354880000000  0.4970590000000  0.4589880000000 1.0
END
