TITL C-2778422-5617-1052 0.00116092283453174 125000 -327.955987370452 0 0 58 (C1) n - 1
REM
REM in /home/nfs/bkarasulu/CARBON/AIRSS/Generating-Clusters/REBO/Only-C1/SD-CG/HFTN-CG
REM
REM
REM
REM
REM
REM ./C.cell (11c1c37f851c82e70ff6c80c92926a4b)
REM
REM compiler GCC version 9.2.1 20190827 (Red Hat 9.2.1-1)
REM options -cpp -mtune=generic -march=x86-64 -g -O0 -fpre-include=/usr/include/finclude/math-vector-fortran.h
REM seed 2034312076 -624661642 262738307 -1725290970 331768734 2117780413 -710058805 1664607254 1062339595 -144672663 1667487419 -924827468 1195845295 -1739323823 -948457433 1867358447 -2048924748 -237785157 395184410 -1902683790 995571367 -14493527 -1473247363 2025927595 -1320793516 -474233832 339777741 -1034971743 -527040723 957294534 -703254294 -2002747805 359534363
REM
CELL 1.54180   50.00000   50.00000   50.00000   90.00000   90.00000   90.00000
LATT -1
SFAC C  
C      1  0.4757560000000  0.5000780000000  0.4245940000000 1.0
C      1  0.4564550000000  0.5129750000000  0.4419720000000 1.0
C      1  0.5155530000000  0.5179680000000  0.4462310000000 1.0
C      1  0.4631830000000  0.5411030000000  0.4494680000000 1.0
C      1  0.5228210000000  0.4966940000000  0.5064760000000 1.0
C      1  0.5836820000000  0.4438280000000  0.4928660000000 1.0
C      1  0.5426340000000  0.4529590000000  0.5446540000000 1.0
C      1  0.4763220000000  0.4623910000000  0.5508430000000 1.0
C      1  0.5404200000000  0.4903000000000  0.5648690000000 1.0
C      1  0.5089420000000  0.5653130000000  0.4677370000000 1.0
C      1  0.5585020000000  0.4483030000000  0.4926430000000 1.0
C      1  0.5358980000000  0.4417290000000  0.4329250000000 1.0
C      1  0.5540340000000  0.5441800000000  0.4667400000000 1.0
C      1  0.5322340000000  0.4659260000000  0.5024390000000 1.0
C      1  0.5658620000000  0.5511980000000  0.4899940000000 1.0
C      1  0.4424630000000  0.4825480000000  0.5301560000000 1.0
C      1  0.5106600000000  0.4287720000000  0.5063670000000 1.0
C      1  0.5564030000000  0.5649300000000  0.5119060000000 1.0
C      1  0.4710800000000  0.4928840000000  0.3988890000000 1.0
C      1  0.4801830000000  0.4292450000000  0.5086310000000 1.0
C      1  0.4920450000000  0.5092640000000  0.5149170000000 1.0
C      1  0.4314590000000  0.5022350000000  0.4899510000000 1.0
C      1  0.4622570000000  0.5319810000000  0.4814170000000 1.0
C      1  0.4673360000000  0.5646550000000  0.5033450000000 1.0
C      1  0.5164390000000  0.5298530000000  0.5268380000000 1.0
C      1  0.4714140000000  0.5026080000000  0.4904340000000 1.0
C      1  0.4378000000000  0.5206890000000  0.5108520000000 1.0
C      1  0.4712720000000  0.4898320000000  0.5568470000000 1.0
C      1  0.4866260000000  0.5050530000000  0.5757940000000 1.0
C      1  0.5013370000000  0.4701820000000  0.4535090000000 1.0
C      1  0.4798300000000  0.4723450000000  0.5035770000000 1.0
C      1  0.4699860000000  0.5401780000000  0.5464500000000 1.0
C      1  0.5432990000000  0.5148480000000  0.5237690000000 1.0
C      1  0.4809460000000  0.5331760000000  0.5724180000000 1.0
C      1  0.4538550000000  0.4635450000000  0.5178110000000 1.0
C      1  0.4813880000000  0.5600400000000  0.5280270000000 1.0
C      1  0.5056790000000  0.4723490000000  0.5211310000000 1.0
C      1  0.5291150000000  0.5735440000000  0.5118760000000 1.0
C      1  0.5276440000000  0.4406070000000  0.4821660000000 1.0
C      1  0.5007470000000  0.4949220000000  0.4389020000000 1.0
C      1  0.5647620000000  0.4702850000000  0.5402950000000 1.0
C      1  0.4488060000000  0.4980520000000  0.4654450000000 1.0
C      1  0.4886760000000  0.4401940000000  0.5376010000000 1.0
C      1  0.5100720000000  0.5572840000000  0.5260920000000 1.0
C      1  0.4807840000000  0.5588940000000  0.4725960000000 1.0
C      1  0.4410470000000  0.5489370000000  0.5019430000000 1.0
C      1  0.5202460000000  0.5820650000000  0.4861610000000 1.0
C      1  0.5273710000000  0.5469540000000  0.4502070000000 1.0
C      1  0.4620750000000  0.5112050000000  0.5317110000000 1.0
C      1  0.5322820000000  0.5590750000000  0.4248680000000 1.0
C      1  0.5208420000000  0.4500680000000  0.4545220000000 1.0
C      1  0.5583420000000  0.5001060000000  0.5430600000000 1.0
C      1  0.5116930000000  0.4924330000000  0.5772430000000 1.0
C      1  0.5208590000000  0.4349930000000  0.5345350000000 1.0
C      1  0.4492760000000  0.4496070000000  0.4628870000000 1.0
C      1  0.4655700000000  0.4386030000000  0.4875660000000 1.0
C      1  0.5153920000000  0.4706170000000  0.5516220000000 1.0
C      1  0.4783440000000  0.4653970000000  0.4712170000000 1.0
END
