TITL C-2778428-5639-595 0.00434125450335017 125000 -754.092274634352 0 0 128 (C1) n - 1
REM
REM in /home/nfs/bkarasulu/CARBON/AIRSS/Generating-Clusters/REBO/Only-C1/SD-CG/HFTN-CG
REM
REM
REM
REM
REM
REM ./C.cell (11c1c37f851c82e70ff6c80c92926a4b)
REM
REM compiler GCC version 9.2.1 20190827 (Red Hat 9.2.1-1)
REM options -cpp -mtune=generic -march=x86-64 -g -O0 -fpre-include=/usr/include/finclude/math-vector-fortran.h
REM seed -1681282709 -1120073882 -915439942 685217176 -461227105 -1069391790 1317668911 -1127639633 -2014611299 -1781850725 -1003633857 -1339201406 -1539357983 1520672146 -1500203257 -2035853199 801594020 -2025082942 1613273489 2113366135 -2147161109 954398792 -681125710 -409884000 1817344169 722930449 -2089285933 -97044236 -916347176 -1824967285 -932804432 -1481981467 962820368
REM
CELL 1.54180   50.00000   50.00000   50.00000   90.00000   90.00000   90.00000
LATT -1
SFAC C  
C      1  0.5480730000000  0.5803840000000  0.4857000000000 1.0
C      1  0.4942440000000  0.5922760000000  0.4885810000000 1.0
C      1  0.4681170000000  0.5591620000000  0.5230960000000 1.0
C      1  0.5236880000000  0.5515770000000  0.5670470000000 1.0
C      1  0.5044320000000  0.4531110000000  0.4651790000000 1.0
C      1  0.5063930000000  0.5305820000000  0.5524030000000 1.0
C      1  0.5992850000000  0.5070200000000  0.4777780000000 1.0
C      1  0.5881360000000  0.5074730000000  0.4480620000000 1.0
C      1  0.4868060000000  0.5520050000000  0.4737720000000 1.0
C      1  0.4766810000000  0.4397320000000  0.4321620000000 1.0
C      1  0.4750100000000  0.4408160000000  0.4658560000000 1.0
C      1  0.4813950000000  0.4768710000000  0.5536530000000 1.0
C      1  0.4572520000000  0.4158410000000  0.5432990000000 1.0
C      1  0.5304880000000  0.4192530000000  0.5028780000000 1.0
C      1  0.5107460000000  0.5138410000000  0.4474890000000 1.0
C      1  0.4011950000000  0.4975660000000  0.5114480000000 1.0
C      1  0.5720450000000  0.3784870000000  0.5505110000000 1.0
C      1  0.5495270000000  0.4686800000000  0.4920170000000 1.0
C      1  0.5879040000000  0.5296180000000  0.5253740000000 1.0
C      1  0.4278540000000  0.4770930000000  0.5546680000000 1.0
C      1  0.5283750000000  0.5430840000000  0.5286230000000 1.0
C      1  0.5504780000000  0.5369260000000  0.5789630000000 1.0
C      1  0.4736000000000  0.5883580000000  0.5065310000000 1.0
C      1  0.5099100000000  0.5164410000000  0.5054890000000 1.0
C      1  0.5020530000000  0.5063500000000  0.5662820000000 1.0
C      1  0.4694400000000  0.5430640000000  0.4205960000000 1.0
C      1  0.5496990000000  0.5324200000000  0.4704240000000 1.0
C      1  0.4668060000000  0.5106610000000  0.4216450000000 1.0
C      1  0.5538410000000  0.5494150000000  0.4345140000000 1.0
C      1  0.5820310000000  0.5347840000000  0.4762530000000 1.0
C      1  0.5844820000000  0.5025040000000  0.5080740000000 1.0
C      1  0.4137310000000  0.4854250000000  0.4422720000000 1.0
C      1  0.5041350000000  0.4034360000000  0.5108940000000 1.0
C      1  0.5420980000000  0.5644690000000  0.4597440000000 1.0
C      1  0.4848350000000  0.4641930000000  0.5821440000000 1.0
C      1  0.4362090000000  0.4272850000000  0.5276980000000 1.0
C      1  0.4971950000000  0.5900070000000  0.4604900000000 1.0
C      1  0.4092670000000  0.5317330000000  0.4530200000000 1.0
C      1  0.5262830000000  0.5935880000000  0.5298230000000 1.0
C      1  0.4791640000000  0.4457030000000  0.5078720000000 1.0
C      1  0.5299210000000  0.4501590000000  0.5076420000000 1.0
C      1  0.5061520000000  0.4271740000000  0.4448220000000 1.0
C      1  0.4932320000000  0.4982440000000  0.4048440000000 1.0
C      1  0.4600840000000  0.5360780000000  0.4834690000000 1.0
C      1  0.5492630000000  0.4739390000000  0.4605970000000 1.0
C      1  0.5838540000000  0.5501630000000  0.5024080000000 1.0
C      1  0.5336540000000  0.5359460000000  0.4188580000000 1.0
C      1  0.5530740000000  0.3951200000000  0.5434230000000 1.0
C      1  0.5724840000000  0.4812150000000  0.5519420000000 1.0
C      1  0.4559280000000  0.4946010000000  0.5503660000000 1.0
C      1  0.5248770000000  0.4438250000000  0.4220920000000 1.0
C      1  0.4364490000000  0.4275430000000  0.4988210000000 1.0
C      1  0.4353060000000  0.5498290000000  0.5027840000000 1.0
C      1  0.4216410000000  0.4607730000000  0.4594210000000 1.0
C      1  0.4480380000000  0.4828570000000  0.4796490000000 1.0
C      1  0.5849070000000  0.4346420000000  0.4838980000000 1.0
C      1  0.5284690000000  0.4561690000000  0.5385140000000 1.0
C      1  0.5291640000000  0.5724350000000  0.5459640000000 1.0
C      1  0.5003170000000  0.5306920000000  0.4133200000000 1.0
C      1  0.5399220000000  0.4478550000000  0.4478280000000 1.0
C      1  0.4385750000000  0.5490920000000  0.5367500000000 1.0
C      1  0.3995890000000  0.5058460000000  0.4594460000000 1.0
C      1  0.5249440000000  0.4904330000000  0.4057630000000 1.0
C      1  0.6039350000000  0.4532150000000  0.4905690000000 1.0
C      1  0.5135620000000  0.5704550000000  0.4505680000000 1.0
C      1  0.5331760000000  0.5034990000000  0.5268250000000 1.0
C      1  0.4278730000000  0.4530790000000  0.5365040000000 1.0
C      1  0.4824400000000  0.4858330000000  0.6030480000000 1.0
C      1  0.4868050000000  0.5373120000000  0.5167460000000 1.0
C      1  0.4556410000000  0.4524530000000  0.4890870000000 1.0
C      1  0.5304420000000  0.4238640000000  0.4691530000000 1.0
C      1  0.5735980000000  0.4853220000000  0.4422380000000 1.0
C      1  0.5167750000000  0.4744960000000  0.6025330000000 1.0
C      1  0.4979730000000  0.4508080000000  0.5469960000000 1.0
C      1  0.5776090000000  0.5356800000000  0.4421730000000 1.0
C      1  0.4603610000000  0.5641190000000  0.4344980000000 1.0
C      1  0.4131520000000  0.5012440000000  0.5431740000000 1.0
C      1  0.5581780000000  0.4388360000000  0.4818150000000 1.0
C      1  0.4421960000000  0.5718120000000  0.4803560000000 1.0
C      1  0.4296240000000  0.5244960000000  0.5521060000000 1.0
C      1  0.5031990000000  0.4806500000000  0.4661000000000 1.0
C      1  0.4648230000000  0.5079760000000  0.4953580000000 1.0
C      1  0.5702890000000  0.5737660000000  0.5004810000000 1.0
C      1  0.5041010000000  0.4871480000000  0.5316970000000 1.0
C      1  0.5022160000000  0.4644980000000  0.5097500000000 1.0
C      1  0.4288900000000  0.4302970000000  0.4696380000000 1.0
C      1  0.5072760000000  0.5554220000000  0.4970050000000 1.0
C      1  0.5339520000000  0.5364360000000  0.4960180000000 1.0
C      1  0.5336140000000  0.4121800000000  0.5361530000000 1.0
C      1  0.4850740000000  0.4954550000000  0.4437140000000 1.0
C      1  0.4642060000000  0.5671060000000  0.5804410000000 1.0
C      1  0.4649850000000  0.5073530000000  0.5974610000000 1.0
C      1  0.5756900000000  0.5344260000000  0.5568010000000 1.0
C      1  0.5411810000000  0.5055340000000  0.4538190000000 1.0
C      1  0.4821320000000  0.4190750000000  0.5121770000000 1.0
C      1  0.5167170000000  0.5023230000000  0.5908280000000 1.0
C      1  0.4655860000000  0.4719440000000  0.4558400000000 1.0
C      1  0.4362420000000  0.4979360000000  0.4222650000000 1.0
C      1  0.4405020000000  0.5012120000000  0.5140900000000 1.0
C      1  0.5561950000000  0.4917330000000  0.5096450000000 1.0
C      1  0.4397880000000  0.5372290000000  0.4604080000000 1.0
C      1  0.5400490000000  0.5073210000000  0.4212380000000 1.0
C      1  0.4627520000000  0.5698120000000  0.4623260000000 1.0
C      1  0.4141680000000  0.4856620000000  0.4821790000000 1.0
C      1  0.4330570000000  0.4739530000000  0.5153930000000 1.0
C      1  0.4817200000000  0.4217870000000  0.5520100000000 1.0
C      1  0.5219120000000  0.5855750000000  0.5009010000000 1.0
C      1  0.5007300000000  0.5429260000000  0.4453880000000 1.0
C      1  0.4848130000000  0.5592930000000  0.5961210000000 1.0
C      1  0.4508480000000  0.5156800000000  0.5741910000000 1.0
C      1  0.5504450000000  0.4659110000000  0.5501310000000 1.0
C      1  0.5077890000000  0.5475210000000  0.6044600000000 1.0
C      1  0.4509660000000  0.5726160000000  0.5562370000000 1.0
C      1  0.5150480000000  0.4245330000000  0.5586920000000 1.0
C      1  0.4204250000000  0.5239440000000  0.5115380000000 1.0
C      1  0.4777460000000  0.5062370000000  0.5268940000000 1.0
C      1  0.6053390000000  0.4794400000000  0.4947150000000 1.0
C      1  0.4527600000000  0.4708960000000  0.4258390000000 1.0
C      1  0.4816130000000  0.4666140000000  0.4116330000000 1.0
C      1  0.5452850000000  0.5231670000000  0.5481550000000 1.0
C      1  0.5853450000000  0.5039420000000  0.5479230000000 1.0
C      1  0.5110660000000  0.4467250000000  0.5843630000000 1.0
C      1  0.4644920000000  0.5914380000000  0.5367920000000 1.0
C      1  0.5129720000000  0.4636600000000  0.4070560000000 1.0
C      1  0.4437380000000  0.4419110000000  0.4413130000000 1.0
C      1  0.4323650000000  0.5289050000000  0.4304120000000 1.0
C      1  0.5276330000000  0.5278780000000  0.5990250000000 1.0
C      1  0.5021820000000  0.4905720000000  0.4920520000000 1.0
END
