TITL C-2778426-5645-12 0.000492503082498056 125000 -190.436261804667 0 0 34 (C1) n - 1
REM
REM in /home/nfs/bkarasulu/CARBON/AIRSS/Generating-Clusters/REBO/Only-C1/SD-CG/HFTN-CG
REM
REM
REM
REM
REM
REM ./C.cell (11c1c37f851c82e70ff6c80c92926a4b)
REM
REM compiler GCC version 9.2.1 20190827 (Red Hat 9.2.1-1)
REM options -cpp -mtune=generic -march=x86-64 -g -O0 -fpre-include=/usr/include/finclude/math-vector-fortran.h
REM seed -673569770 -1363990011 -438173645 1522251419 949891364 -883254945 1741836977 2077185773 -638281717 -1334722834 1646393496 -1004613459 1178795849 -1446441307 -1763719464 -928554045 -830174149 -222076185 -38179124 -1555530008 -230905113 -1275259461 608963558 -1084697308 1999632305 876425355 1502755416 -1523327291 -1112322723 -625214444 2049113499 -505205344 1060605835
REM
CELL 1.54180   50.00000   50.00000   50.00000   90.00000   90.00000   90.00000
LATT -1
SFAC C  
C      1  0.4967230000000  0.4265460000000  0.5196860000000 1.0
C      1  0.4940960000000  0.4359890000000  0.5430460000000 1.0
C      1  0.4862270000000  0.4821690000000  0.5190580000000 1.0
C      1  0.4848880000000  0.5458870000000  0.5335380000000 1.0
C      1  0.4953530000000  0.4990980000000  0.5474300000000 1.0
C      1  0.4915280000000  0.4788020000000  0.4246230000000 1.0
C      1  0.4991550000000  0.4420850000000  0.4928060000000 1.0
C      1  0.5039030000000  0.5277500000000  0.5449030000000 1.0
C      1  0.5495890000000  0.4595170000000  0.5033300000000 1.0
C      1  0.5342750000000  0.4651090000000  0.4567540000000 1.0
C      1  0.5085430000000  0.4620070000000  0.4361780000000 1.0
C      1  0.5416720000000  0.4862730000000  0.5141460000000 1.0
C      1  0.4956690000000  0.4645870000000  0.5497750000000 1.0
C      1  0.5312510000000  0.5306030000000  0.5368280000000 1.0
C      1  0.4621910000000  0.4738260000000  0.4774790000000 1.0
C      1  0.5089980000000  0.4398460000000  0.4607670000000 1.0
C      1  0.5283160000000  0.5375520000000  0.4435830000000 1.0
C      1  0.5184300000000  0.4811320000000  0.5306570000000 1.0
C      1  0.5273000000000  0.5332480000000  0.4745130000000 1.0
C      1  0.4720480000000  0.4971200000000  0.4341940000000 1.0
C      1  0.5317610000000  0.4478730000000  0.4845660000000 1.0
C      1  0.4971980000000  0.5406170000000  0.4495800000000 1.0
C      1  0.4802500000000  0.4663640000000  0.4958230000000 1.0
C      1  0.4387410000000  0.5763830000000  0.5503810000000 1.0
C      1  0.4553810000000  0.4865320000000  0.4545520000000 1.0
C      1  0.4483290000000  0.5565930000000  0.6028400000000 1.0
C      1  0.4500100000000  0.5615540000000  0.5769710000000 1.0
C      1  0.4787160000000  0.5245940000000  0.4357090000000 1.0
C      1  0.4648520000000  0.5573050000000  0.5484300000000 1.0
C      1  0.5422250000000  0.5108050000000  0.4872800000000 1.0
C      1  0.4874230000000  0.5495340000000  0.5057410000000 1.0
C      1  0.5486530000000  0.4904310000000  0.4646840000000 1.0
C      1  0.4991160000000  0.5447340000000  0.4813350000000 1.0
C      1  0.5471910000000  0.5175330000000  0.5188110000000 1.0
END
