TITL C-2778436-5916-763 0.000631858307981717 125000 -653.454396868832 0 0 115 (C1) n - 1
REM
REM in /home/nfs/bkarasulu/CARBON/AIRSS/Generating-Clusters/REBO/Only-C1/SD-CG/HFTN-CG
REM
REM
REM
REM
REM
REM ./C.cell (11c1c37f851c82e70ff6c80c92926a4b)
REM
REM compiler GCC version 9.2.1 20190827 (Red Hat 9.2.1-1)
REM options -cpp -mtune=generic -march=x86-64 -g -O0 -fpre-include=/usr/include/finclude/math-vector-fortran.h
REM seed -675865028 1457455511 -1513156901 1922873664 1113326671 2024130528 -1129517283 1930441569 1518694664 1742195571 1870087278 375099954 -415818063 -317158646 1884947149 1265643250 -1649611646 434178527 -278090139 -125812295 -86421904 343918174 1320642480 1624863643 -1944892838 1674368425 -1607636701 -2140596771 1507900931 -151152890 1262167699 -1951607027 -977725487
REM
CELL 1.54180   50.00000   50.00000   50.00000   90.00000   90.00000   90.00000
LATT -1
SFAC C  
C      1  0.4581750000000  0.4693910000000  0.5212700000000 1.0
C      1  0.5265160000000  0.5721740000000  0.5370860000000 1.0
C      1  0.5034840000000  0.4325930000000  0.4584280000000 1.0
C      1  0.4493940000000  0.4234630000000  0.5179370000000 1.0
C      1  0.5264710000000  0.4565050000000  0.4366930000000 1.0
C      1  0.4890150000000  0.4463780000000  0.5108960000000 1.0
C      1  0.4776600000000  0.5509600000000  0.5270900000000 1.0
C      1  0.4151310000000  0.4887620000000  0.4667890000000 1.0
C      1  0.5116620000000  0.6001380000000  0.4691190000000 1.0
C      1  0.5018640000000  0.4060970000000  0.5145900000000 1.0
C      1  0.5413680000000  0.4675610000000  0.4719620000000 1.0
C      1  0.5320570000000  0.4901010000000  0.5433560000000 1.0
C      1  0.4369210000000  0.4472380000000  0.5360580000000 1.0
C      1  0.5286450000000  0.5219470000000  0.5784190000000 1.0
C      1  0.5144080000000  0.4803080000000  0.4199570000000 1.0
C      1  0.4306210000000  0.4784450000000  0.5484860000000 1.0
C      1  0.5713860000000  0.4965840000000  0.5462090000000 1.0
C      1  0.4196540000000  0.5273330000000  0.5321630000000 1.0
C      1  0.4538180000000  0.4223560000000  0.4843070000000 1.0
C      1  0.4694150000000  0.4315880000000  0.4552840000000 1.0
C      1  0.5719350000000  0.5324430000000  0.4476410000000 1.0
C      1  0.4570040000000  0.5367070000000  0.4937700000000 1.0
C      1  0.4657590000000  0.5150360000000  0.5131730000000 1.0
C      1  0.5163440000000  0.4160570000000  0.4852970000000 1.0
C      1  0.5464610000000  0.5380450000000  0.4874070000000 1.0
C      1  0.5023030000000  0.4665460000000  0.4553600000000 1.0
C      1  0.5004970000000  0.5748730000000  0.4887930000000 1.0
C      1  0.4274720000000  0.5195590000000  0.4591330000000 1.0
C      1  0.4669850000000  0.5633070000000  0.5565080000000 1.0
C      1  0.4765090000000  0.4119500000000  0.5637580000000 1.0
C      1  0.4817920000000  0.5076340000000  0.4757890000000 1.0
C      1  0.5419840000000  0.5349990000000  0.4351370000000 1.0
C      1  0.5671280000000  0.4629370000000  0.4935760000000 1.0
C      1  0.5405720000000  0.5570650000000  0.4613590000000 1.0
C      1  0.4877690000000  0.5096210000000  0.5592620000000 1.0
C      1  0.4948570000000  0.5807670000000  0.5472630000000 1.0
C      1  0.5028970000000  0.5443110000000  0.4847110000000 1.0
C      1  0.5412290000000  0.4951480000000  0.4604880000000 1.0
C      1  0.5476230000000  0.4283840000000  0.4887180000000 1.0
C      1  0.6027340000000  0.5035100000000  0.5348070000000 1.0
C      1  0.4493780000000  0.4834210000000  0.5738720000000 1.0
C      1  0.5374900000000  0.5849560000000  0.4774010000000 1.0
C      1  0.4367670000000  0.5520950000000  0.5443190000000 1.0
C      1  0.5728680000000  0.5558320000000  0.5275600000000 1.0
C      1  0.4654160000000  0.5486150000000  0.4265570000000 1.0
C      1  0.5784990000000  0.5123210000000  0.4750530000000 1.0
C      1  0.4374040000000  0.5027530000000  0.5283190000000 1.0
C      1  0.4190520000000  0.4625360000000  0.4721260000000 1.0
C      1  0.5080340000000  0.5461420000000  0.5328180000000 1.0
C      1  0.5432310000000  0.5796130000000  0.5104890000000 1.0
C      1  0.4836310000000  0.5344270000000  0.4595640000000 1.0
C      1  0.5506540000000  0.5498140000000  0.5454630000000 1.0
C      1  0.4447710000000  0.4962200000000  0.4412560000000 1.0
C      1  0.5263780000000  0.4525520000000  0.4980500000000 1.0
C      1  0.4188190000000  0.4690560000000  0.5172300000000 1.0
C      1  0.4670840000000  0.5000590000000  0.4190920000000 1.0
C      1  0.4540820000000  0.4939280000000  0.4739970000000 1.0
C      1  0.4744840000000  0.4538940000000  0.4297630000000 1.0
C      1  0.4552820000000  0.5118990000000  0.5880000000000 1.0
C      1  0.4510010000000  0.5428310000000  0.4547640000000 1.0
C      1  0.4947380000000  0.5010860000000  0.5036410000000 1.0
C      1  0.4247850000000  0.5394860000000  0.4847810000000 1.0
C      1  0.5775610000000  0.5096620000000  0.5153750000000 1.0
C      1  0.4511370000000  0.5369790000000  0.5713200000000 1.0
C      1  0.4351510000000  0.4387030000000  0.4552780000000 1.0
C      1  0.5834430000000  0.5463590000000  0.4753420000000 1.0
C      1  0.5024050000000  0.4977510000000  0.4538850000000 1.0
C      1  0.4662080000000  0.5252090000000  0.5443460000000 1.0
C      1  0.4991600000000  0.4851740000000  0.5429040000000 1.0
C      1  0.4849130000000  0.5825140000000  0.4590940000000 1.0
C      1  0.4690090000000  0.5268020000000  0.4105350000000 1.0
C      1  0.4048800000000  0.5333810000000  0.5091070000000 1.0
C      1  0.4846850000000  0.4946720000000  0.5886200000000 1.0
C      1  0.5286130000000  0.4766440000000  0.5721720000000 1.0
C      1  0.5397340000000  0.5188410000000  0.5361850000000 1.0
C      1  0.4307680000000  0.4439630000000  0.4970100000000 1.0
C      1  0.4915680000000  0.5867660000000  0.5169070000000 1.0
C      1  0.4760950000000  0.4629880000000  0.5796200000000 1.0
C      1  0.4799970000000  0.4731100000000  0.4986360000000 1.0
C      1  0.4366160000000  0.5573840000000  0.5120620000000 1.0
C      1  0.5669770000000  0.5722160000000  0.4872290000000 1.0
C      1  0.5227650000000  0.5620710000000  0.4327920000000 1.0
C      1  0.5092610000000  0.5310670000000  0.5595030000000 1.0
C      1  0.5577530000000  0.5220510000000  0.5642950000000 1.0
C      1  0.5428910000000  0.4398220000000  0.5457390000000 1.0
C      1  0.4750440000000  0.4689810000000  0.4682700000000 1.0
C      1  0.5179030000000  0.4727570000000  0.5191650000000 1.0
C      1  0.4902840000000  0.5678690000000  0.4334010000000 1.0
C      1  0.4642160000000  0.5738180000000  0.5058090000000 1.0
C      1  0.5021700000000  0.5351810000000  0.4338410000000 1.0
C      1  0.4704650000000  0.4752820000000  0.5483500000000 1.0
C      1  0.5176060000000  0.4970620000000  0.5887060000000 1.0
C      1  0.4942220000000  0.4395820000000  0.5726620000000 1.0
C      1  0.5937030000000  0.4547370000000  0.4751310000000 1.0
C      1  0.4856780000000  0.4773690000000  0.4173030000000 1.0
C      1  0.5787480000000  0.4813760000000  0.4601090000000 1.0
C      1  0.5633980000000  0.5018530000000  0.4400240000000 1.0
C      1  0.4734780000000  0.4120210000000  0.5323660000000 1.0
C      1  0.4640560000000  0.5652550000000  0.4755650000000 1.0
C      1  0.5379260000000  0.4313550000000  0.4557900000000 1.0
C      1  0.4498160000000  0.4651920000000  0.4468550000000 1.0
C      1  0.5594060000000  0.4936100000000  0.4960520000000 1.0
C      1  0.5606200000000  0.4437180000000  0.5166420000000 1.0
C      1  0.4402040000000  0.4880210000000  0.4985940000000 1.0
C      1  0.5249420000000  0.4483970000000  0.5692290000000 1.0
C      1  0.5220080000000  0.5100700000000  0.4289020000000 1.0
C      1  0.4836760000000  0.4222840000000  0.4914710000000 1.0
C      1  0.5222360000000  0.5295670000000  0.5086320000000 1.0
C      1  0.5737690000000  0.5375760000000  0.5056940000000 1.0
C      1  0.5658140000000  0.4498560000000  0.4560770000000 1.0
C      1  0.5286260000000  0.4973470000000  0.5013890000000 1.0
C      1  0.5237100000000  0.4301820000000  0.5219820000000 1.0
C      1  0.5639420000000  0.4662950000000  0.5421170000000 1.0
C      1  0.4967290000000  0.4362780000000  0.5400790000000 1.0
C      1  0.5226460000000  0.5206220000000  0.4696750000000 1.0
END
