TITL C-2778435-5768-1477 0.00050122292178419 125000 -821.586853262955 0 0 143 (C1) n - 1
REM
REM in /home/nfs/bkarasulu/CARBON/AIRSS/Generating-Clusters/REBO/Only-C1/SD-CG/HFTN-CG
REM
REM
REM
REM
REM
REM ./C.cell (11c1c37f851c82e70ff6c80c92926a4b)
REM
REM compiler GCC version 9.2.1 20190827 (Red Hat 9.2.1-1)
REM options -cpp -mtune=generic -march=x86-64 -g -O0 -fpre-include=/usr/include/finclude/math-vector-fortran.h
REM seed 584012805 -806167472 210517501 1049458478 -378826081 1635433377 -670722946 -502798710 -218370383 -1579667504 -1632884105 -1994275065 1746164864 -579971047 940052427 1077291504 -1055754094 -1768978121 -1792052073 410656178 -688473251 509654184 -1248650849 -2086141887 1842553561 741614909 2108639789 -1568864186 89138231 468362309 326548007 595781589 -1699380364
REM
CELL 1.54180   50.00000   50.00000   50.00000   90.00000   90.00000   90.00000
LATT -1
SFAC C  
C      1  0.5045520000000  0.4783650000000  0.5929530000000 1.0
C      1  0.4564830000000  0.4361230000000  0.4808760000000 1.0
C      1  0.4061100000000  0.4968820000000  0.5043980000000 1.0
C      1  0.4432450000000  0.5778850000000  0.4700570000000 1.0
C      1  0.5247890000000  0.5484970000000  0.4970610000000 1.0
C      1  0.5809390000000  0.4811280000000  0.5014320000000 1.0
C      1  0.4470960000000  0.4563830000000  0.5066850000000 1.0
C      1  0.5145740000000  0.5894360000000  0.4702330000000 1.0
C      1  0.5688480000000  0.5478870000000  0.5576270000000 1.0
C      1  0.5302330000000  0.5075890000000  0.5352670000000 1.0
C      1  0.5956890000000  0.5097170000000  0.5245340000000 1.0
C      1  0.5402200000000  0.4638710000000  0.4219620000000 1.0
C      1  0.5440660000000  0.4702660000000  0.5944580000000 1.0
C      1  0.4542210000000  0.5412730000000  0.5688950000000 1.0
C      1  0.5322160000000  0.4857820000000  0.4936280000000 1.0
C      1  0.4604540000000  0.4347730000000  0.5824020000000 1.0
C      1  0.4760510000000  0.4972050000000  0.5948060000000 1.0
C      1  0.4730990000000  0.4274800000000  0.5560070000000 1.0
C      1  0.5469470000000  0.5882110000000  0.4800160000000 1.0
C      1  0.5564510000000  0.5389840000000  0.4507350000000 1.0
C      1  0.4844970000000  0.5833290000000  0.5435330000000 1.0
C      1  0.5001090000000  0.5133270000000  0.5602310000000 1.0
C      1  0.4469760000000  0.5525250000000  0.5435000000000 1.0
C      1  0.4957160000000  0.4561830000000  0.4452530000000 1.0
C      1  0.4674420000000  0.5910960000000  0.5148360000000 1.0
C      1  0.4311490000000  0.4906750000000  0.5485320000000 1.0
C      1  0.5517430000000  0.4965930000000  0.5830910000000 1.0
C      1  0.4708160000000  0.5863540000000  0.4636090000000 1.0
C      1  0.5645380000000  0.5106040000000  0.5381240000000 1.0
C      1  0.4955490000000  0.4053330000000  0.5163270000000 1.0
C      1  0.4903520000000  0.5090260000000  0.5044270000000 1.0
C      1  0.5221670000000  0.5973280000000  0.5025320000000 1.0
C      1  0.4840070000000  0.5708280000000  0.4411460000000 1.0
C      1  0.5114120000000  0.5101530000000  0.4314930000000 1.0
C      1  0.4757070000000  0.5226370000000  0.4432730000000 1.0
C      1  0.5117390000000  0.5064410000000  0.6081020000000 1.0
C      1  0.4912660000000  0.5705330000000  0.5739150000000 1.0
C      1  0.4825910000000  0.4396640000000  0.4193280000000 1.0
C      1  0.4588110000000  0.5012130000000  0.4550140000000 1.0
C      1  0.4882860000000  0.5123820000000  0.4058920000000 1.0
C      1  0.5433140000000  0.5665830000000  0.4551390000000 1.0
C      1  0.5568430000000  0.4809360000000  0.5466750000000 1.0
C      1  0.5256270000000  0.5550740000000  0.5304320000000 1.0
C      1  0.5086750000000  0.5027940000000  0.4800980000000 1.0
C      1  0.5367590000000  0.5516290000000  0.5579920000000 1.0
C      1  0.4974710000000  0.4187500000000  0.5428040000000 1.0
C      1  0.4234570000000  0.4890800000000  0.4409670000000 1.0
C      1  0.4818450000000  0.4805020000000  0.5144620000000 1.0
C      1  0.5802680000000  0.4952090000000  0.4383010000000 1.0
C      1  0.4372140000000  0.5818990000000  0.5021830000000 1.0
C      1  0.4855590000000  0.5284850000000  0.6037990000000 1.0
C      1  0.5183300000000  0.5636180000000  0.5815730000000 1.0
C      1  0.5275250000000  0.4364170000000  0.4627390000000 1.0
C      1  0.5557210000000  0.4530190000000  0.4568910000000 1.0
C      1  0.4488730000000  0.4867110000000  0.5771720000000 1.0
C      1  0.4768540000000  0.4671210000000  0.5422620000000 1.0
C      1  0.4076620000000  0.5273770000000  0.4940990000000 1.0
C      1  0.5937750000000  0.4673810000000  0.4792160000000 1.0
C      1  0.4657750000000  0.5344480000000  0.4801170000000 1.0
C      1  0.4590240000000  0.4717830000000  0.4177870000000 1.0
C      1  0.5667640000000  0.5562450000000  0.5268910000000 1.0
C      1  0.4948340000000  0.5542210000000  0.5370640000000 1.0
C      1  0.5184380000000  0.5310070000000  0.4701410000000 1.0
C      1  0.4876990000000  0.5822480000000  0.4890010000000 1.0
C      1  0.5787220000000  0.5303230000000  0.4738950000000 1.0
C      1  0.4995900000000  0.4891590000000  0.4528220000000 1.0
C      1  0.4153070000000  0.4951670000000  0.4717660000000 1.0
C      1  0.5262040000000  0.4340530000000  0.5529650000000 1.0
C      1  0.5253300000000  0.4466970000000  0.5223740000000 1.0
C      1  0.4055600000000  0.4688110000000  0.5149310000000 1.0
C      1  0.5159660000000  0.5743720000000  0.4397690000000 1.0
C      1  0.4358670000000  0.4652770000000  0.4322790000000 1.0
C      1  0.4963250000000  0.5414860000000  0.4512300000000 1.0
C      1  0.5030700000000  0.5222880000000  0.5284180000000 1.0
C      1  0.5630960000000  0.5152850000000  0.4287180000000 1.0
C      1  0.5418220000000  0.4836660000000  0.4497530000000 1.0
C      1  0.5002960000000  0.4418550000000  0.5012810000000 1.0
C      1  0.4194880000000  0.5279970000000  0.4655580000000 1.0
C      1  0.4866430000000  0.4839940000000  0.5645630000000 1.0
C      1  0.5210740000000  0.4551110000000  0.5744260000000 1.0
C      1  0.5167000000000  0.4093630000000  0.4729460000000 1.0
C      1  0.4118540000000  0.5130540000000  0.5498400000000 1.0
C      1  0.5595300000000  0.5012340000000  0.4932700000000 1.0
C      1  0.5925470000000  0.4764970000000  0.5297520000000 1.0
C      1  0.5220040000000  0.5335430000000  0.4090150000000 1.0
C      1  0.5192770000000  0.5599540000000  0.4121220000000 1.0
C      1  0.5205980000000  0.4049050000000  0.5005170000000 1.0
C      1  0.5751660000000  0.4569560000000  0.5477520000000 1.0
C      1  0.5280380000000  0.4853270000000  0.5613980000000 1.0
C      1  0.4396250000000  0.5121820000000  0.4303760000000 1.0
C      1  0.4912530000000  0.5508270000000  0.4937160000000 1.0
C      1  0.4197650000000  0.5400040000000  0.5322570000000 1.0
C      1  0.5319330000000  0.4343140000000  0.4312110000000 1.0
C      1  0.4424290000000  0.4840320000000  0.5165200000000 1.0
C      1  0.4086930000000  0.4521260000000  0.4916780000000 1.0
C      1  0.4877830000000  0.4034460000000  0.4655040000000 1.0
C      1  0.4729810000000  0.4089970000000  0.4944090000000 1.0
C      1  0.5711730000000  0.5781640000000  0.5008150000000 1.0
C      1  0.5414840000000  0.4225740000000  0.5107780000000 1.0
C      1  0.4599320000000  0.5139620000000  0.5631140000000 1.0
C      1  0.4583470000000  0.5074720000000  0.4968060000000 1.0
C      1  0.5424030000000  0.5790460000000  0.5183500000000 1.0
C      1  0.5437390000000  0.5109740000000  0.4085590000000 1.0
C      1  0.5157570000000  0.4917460000000  0.4039080000000 1.0
C      1  0.5779030000000  0.4442710000000  0.4750970000000 1.0
C      1  0.4653000000000  0.5117770000000  0.5354300000000 1.0
C      1  0.5986090000000  0.5165500000000  0.4964470000000 1.0
C      1  0.4466180000000  0.4239360000000  0.5172900000000 1.0
C      1  0.4618920000000  0.5299160000000  0.4127910000000 1.0
C      1  0.5722290000000  0.4682040000000  0.4310840000000 1.0
C      1  0.5172280000000  0.5397800000000  0.6042230000000 1.0
C      1  0.5330210000000  0.4755980000000  0.5230390000000 1.0
C      1  0.5447760000000  0.5099240000000  0.4644700000000 1.0
C      1  0.5149160000000  0.4634450000000  0.4793530000000 1.0
C      1  0.4486330000000  0.4496600000000  0.5473100000000 1.0
C      1  0.4564340000000  0.4313750000000  0.4252410000000 1.0
C      1  0.5084620000000  0.4611210000000  0.4134610000000 1.0
C      1  0.5593960000000  0.5240710000000  0.5754270000000 1.0
C      1  0.5625430000000  0.5268530000000  0.5102770000000 1.0
C      1  0.5712000000000  0.4276120000000  0.4959680000000 1.0
C      1  0.5599510000000  0.4325740000000  0.5475320000000 1.0
C      1  0.4986160000000  0.6039670000000  0.5204390000000 1.0
C      1  0.4368540000000  0.5169830000000  0.5191840000000 1.0
C      1  0.4125720000000  0.5584500000000  0.5073740000000 1.0
C      1  0.4877090000000  0.4365980000000  0.4697720000000 1.0
C      1  0.4732060000000  0.5519150000000  0.5862410000000 1.0
C      1  0.4693580000000  0.5417190000000  0.5192810000000 1.0
C      1  0.4824290000000  0.4730390000000  0.4849240000000 1.0
C      1  0.5142870000000  0.4204680000000  0.4159220000000 1.0
C      1  0.4802800000000  0.4867170000000  0.4246820000000 1.0
C      1  0.4439250000000  0.5500730000000  0.4986020000000 1.0
C      1  0.4467630000000  0.4576460000000  0.5875940000000 1.0
C      1  0.4296040000000  0.4642000000000  0.4716280000000 1.0
C      1  0.4217200000000  0.4571020000000  0.5375440000000 1.0
C      1  0.4753490000000  0.4417450000000  0.5188390000000 1.0
C      1  0.4423670000000  0.5472750000000  0.4588620000000 1.0
C      1  0.4589250000000  0.4780340000000  0.4699550000000 1.0
C      1  0.5694470000000  0.4143660000000  0.5257900000000 1.0
C      1  0.5917650000000  0.4993430000000  0.4675960000000 1.0
C      1  0.5248970000000  0.5250150000000  0.5752170000000 1.0
C      1  0.4573810000000  0.5557560000000  0.4315500000000 1.0
C      1  0.5566850000000  0.5505940000000  0.4888820000000 1.0
C      1  0.4399150000000  0.4395870000000  0.4523290000000 1.0
END
