TITL C-2778432-5617-744 0.000720666960327049 125000 -758.66199368407 0 0 131 (C1) n - 1
REM
REM in /home/nfs/bkarasulu/CARBON/AIRSS/Generating-Clusters/REBO/Only-C1/SD-CG/HFTN-CG
REM
REM
REM
REM
REM
REM ./C.cell (11c1c37f851c82e70ff6c80c92926a4b)
REM
REM compiler GCC version 9.2.1 20190827 (Red Hat 9.2.1-1)
REM options -cpp -mtune=generic -march=x86-64 -g -O0 -fpre-include=/usr/include/finclude/math-vector-fortran.h
REM seed 1879883711 -197783184 -96970634 2077843338 -282189634 -584567280 -442028972 62906283 394941503 -1085573805 381079331 -558915533 -832989109 -1253336563 639072291 758586000 1704139199 -1213963631 -1924385851 982448772 -2078735002 -1330154795 -35262063 -1691522566 866210383 1360909698 847833908 -577024930 1785602357 1895543394 48208077 -1371271368 852878172
REM
CELL 1.54180   50.00000   50.00000   50.00000   90.00000   90.00000   90.00000
LATT -1
SFAC C  
C      1  0.5251180000000  0.5652560000000  0.5141500000000 1.0
C      1  0.4570320000000  0.4916470000000  0.5022620000000 1.0
C      1  0.5148220000000  0.4567530000000  0.4390010000000 1.0
C      1  0.4441790000000  0.4143840000000  0.5121670000000 1.0
C      1  0.4973390000000  0.4611490000000  0.4175240000000 1.0
C      1  0.5053010000000  0.3983250000000  0.4799810000000 1.0
C      1  0.4664340000000  0.5716220000000  0.4636850000000 1.0
C      1  0.5485600000000  0.5112740000000  0.4282290000000 1.0
C      1  0.5843630000000  0.5173850000000  0.4942210000000 1.0
C      1  0.4340160000000  0.5036990000000  0.5464800000000 1.0
C      1  0.4957690000000  0.5127420000000  0.5063540000000 1.0
C      1  0.4670720000000  0.5066040000000  0.4752740000000 1.0
C      1  0.4537680000000  0.5084210000000  0.5688800000000 1.0
C      1  0.5251480000000  0.5272830000000  0.5019070000000 1.0
C      1  0.5231540000000  0.5665960000000  0.5756260000000 1.0
C      1  0.5153160000000  0.5308190000000  0.4633090000000 1.0
C      1  0.4387030000000  0.4648100000000  0.4604210000000 1.0
C      1  0.5161810000000  0.5636990000000  0.4543260000000 1.0
C      1  0.4710770000000  0.4580410000000  0.5723760000000 1.0
C      1  0.5478470000000  0.5397480000000  0.4583290000000 1.0
C      1  0.5612400000000  0.6026480000000  0.5187490000000 1.0
C      1  0.4809310000000  0.5780410000000  0.5446360000000 1.0
C      1  0.4671650000000  0.4871700000000  0.5884740000000 1.0
C      1  0.4596420000000  0.4551050000000  0.5341680000000 1.0
C      1  0.4287160000000  0.4569610000000  0.5448840000000 1.0
C      1  0.5013010000000  0.5068670000000  0.4746250000000 1.0
C      1  0.5226020000000  0.5553660000000  0.4851230000000 1.0
C      1  0.4929290000000  0.5100100000000  0.4358230000000 1.0
C      1  0.4271300000000  0.5426840000000  0.4923890000000 1.0
C      1  0.5220340000000  0.4287630000000  0.4435780000000 1.0
C      1  0.5515530000000  0.5587730000000  0.5630400000000 1.0
C      1  0.4707230000000  0.4504520000000  0.4272570000000 1.0
C      1  0.5034960000000  0.4470900000000  0.4814130000000 1.0
C      1  0.5505570000000  0.4433870000000  0.5570710000000 1.0
C      1  0.5443510000000  0.5151150000000  0.5874740000000 1.0
C      1  0.4786900000000  0.5389700000000  0.5373970000000 1.0
C      1  0.5355430000000  0.4181230000000  0.5301170000000 1.0
C      1  0.5545540000000  0.5506550000000  0.5367860000000 1.0
C      1  0.5553000000000  0.5760060000000  0.5170630000000 1.0
C      1  0.5464800000000  0.4914140000000  0.4530500000000 1.0
C      1  0.4891830000000  0.4148420000000  0.5374100000000 1.0
C      1  0.5492780000000  0.4385300000000  0.4506970000000 1.0
C      1  0.4555040000000  0.4615080000000  0.5038560000000 1.0
C      1  0.5741930000000  0.5552000000000  0.5023450000000 1.0
C      1  0.5924430000000  0.4723300000000  0.5401930000000 1.0
C      1  0.4995490000000  0.5783140000000  0.4100150000000 1.0
C      1  0.4557380000000  0.5412310000000  0.5699130000000 1.0
C      1  0.4955880000000  0.5685670000000  0.5687660000000 1.0
C      1  0.4875180000000  0.4679390000000  0.5440600000000 1.0
C      1  0.5366750000000  0.5424780000000  0.4273780000000 1.0
C      1  0.5145600000000  0.4238860000000  0.5490140000000 1.0
C      1  0.4842260000000  0.5901570000000  0.5186230000000 1.0
C      1  0.5534520000000  0.4442730000000  0.5247530000000 1.0
C      1  0.5541580000000  0.4634080000000  0.4373420000000 1.0
C      1  0.5808420000000  0.4717390000000  0.4838600000000 1.0
C      1  0.4351310000000  0.5111000000000  0.4871190000000 1.0
C      1  0.3903920000000  0.5076690000000  0.5091410000000 1.0
C      1  0.4998870000000  0.4123810000000  0.4509300000000 1.0
C      1  0.5048070000000  0.4884240000000  0.4043410000000 1.0
C      1  0.5239700000000  0.4823200000000  0.5520600000000 1.0
C      1  0.4528960000000  0.4350030000000  0.5679010000000 1.0
C      1  0.5858070000000  0.4502170000000  0.5232680000000 1.0
C      1  0.5851980000000  0.4838170000000  0.4595170000000 1.0
C      1  0.5567120000000  0.5033140000000  0.4796730000000 1.0
C      1  0.5815490000000  0.4955590000000  0.5536360000000 1.0
C      1  0.4068900000000  0.4919970000000  0.4855560000000 1.0
C      1  0.5284130000000  0.4284720000000  0.4924670000000 1.0
C      1  0.5802050000000  0.5125830000000  0.4550720000000 1.0
C      1  0.5178800000000  0.5172400000000  0.4168430000000 1.0
C      1  0.4917170000000  0.5824410000000  0.4490180000000 1.0
C      1  0.5223120000000  0.5696120000000  0.4230690000000 1.0
C      1  0.4985860000000  0.6111020000000  0.4577410000000 1.0
C      1  0.4247120000000  0.4420590000000  0.5706180000000 1.0
C      1  0.4674990000000  0.5451620000000  0.4847710000000 1.0
C      1  0.4315970000000  0.4390190000000  0.4703800000000 1.0
C      1  0.4072750000000  0.5294900000000  0.5149110000000 1.0
C      1  0.5545560000000  0.4331570000000  0.4784070000000 1.0
C      1  0.5896970000000  0.5216820000000  0.5449070000000 1.0
C      1  0.4685590000000  0.4672120000000  0.4728370000000 1.0
C      1  0.4721940000000  0.4250380000000  0.4450650000000 1.0
C      1  0.4508990000000  0.4003910000000  0.4882270000000 1.0
C      1  0.4764630000000  0.5039630000000  0.6130110000000 1.0
C      1  0.4296820000000  0.4405360000000  0.5016070000000 1.0
C      1  0.5473770000000  0.5260080000000  0.5244370000000 1.0
C      1  0.4786140000000  0.5103400000000  0.4049710000000 1.0
C      1  0.4206780000000  0.4865860000000  0.4592200000000 1.0
C      1  0.4471180000000  0.5555620000000  0.4428520000000 1.0
C      1  0.5035970000000  0.6199730000000  0.4829070000000 1.0
C      1  0.4272010000000  0.5386560000000  0.4592410000000 1.0
C      1  0.6001320000000  0.5307640000000  0.4674580000000 1.0
C      1  0.5651560000000  0.5477260000000  0.4766970000000 1.0
C      1  0.4115390000000  0.4552120000000  0.5219270000000 1.0
C      1  0.5101090000000  0.5489570000000  0.5319600000000 1.0
C      1  0.5889860000000  0.5362590000000  0.5207020000000 1.0
C      1  0.4601330000000  0.4216370000000  0.5391330000000 1.0
C      1  0.4269020000000  0.5113120000000  0.4480340000000 1.0
C      1  0.5289740000000  0.3969120000000  0.5043530000000 1.0
C      1  0.4832560000000  0.4233150000000  0.4851350000000 1.0
C      1  0.5363650000000  0.4820760000000  0.4157350000000 1.0
C      1  0.5496370000000  0.4613080000000  0.5743230000000 1.0
C      1  0.5169770000000  0.5014280000000  0.5795490000000 1.0
C      1  0.5094970000000  0.4789160000000  0.5214620000000 1.0
C      1  0.3965870000000  0.4761710000000  0.5123020000000 1.0
C      1  0.4946470000000  0.4721850000000  0.4942650000000 1.0
C      1  0.5657110000000  0.5041060000000  0.5182130000000 1.0
C      1  0.4999880000000  0.6110570000000  0.5084710000000 1.0
C      1  0.5574680000000  0.4739670000000  0.5085060000000 1.0
C      1  0.4852920000000  0.5161690000000  0.5601120000000 1.0
C      1  0.5116470000000  0.4515660000000  0.5609630000000 1.0
C      1  0.4501670000000  0.4173910000000  0.4636260000000 1.0
C      1  0.5434180000000  0.5428900000000  0.5890050000000 1.0
C      1  0.4340580000000  0.5216520000000  0.5256470000000 1.0
C      1  0.5535460000000  0.4920820000000  0.5666160000000 1.0
C      1  0.5102590000000  0.5153090000000  0.5370470000000 1.0
C      1  0.4803570000000  0.5485540000000  0.5828820000000 1.0
C      1  0.4529770000000  0.5588690000000  0.5418280000000 1.0
C      1  0.4753660000000  0.5301530000000  0.4550360000000 1.0
C      1  0.5170880000000  0.4825210000000  0.4579920000000 1.0
C      1  0.5314620000000  0.4940950000000  0.5008470000000 1.0
C      1  0.4645680000000  0.5247140000000  0.5107100000000 1.0
C      1  0.5771810000000  0.4430470000000  0.4927800000000 1.0
C      1  0.4946030000000  0.5214650000000  0.5922030000000 1.0
C      1  0.4985100000000  0.4752720000000  0.5817280000000 1.0
C      1  0.4532700000000  0.5120950000000  0.4353750000000 1.0
C      1  0.4634890000000  0.5382580000000  0.4177840000000 1.0
C      1  0.4653660000000  0.4841450000000  0.4230820000000 1.0
C      1  0.4665240000000  0.5769230000000  0.4971170000000 1.0
C      1  0.4428690000000  0.5614330000000  0.5116210000000 1.0
C      1  0.4720700000000  0.5697030000000  0.4242300000000 1.0
C      1  0.4845600000000  0.4802550000000  0.4501810000000 1.0
C      1  0.5001740000000  0.4217840000000  0.5118030000000 1.0
END
