TITL C-2778437-8639-1323 0.0034629636480567 125000 -933.965960703988 0 0 162 (C1) n - 1
REM
REM in /home/nfs/bkarasulu/CARBON/AIRSS/Generating-Clusters/REBO/Only-C1/SD-CG/HFTN-CG
REM
REM
REM
REM
REM
REM ./C.cell (11c1c37f851c82e70ff6c80c92926a4b)
REM
REM compiler GCC version 9.2.1 20190827 (Red Hat 9.2.1-1)
REM options -cpp -mtune=generic -march=x86-64 -g -O0 -fpre-include=/usr/include/finclude/math-vector-fortran.h
REM seed 1096522831 1024980109 1007842909 -1590108849 -1922845651 -2043493208 -1874116505 1773978429 769690068 -999051337 1041478847 658519435 932027389 899842090 -410446715 1191043252 -1371199484 1006115762 -1539134965 -1932543503 555011484 85336956 2108720792 524737314 -2072516199 -1596979687 1606141314 249605945 -904321752 430177844 -1103636822 888872148 1549082168
REM
CELL 1.54180   50.00000   50.00000   50.00000   90.00000   90.00000   90.00000
LATT -1
SFAC C  
C      1  0.4257040000000  0.4571040000000  0.4672350000000 1.0
C      1  0.5704600000000  0.4911240000000  0.4939250000000 1.0
C      1  0.5280640000000  0.5745220000000  0.5539530000000 1.0
C      1  0.5534830000000  0.4754920000000  0.5641790000000 1.0
C      1  0.4059680000000  0.4545390000000  0.5472920000000 1.0
C      1  0.5602870000000  0.5064630000000  0.5569990000000 1.0
C      1  0.5598940000000  0.5790450000000  0.5302950000000 1.0
C      1  0.4626020000000  0.4165500000000  0.5703770000000 1.0
C      1  0.4662780000000  0.4999850000000  0.4893970000000 1.0
C      1  0.4643450000000  0.5766860000000  0.4978920000000 1.0
C      1  0.4833110000000  0.5270080000000  0.5970850000000 1.0
C      1  0.4967980000000  0.4747540000000  0.4848520000000 1.0
C      1  0.4787350000000  0.4400690000000  0.5895460000000 1.0
C      1  0.4972730000000  0.4682950000000  0.5935480000000 1.0
C      1  0.5022650000000  0.5812950000000  0.4574520000000 1.0
C      1  0.5639540000000  0.4097450000000  0.4766540000000 1.0
C      1  0.5467800000000  0.5959410000000  0.5106600000000 1.0
C      1  0.5252940000000  0.4232560000000  0.5780520000000 1.0
C      1  0.5389700000000  0.4879420000000  0.4519200000000 1.0
C      1  0.4262250000000  0.5106840000000  0.4397590000000 1.0
C      1  0.5211960000000  0.5972760000000  0.5461470000000 1.0
C      1  0.5019270000000  0.4719740000000  0.5132720000000 1.0
C      1  0.5042500000000  0.3902690000000  0.5264320000000 1.0
C      1  0.4373120000000  0.4809900000000  0.5906140000000 1.0
C      1  0.4538470000000  0.5219460000000  0.4526070000000 1.0
C      1  0.5330980000000  0.5309710000000  0.4217320000000 1.0
C      1  0.4249580000000  0.5108070000000  0.5792830000000 1.0
C      1  0.5189840000000  0.5178210000000  0.5163420000000 1.0
C      1  0.4319400000000  0.4629980000000  0.5643950000000 1.0
C      1  0.5338240000000  0.5732850000000  0.4343110000000 1.0
C      1  0.4061190000000  0.5309210000000  0.5072330000000 1.0
C      1  0.5812630000000  0.5305360000000  0.5517560000000 1.0
C      1  0.4054100000000  0.5070640000000  0.4624690000000 1.0
C      1  0.4278240000000  0.5077790000000  0.4954280000000 1.0
C      1  0.5444550000000  0.4296160000000  0.4267620000000 1.0
C      1  0.5083790000000  0.4795850000000  0.3762390000000 1.0
C      1  0.5069430000000  0.4599020000000  0.5621240000000 1.0
C      1  0.5151990000000  0.6067770000000  0.5165710000000 1.0
C      1  0.4043880000000  0.5466290000000  0.4019050000000 1.0
C      1  0.5444260000000  0.5391530000000  0.5725260000000 1.0
C      1  0.4652700000000  0.4759320000000  0.5444900000000 1.0
C      1  0.5024060000000  0.5832150000000  0.4262510000000 1.0
C      1  0.5575350000000  0.5208330000000  0.4254190000000 1.0
C      1  0.6026830000000  0.5013450000000  0.4946550000000 1.0
C      1  0.4986630000000  0.4420440000000  0.5210880000000 1.0
C      1  0.4372760000000  0.5572030000000  0.4939520000000 1.0
C      1  0.4424310000000  0.4626170000000  0.5237260000000 1.0
C      1  0.4824670000000  0.5136150000000  0.4377090000000 1.0
C      1  0.4880350000000  0.5285540000000  0.5243860000000 1.0
C      1  0.4500140000000  0.4941750000000  0.4019400000000 1.0
C      1  0.4746430000000  0.4599090000000  0.4413520000000 1.0
C      1  0.6114320000000  0.5279680000000  0.5062630000000 1.0
C      1  0.5741620000000  0.4329180000000  0.4815140000000 1.0
C      1  0.6007850000000  0.4760090000000  0.5159420000000 1.0
C      1  0.4653480000000  0.4056410000000  0.4952040000000 1.0
C      1  0.4111460000000  0.5563830000000  0.4637250000000 1.0
C      1  0.4830950000000  0.6041240000000  0.5058810000000 1.0
C      1  0.4840900000000  0.4267580000000  0.4418840000000 1.0
C      1  0.5397720000000  0.5072850000000  0.5839710000000 1.0
C      1  0.5650040000000  0.5598360000000  0.5580200000000 1.0
C      1  0.5917710000000  0.5038820000000  0.5330440000000 1.0
C      1  0.4488050000000  0.5017410000000  0.5188620000000 1.0
C      1  0.5319250000000  0.4699020000000  0.5201700000000 1.0
C      1  0.5113230000000  0.4523130000000  0.4554250000000 1.0
C      1  0.5411480000000  0.4232250000000  0.5404610000000 1.0
C      1  0.5306950000000  0.4750480000000  0.5901130000000 1.0
C      1  0.4100160000000  0.4594240000000  0.5193510000000 1.0
C      1  0.4647200000000  0.5792430000000  0.5299370000000 1.0
C      1  0.4344750000000  0.4861550000000  0.4237730000000 1.0
C      1  0.4290660000000  0.5476750000000  0.5229270000000 1.0
C      1  0.5840470000000  0.4701260000000  0.4399090000000 1.0
C      1  0.4951000000000  0.4120050000000  0.5671680000000 1.0
C      1  0.5692570000000  0.4672520000000  0.4768280000000 1.0
C      1  0.5171600000000  0.5665870000000  0.4914620000000 1.0
C      1  0.5320400000000  0.5195060000000  0.5470940000000 1.0
C      1  0.5977780000000  0.5483000000000  0.4579280000000 1.0
C      1  0.5666430000000  0.4985220000000  0.4446860000000 1.0
C      1  0.5079650000000  0.5563730000000  0.5201250000000 1.0
C      1  0.5290850000000  0.4825120000000  0.4236790000000 1.0
C      1  0.5555600000000  0.5337090000000  0.4720490000000 1.0
C      1  0.4485900000000  0.4131020000000  0.5392080000000 1.0
C      1  0.5640060000000  0.4516440000000  0.4220130000000 1.0
C      1  0.4304800000000  0.5818000000000  0.4738140000000 1.0
C      1  0.4042430000000  0.4818370000000  0.4764650000000 1.0
C      1  0.4523320000000  0.5242370000000  0.5638730000000 1.0
C      1  0.4508120000000  0.5981040000000  0.4664030000000 1.0
C      1  0.4579660000000  0.4493310000000  0.4892160000000 1.0
C      1  0.5706130000000  0.4500580000000  0.5174710000000 1.0
C      1  0.3971220000000  0.5053020000000  0.5222040000000 1.0
C      1  0.4868050000000  0.4124590000000  0.4727360000000 1.0
C      1  0.4592370000000  0.4375340000000  0.5182800000000 1.0
C      1  0.4410910000000  0.5705640000000  0.5409490000000 1.0
C      1  0.4884440000000  0.4910220000000  0.5308350000000 1.0
C      1  0.4553420000000  0.5291260000000  0.5340240000000 1.0
C      1  0.5771130000000  0.4741800000000  0.5407440000000 1.0
C      1  0.4531590000000  0.5167200000000  0.5980710000000 1.0
C      1  0.5536730000000  0.5972120000000  0.4826650000000 1.0
C      1  0.5076150000000  0.5307050000000  0.4394380000000 1.0
C      1  0.4583900000000  0.4928200000000  0.5670310000000 1.0
C      1  0.4898500000000  0.5732580000000  0.5399400000000 1.0
C      1  0.4824490000000  0.4125210000000  0.5216230000000 1.0
C      1  0.4811110000000  0.6022670000000  0.4723870000000 1.0
C      1  0.5553180000000  0.5905330000000  0.4548840000000 1.0
C      1  0.4002450000000  0.5325220000000  0.4758380000000 1.0
C      1  0.5696130000000  0.4405810000000  0.5745820000000 1.0
C      1  0.5425070000000  0.4490610000000  0.4997840000000 1.0
C      1  0.4348950000000  0.4267390000000  0.4802370000000 1.0
C      1  0.5980600000000  0.4501270000000  0.4985150000000 1.0
C      1  0.5162980000000  0.4940040000000  0.4715580000000 1.0
C      1  0.4596550000000  0.5610650000000  0.4444610000000 1.0
C      1  0.4974990000000  0.4842300000000  0.3996830000000 1.0
C      1  0.4366630000000  0.4067480000000  0.5077960000000 1.0
C      1  0.4968900000000  0.5368340000000  0.5546860000000 1.0
C      1  0.5089440000000  0.5210700000000  0.4779190000000 1.0
C      1  0.4864870000000  0.5560600000000  0.5953520000000 1.0
C      1  0.5691910000000  0.4356960000000  0.5474770000000 1.0
C      1  0.4700300000000  0.5569250000000  0.4713180000000 1.0
C      1  0.5380280000000  0.4604760000000  0.4698020000000 1.0
C      1  0.5789500000000  0.5685130000000  0.4474470000000 1.0
C      1  0.5220650000000  0.4285860000000  0.5058070000000 1.0
C      1  0.4415940000000  0.4613430000000  0.4388970000000 1.0
C      1  0.4315930000000  0.5585310000000  0.4414200000000 1.0
C      1  0.4864570000000  0.4457590000000  0.4765240000000 1.0
C      1  0.4398980000000  0.5314360000000  0.4790630000000 1.0
C      1  0.5086750000000  0.4006400000000  0.4936920000000 1.0
C      1  0.5973560000000  0.5428450000000  0.5245350000000 1.0
C      1  0.4048740000000  0.5067460000000  0.5527620000000 1.0
C      1  0.4790690000000  0.5265080000000  0.4760540000000 1.0
C      1  0.5834650000000  0.5255310000000  0.4694840000000 1.0
C      1  0.5020890000000  0.4669120000000  0.4258040000000 1.0
C      1  0.5137710000000  0.5978550000000  0.4839720000000 1.0
C      1  0.5684010000000  0.5172430000000  0.5150250000000 1.0
C      1  0.4781570000000  0.5619180000000  0.4226350000000 1.0
C      1  0.4565620000000  0.4459510000000  0.5570530000000 1.0
C      1  0.5156110000000  0.5564440000000  0.4102620000000 1.0
C      1  0.5431960000000  0.4436760000000  0.5860380000000 1.0
C      1  0.4705030000000  0.4866440000000  0.5977710000000 1.0
C      1  0.5173510000000  0.4287630000000  0.4339070000000 1.0
C      1  0.5519480000000  0.5517170000000  0.4501930000000 1.0
C      1  0.3990320000000  0.4816880000000  0.5053030000000 1.0
C      1  0.5086500000000  0.5508810000000  0.4636020000000 1.0
C      1  0.4922380000000  0.5634800000000  0.5678690000000 1.0
C      1  0.5431960000000  0.4965750000000  0.5135940000000 1.0
C      1  0.5326350000000  0.5367770000000  0.4922760000000 1.0
C      1  0.5340890000000  0.4557740000000  0.5478990000000 1.0
C      1  0.4142510000000  0.5304430000000  0.4189950000000 1.0
C      1  0.4781950000000  0.5065350000000  0.4067200000000 1.0
C      1  0.5341280000000  0.5493020000000  0.5353450000000 1.0
C      1  0.5637140000000  0.5475710000000  0.5202700000000 1.0
C      1  0.4786480000000  0.4885350000000  0.4594340000000 1.0
C      1  0.5997860000000  0.4569390000000  0.4657150000000 1.0
C      1  0.5486600000000  0.4719280000000  0.4076400000000 1.0
C      1  0.5945210000000  0.4946030000000  0.4622890000000 1.0
C      1  0.5215490000000  0.3996990000000  0.5533700000000 1.0
C      1  0.4964040000000  0.5152510000000  0.5735230000000 1.0
C      1  0.4873040000000  0.5378890000000  0.4058620000000 1.0
C      1  0.4274860000000  0.4876990000000  0.5413700000000 1.0
C      1  0.4881690000000  0.4395880000000  0.5506780000000 1.0
C      1  0.5350730000000  0.4001800000000  0.5160460000000 1.0
C      1  0.4987070000000  0.4907200000000  0.5604980000000 1.0
C      1  0.4424460000000  0.4781040000000  0.4872900000000 1.0
C      1  0.4514920000000  0.4311430000000  0.4511970000000 1.0
END
