TITL C-2778436-5916-1390 -0.00297718344029864 125000 -511.515718296876 0 0 90 (C1) n - 1
REM
REM in /home/nfs/bkarasulu/CARBON/AIRSS/Generating-Clusters/REBO/Only-C1/SD-CG/HFTN-CG
REM
REM
REM
REM
REM
REM ./C.cell (11c1c37f851c82e70ff6c80c92926a4b)
REM
REM compiler GCC version 9.2.1 20190827 (Red Hat 9.2.1-1)
REM options -cpp -mtune=generic -march=x86-64 -g -O0 -fpre-include=/usr/include/finclude/math-vector-fortran.h
REM seed 155982735 -1611994115 12349105 -1430205047 -1808074051 1814631823 1693601601 254714190 -1522484188 1492594122 -867522763 795136362 620545592 -297416309 935156384 -320442302 -444713158 -1753789542 797531169 729949167 -1189007944 -1194089741 -603824760 1241184559 -258276428 -1080882924 -1714809675 -1787408552 -2061553386 1009096932 1625192124 -444938937 -1438978683
REM
CELL 1.54180   50.00000   50.00000   50.00000   90.00000   90.00000   90.00000
LATT -1
SFAC C  
C      1  0.4649690000000  0.5068060000000  0.5398000000000 1.0
C      1  0.4903600000000  0.5038610000000  0.5842730000000 1.0
C      1  0.4548150000000  0.5201190000000  0.4973680000000 1.0
C      1  0.5371990000000  0.5395240000000  0.4414920000000 1.0
C      1  0.5606890000000  0.5260500000000  0.4609430000000 1.0
C      1  0.5022980000000  0.4692920000000  0.5692260000000 1.0
C      1  0.5164580000000  0.4399300000000  0.4638680000000 1.0
C      1  0.4658500000000  0.4590260000000  0.5078220000000 1.0
C      1  0.5053060000000  0.5394230000000  0.4412900000000 1.0
C      1  0.5010860000000  0.4556010000000  0.5207380000000 1.0
C      1  0.4661890000000  0.5279400000000  0.4698410000000 1.0
C      1  0.4287310000000  0.4907000000000  0.5445430000000 1.0
C      1  0.4541550000000  0.4538560000000  0.4542900000000 1.0
C      1  0.4771910000000  0.5276470000000  0.5637750000000 1.0
C      1  0.5278190000000  0.5695180000000  0.4545320000000 1.0
C      1  0.4647370000000  0.5533340000000  0.4186570000000 1.0
C      1  0.5668380000000  0.5373810000000  0.5340530000000 1.0
C      1  0.5637090000000  0.4955100000000  0.5608060000000 1.0
C      1  0.5049070000000  0.5061570000000  0.5355500000000 1.0
C      1  0.4994630000000  0.5039070000000  0.4899140000000 1.0
C      1  0.4216310000000  0.5130140000000  0.4523300000000 1.0
C      1  0.4574850000000  0.4766680000000  0.5404290000000 1.0
C      1  0.4494290000000  0.5564000000000  0.4473700000000 1.0
C      1  0.5591900000000  0.4273350000000  0.5118190000000 1.0
C      1  0.4830300000000  0.4784680000000  0.4881810000000 1.0
C      1  0.5282900000000  0.4583990000000  0.4391130000000 1.0
C      1  0.4687850000000  0.4287900000000  0.5077280000000 1.0
C      1  0.5445890000000  0.5610050000000  0.5375820000000 1.0
C      1  0.5210970000000  0.4923150000000  0.4584780000000 1.0
C      1  0.4589070000000  0.5803870000000  0.5083570000000 1.0
C      1  0.5044090000000  0.4812380000000  0.4310260000000 1.0
C      1  0.5780720000000  0.4935820000000  0.5149000000000 1.0
C      1  0.4905230000000  0.5436250000000  0.4973740000000 1.0
C      1  0.4922010000000  0.4618990000000  0.4628260000000 1.0
C      1  0.4876990000000  0.5521180000000  0.4655650000000 1.0
C      1  0.5406380000000  0.5073630000000  0.5717800000000 1.0
C      1  0.5095040000000  0.4333180000000  0.4967290000000 1.0
C      1  0.5313250000000  0.4690040000000  0.5117460000000 1.0
C      1  0.4137180000000  0.4756130000000  0.4893780000000 1.0
C      1  0.4478380000000  0.4941880000000  0.4987860000000 1.0
C      1  0.4579700000000  0.5139710000000  0.4206490000000 1.0
C      1  0.5331320000000  0.4594520000000  0.5722980000000 1.0
C      1  0.5240400000000  0.5010520000000  0.5118250000000 1.0
C      1  0.4344860000000  0.4668660000000  0.5092610000000 1.0
C      1  0.5224420000000  0.5510900000000  0.5519090000000 1.0
C      1  0.4847880000000  0.5287570000000  0.5246780000000 1.0
C      1  0.5179070000000  0.4368950000000  0.5517280000000 1.0
C      1  0.5517140000000  0.5556130000000  0.5059740000000 1.0
C      1  0.5859690000000  0.4523510000000  0.5398410000000 1.0
C      1  0.5684500000000  0.5096830000000  0.4890500000000 1.0
C      1  0.5170940000000  0.5325330000000  0.4842500000000 1.0
C      1  0.4126790000000  0.4942640000000  0.4695640000000 1.0
C      1  0.5623450000000  0.4651360000000  0.5605920000000 1.0
C      1  0.5757800000000  0.5085080000000  0.5389030000000 1.0
C      1  0.5423500000000  0.5436040000000  0.4811640000000 1.0
C      1  0.5247840000000  0.4740050000000  0.4824180000000 1.0
C      1  0.5648010000000  0.4661960000000  0.5171120000000 1.0
C      1  0.4511100000000  0.5476760000000  0.5141960000000 1.0
C      1  0.4946800000000  0.5137300000000  0.4576570000000 1.0
C      1  0.5138410000000  0.5818540000000  0.4708050000000 1.0
C      1  0.4708330000000  0.5793920000000  0.4604500000000 1.0
C      1  0.5641850000000  0.4630140000000  0.4671750000000 1.0
C      1  0.4922920000000  0.5533330000000  0.5470480000000 1.0
C      1  0.4466390000000  0.5547460000000  0.4803440000000 1.0
C      1  0.4874120000000  0.4378350000000  0.5497840000000 1.0
C      1  0.4870310000000  0.5842230000000  0.4893990000000 1.0
C      1  0.4507000000000  0.5373030000000  0.5435640000000 1.0
C      1  0.4759840000000  0.4948170000000  0.4196930000000 1.0
C      1  0.5213720000000  0.4890800000000  0.5862440000000 1.0
C      1  0.5440760000000  0.4813060000000  0.4274890000000 1.0
C      1  0.4267660000000  0.5156300000000  0.5477080000000 1.0
C      1  0.4768130000000  0.4180550000000  0.5294050000000 1.0
C      1  0.4921870000000  0.4777430000000  0.5417820000000 1.0
C      1  0.5546370000000  0.4928860000000  0.4641390000000 1.0
C      1  0.5276170000000  0.4258270000000  0.5208880000000 1.0
C      1  0.5239670000000  0.5225850000000  0.5551010000000 1.0
C      1  0.4400260000000  0.5278750000000  0.4370970000000 1.0
C      1  0.5658800000000  0.4483200000000  0.4899030000000 1.0
C      1  0.5481820000000  0.5193000000000  0.5120610000000 1.0
C      1  0.4873480000000  0.5681270000000  0.5194790000000 1.0
C      1  0.4745910000000  0.4738110000000  0.5867560000000 1.0
C      1  0.5503570000000  0.4388200000000  0.5427900000000 1.0
C      1  0.4659240000000  0.4555140000000  0.5621700000000 1.0
C      1  0.4325400000000  0.5809230000000  0.4917870000000 1.0
C      1  0.4518130000000  0.4739530000000  0.4740500000000 1.0
C      1  0.4629250000000  0.4282430000000  0.4638950000000 1.0
C      1  0.4749340000000  0.4650380000000  0.4336920000000 1.0
C      1  0.4878970000000  0.4235920000000  0.4730430000000 1.0
C      1  0.5447370000000  0.5088120000000  0.4288300000000 1.0
C      1  0.4888470000000  0.5463490000000  0.4160830000000 1.0
END
