TITL C-2778428-5639-695 -0.0312331029246991 125000 -173.175615638655 0 0 31 (C1) n - 1
REM
REM in /home/nfs/bkarasulu/CARBON/AIRSS/Generating-Clusters/REBO/Only-C1/SD-CG/HFTN-CG
REM
REM
REM
REM
REM
REM ./C.cell (11c1c37f851c82e70ff6c80c92926a4b)
REM
REM compiler GCC version 9.2.1 20190827 (Red Hat 9.2.1-1)
REM options -cpp -mtune=generic -march=x86-64 -g -O0 -fpre-include=/usr/include/finclude/math-vector-fortran.h
REM seed -114987335 -1032386862 2030063370 905168262 -1074191967 481700757 1089211156 -163420005 1871962736 1369622938 1839154941 -2037712607 1662624065 -237215875 940276611 -133626786 2126326513 1345671201 -1451483178 -1522845071 -455115749 -1440096686 1404714005 465572119 -1439559819 2042751682 1627769617 926679310 -1195898226 -1036002444 2066479170 -212553820 -344796491
REM
CELL 1.54180   50.00000   50.00000   50.00000   90.00000   90.00000   90.00000
LATT -1
SFAC C  
C      1  0.5413530000000  0.5155650000000  0.5098210000000 1.0
C      1  0.4615790000000  0.5224770000000  0.4584630000000 1.0
C      1  0.4721710000000  0.5064800000000  0.5429580000000 1.0
C      1  0.4773040000000  0.4443010000000  0.4896730000000 1.0
C      1  0.4716290000000  0.4903050000000  0.4537260000000 1.0
C      1  0.5351750000000  0.4727710000000  0.5416560000000 1.0
C      1  0.5175120000000  0.5058010000000  0.5601450000000 1.0
C      1  0.5075330000000  0.5243270000000  0.4181200000000 1.0
C      1  0.4684400000000  0.5350520000000  0.4818900000000 1.0
C      1  0.5031340000000  0.4803990000000  0.4758460000000 1.0
C      1  0.4868680000000  0.5156260000000  0.4365980000000 1.0
C      1  0.4825990000000  0.4592390000000  0.5435230000000 1.0
C      1  0.5144760000000  0.4732690000000  0.5001680000000 1.0
C      1  0.4981400000000  0.5095950000000  0.4680360000000 1.0
C      1  0.5536480000000  0.4778010000000  0.5607610000000 1.0
C      1  0.4393300000000  0.4743390000000  0.5585270000000 1.0
C      1  0.4947670000000  0.5275310000000  0.4932910000000 1.0
C      1  0.5481210000000  0.5196090000000  0.4801000000000 1.0
C      1  0.5453780000000  0.5237660000000  0.4539810000000 1.0
C      1  0.4643610000000  0.4796040000000  0.5491700000000 1.0
C      1  0.4530850000000  0.5265190000000  0.5392010000000 1.0
C      1  0.5023630000000  0.5298110000000  0.3916080000000 1.0
C      1  0.5140170000000  0.4537420000000  0.5435420000000 1.0
C      1  0.5104730000000  0.5212010000000  0.5151690000000 1.0
C      1  0.4966410000000  0.4500880000000  0.5144390000000 1.0
C      1  0.4795360000000  0.4630650000000  0.4693370000000 1.0
C      1  0.5594520000000  0.5275390000000  0.5275390000000 1.0
C      1  0.4351740000000  0.5453240000000  0.5356770000000 1.0
C      1  0.5003820000000  0.5122860000000  0.5398950000000 1.0
C      1  0.5326080000000  0.4861670000000  0.5168520000000 1.0
C      1  0.5327530000000  0.5264030000000  0.4302910000000 1.0
END
