TITL C-2778436-5916-477 0.0010494301561339 125000 -385.052058878804 0 0 68 (C1) n - 1
REM
REM in /home/nfs/bkarasulu/CARBON/AIRSS/Generating-Clusters/REBO/Only-C1/SD-CG/HFTN-CG
REM
REM
REM
REM
REM
REM ./C.cell (11c1c37f851c82e70ff6c80c92926a4b)
REM
REM compiler GCC version 9.2.1 20190827 (Red Hat 9.2.1-1)
REM options -cpp -mtune=generic -march=x86-64 -g -O0 -fpre-include=/usr/include/finclude/math-vector-fortran.h
REM seed -1715933397 1717516683 464843829 1786737305 -1850535366 1057833949 1289754123 751337521 -866632399 1310156600 -583269026 -1254480479 -1014412851 -1003586049 1289166790 -1139472090 488427038 552677739 679228517 1169986848 315623965 -2045421168 -385390511 -967796317 -149140419 1810802829 -1264112599 -1689318184 2112094502 33330870 -763230004 1403025513 2051159949
REM
CELL 1.54180   50.00000   50.00000   50.00000   90.00000   90.00000   90.00000
LATT -1
SFAC C  
C      1  0.5179590000000  0.5216000000000  0.4202680000000 1.0
C      1  0.5752100000000  0.4753250000000  0.5550640000000 1.0
C      1  0.5353220000000  0.4781290000000  0.5729310000000 1.0
C      1  0.4570290000000  0.5170360000000  0.4804910000000 1.0
C      1  0.4496650000000  0.5412650000000  0.5231220000000 1.0
C      1  0.5216010000000  0.4834640000000  0.4789790000000 1.0
C      1  0.5155730000000  0.5643780000000  0.5046210000000 1.0
C      1  0.5671170000000  0.5239630000000  0.5598460000000 1.0
C      1  0.5735320000000  0.4927600000000  0.4795900000000 1.0
C      1  0.4668230000000  0.5429590000000  0.4560400000000 1.0
C      1  0.4454040000000  0.5081400000000  0.5191560000000 1.0
C      1  0.4675320000000  0.4961310000000  0.5601400000000 1.0
C      1  0.5492810000000  0.5994170000000  0.5062010000000 1.0
C      1  0.4816040000000  0.4735610000000  0.5037400000000 1.0
C      1  0.4266680000000  0.5200860000000  0.4862820000000 1.0
C      1  0.5381780000000  0.4997800000000  0.5330480000000 1.0
C      1  0.5582820000000  0.5546830000000  0.5238310000000 1.0
C      1  0.3864400000000  0.4902330000000  0.4901570000000 1.0
C      1  0.4561880000000  0.4893180000000  0.4692030000000 1.0
C      1  0.4734640000000  0.5305270000000  0.4301980000000 1.0
C      1  0.5784410000000  0.4665050000000  0.4923580000000 1.0
C      1  0.4575430000000  0.4512670000000  0.5121840000000 1.0
C      1  0.5052450000000  0.4755710000000  0.5241810000000 1.0
C      1  0.4930780000000  0.5807360000000  0.5029360000000 1.0
C      1  0.5116050000000  0.5334840000000  0.5036210000000 1.0
C      1  0.4941890000000  0.5566330000000  0.5515730000000 1.0
C      1  0.4793480000000  0.4394360000000  0.4707730000000 1.0
C      1  0.4097700000000  0.4316110000000  0.4691100000000 1.0
C      1  0.5362880000000  0.5086280000000  0.4425370000000 1.0
C      1  0.4806030000000  0.4450780000000  0.5317580000000 1.0
C      1  0.5551640000000  0.4804530000000  0.5898940000000 1.0
C      1  0.5504030000000  0.5446260000000  0.5491250000000 1.0
C      1  0.4123280000000  0.4947210000000  0.4838660000000 1.0
C      1  0.5122400000000  0.4353780000000  0.4660200000000 1.0
C      1  0.5612590000000  0.4978890000000  0.5497680000000 1.0
C      1  0.5218820000000  0.5217320000000  0.5302190000000 1.0
C      1  0.5295020000000  0.4439910000000  0.5205070000000 1.0
C      1  0.5411970000000  0.5738820000000  0.5107940000000 1.0
C      1  0.5194690000000  0.5400960000000  0.5564440000000 1.0
C      1  0.4434580000000  0.5539330000000  0.4732330000000 1.0
C      1  0.4308700000000  0.4482640000000  0.4654880000000 1.0
C      1  0.4635030000000  0.4574060000000  0.4307910000000 1.0
C      1  0.4876880000000  0.5313600000000  0.4793790000000 1.0
C      1  0.4555900000000  0.4402400000000  0.4527880000000 1.0
C      1  0.5034420000000  0.4320690000000  0.5188300000000 1.0
C      1  0.4913360000000  0.4712020000000  0.4735680000000 1.0
C      1  0.5175330000000  0.5265770000000  0.5813400000000 1.0
C      1  0.4980290000000  0.4223660000000  0.4923400000000 1.0
C      1  0.5565710000000  0.4556690000000  0.5055580000000 1.0
C      1  0.4507510000000  0.4820440000000  0.5151770000000 1.0
C      1  0.4562080000000  0.5169020000000  0.5467100000000 1.0
C      1  0.4713330000000  0.5536310000000  0.5433340000000 1.0
C      1  0.5156690000000  0.4758260000000  0.5561310000000 1.0
C      1  0.4838890000000  0.4706320000000  0.5526740000000 1.0
C      1  0.5075940000000  0.5253610000000  0.4522550000000 1.0
C      1  0.5264160000000  0.4577530000000  0.4599110000000 1.0
C      1  0.5804940000000  0.5160120000000  0.4941740000000 1.0
C      1  0.4479290000000  0.5604140000000  0.4997250000000 1.0
C      1  0.4756610000000  0.4815860000000  0.4454910000000 1.0
C      1  0.4600560000000  0.4545780000000  0.4037760000000 1.0
C      1  0.4659650000000  0.5821140000000  0.5031090000000 1.0
C      1  0.5301900000000  0.4741480000000  0.5058940000000 1.0
C      1  0.5753170000000  0.5383450000000  0.5083310000000 1.0
C      1  0.5560240000000  0.4968270000000  0.4575450000000 1.0
C      1  0.4802950000000  0.5062650000000  0.4277270000000 1.0
C      1  0.5212780000000  0.5131480000000  0.4790880000000 1.0
C      1  0.6031450000000  0.4551840000000  0.4916660000000 1.0
C      1  0.4313420000000  0.4756720000000  0.4733940000000 1.0
END
