TITL C-2778429-3646-620 0.0032513583793276 125000 -1018.63441238039 0 0 175 (C1) n - 1
REM
REM in /home/nfs/bkarasulu/CARBON/AIRSS/Generating-Clusters/REBO/Only-C1/SD-CG/HFTN-CG
REM
REM
REM
REM
REM
REM ./C.cell (11c1c37f851c82e70ff6c80c92926a4b)
REM
REM compiler GCC version 9.2.1 20190827 (Red Hat 9.2.1-1)
REM options -cpp -mtune=generic -march=x86-64 -g -O0 -fpre-include=/usr/include/finclude/math-vector-fortran.h
REM seed -1810148887 -2034509369 1641560762 543732479 1528257776 115980247 -735793547 -1426758919 1991013594 170322085 40990013 1098842351 1841214659 -1941475385 391026600 -1359365101 -979561183 70121856 135266110 1842163730 1983559785 692205859 1169834259 1683642387 -196650013 -1833367197 -213451780 90375373 -1434196166 1380604703 233817414 1876589288 -920209311
REM
CELL 1.54180   50.00000   50.00000   50.00000   90.00000   90.00000   90.00000
LATT -1
SFAC C  
C      1  0.5682840000000  0.5708640000000  0.4845760000000 1.0
C      1  0.4877360000000  0.4182150000000  0.4691850000000 1.0
C      1  0.3823490000000  0.4867130000000  0.5162390000000 1.0
C      1  0.5292870000000  0.5038930000000  0.5394890000000 1.0
C      1  0.5580280000000  0.4252950000000  0.5218490000000 1.0
C      1  0.4177530000000  0.5709350000000  0.5082880000000 1.0
C      1  0.5334250000000  0.5733730000000  0.4217530000000 1.0
C      1  0.5008290000000  0.4923890000000  0.4414080000000 1.0
C      1  0.4805780000000  0.5763550000000  0.5271490000000 1.0
C      1  0.4584450000000  0.5991340000000  0.4391380000000 1.0
C      1  0.5203270000000  0.5332380000000  0.5493020000000 1.0
C      1  0.4928140000000  0.5554510000000  0.5953710000000 1.0
C      1  0.5360050000000  0.5530790000000  0.5673550000000 1.0
C      1  0.5208510000000  0.5321830000000  0.3918940000000 1.0
C      1  0.4960110000000  0.4395560000000  0.4948190000000 1.0
C      1  0.5484340000000  0.5455200000000  0.5981670000000 1.0
C      1  0.5770670000000  0.5185260000000  0.4240270000000 1.0
C      1  0.4716890000000  0.4970980000000  0.4298620000000 1.0
C      1  0.5830040000000  0.4472970000000  0.5275140000000 1.0
C      1  0.5336130000000  0.4899460000000  0.4324610000000 1.0
C      1  0.4526490000000  0.4902870000000  0.5607980000000 1.0
C      1  0.5485940000000  0.4928380000000  0.4617220000000 1.0
C      1  0.3681130000000  0.5115810000000  0.5058270000000 1.0
C      1  0.4732430000000  0.5113950000000  0.5914320000000 1.0
C      1  0.5124420000000  0.5706640000000  0.5766290000000 1.0
C      1  0.5057470000000  0.5667410000000  0.4511960000000 1.0
C      1  0.5411870000000  0.4046170000000  0.5379150000000 1.0
C      1  0.3971590000000  0.5478830000000  0.4939860000000 1.0
C      1  0.4789170000000  0.4519070000000  0.5461490000000 1.0
C      1  0.5731660000000  0.5412190000000  0.4701350000000 1.0
C      1  0.4474590000000  0.4907690000000  0.4066720000000 1.0
C      1  0.4291530000000  0.5070050000000  0.5471430000000 1.0
C      1  0.5055000000000  0.5361480000000  0.4370800000000 1.0
C      1  0.5446630000000  0.4547550000000  0.5108700000000 1.0
C      1  0.5288800000000  0.5521550000000  0.4798610000000 1.0
C      1  0.4809640000000  0.4913800000000  0.5505270000000 1.0
C      1  0.5339230000000  0.4462490000000  0.4796630000000 1.0
C      1  0.5189510000000  0.4462560000000  0.5478350000000 1.0
C      1  0.4235290000000  0.5099340000000  0.4484590000000 1.0
C      1  0.4275830000000  0.4613940000000  0.4479900000000 1.0
C      1  0.5983710000000  0.5034460000000  0.5527130000000 1.0
C      1  0.5286880000000  0.4169780000000  0.4963780000000 1.0
C      1  0.4273300000000  0.4652200000000  0.4907670000000 1.0
C      1  0.4028190000000  0.4688850000000  0.4667930000000 1.0
C      1  0.5426270000000  0.4339980000000  0.4505610000000 1.0
C      1  0.4335960000000  0.4847320000000  0.5263000000000 1.0
C      1  0.4412910000000  0.5018920000000  0.4979290000000 1.0
C      1  0.5155460000000  0.5589170000000  0.4037460000000 1.0
C      1  0.4632130000000  0.4758360000000  0.5183660000000 1.0
C      1  0.5183840000000  0.5644900000000  0.5247520000000 1.0
C      1  0.5384060000000  0.5557070000000  0.4480140000000 1.0
C      1  0.5178800000000  0.5978940000000  0.5303810000000 1.0
C      1  0.4093560000000  0.4941190000000  0.4963990000000 1.0
C      1  0.5826360000000  0.4930100000000  0.5013780000000 1.0
C      1  0.5631900000000  0.4625780000000  0.5793780000000 1.0
C      1  0.4929270000000  0.5274320000000  0.6050100000000 1.0
C      1  0.5335440000000  0.5949220000000  0.4459540000000 1.0
C      1  0.5077720000000  0.6065430000000  0.4480200000000 1.0
C      1  0.4755470000000  0.5192160000000  0.4071830000000 1.0
C      1  0.4327570000000  0.4641170000000  0.4170450000000 1.0
C      1  0.4743580000000  0.5744220000000  0.4947060000000 1.0
C      1  0.5417850000000  0.4315160000000  0.5671910000000 1.0
C      1  0.5292670000000  0.5037330000000  0.5058340000000 1.0
C      1  0.5521730000000  0.5343930000000  0.4947760000000 1.0
C      1  0.4864690000000  0.5575160000000  0.4179000000000 1.0
C      1  0.5603150000000  0.5095940000000  0.5300800000000 1.0
C      1  0.4471680000000  0.4460610000000  0.5837860000000 1.0
C      1  0.4393820000000  0.4752370000000  0.5820240000000 1.0
C      1  0.6096260000000  0.5081650000000  0.4907090000000 1.0
C      1  0.4383080000000  0.5880130000000  0.4564980000000 1.0
C      1  0.5009580000000  0.6108770000000  0.4773070000000 1.0
C      1  0.4929320000000  0.4114870000000  0.5675600000000 1.0
C      1  0.4100180000000  0.5619500000000  0.4458590000000 1.0
C      1  0.4696990000000  0.5308450000000  0.5443060000000 1.0
C      1  0.6051670000000  0.5357460000000  0.4742960000000 1.0
C      1  0.4747340000000  0.4590140000000  0.5736090000000 1.0
C      1  0.5991230000000  0.5144140000000  0.5217650000000 1.0
C      1  0.4755620000000  0.4825160000000  0.3915280000000 1.0
C      1  0.5137960000000  0.4496980000000  0.6033720000000 1.0
C      1  0.4497490000000  0.5785580000000  0.5163860000000 1.0
C      1  0.3999070000000  0.5029930000000  0.4661260000000 1.0
C      1  0.4318650000000  0.4208120000000  0.4876380000000 1.0
C      1  0.5606860000000  0.4182300000000  0.4894640000000 1.0
C      1  0.5270500000000  0.4108840000000  0.4433290000000 1.0
C      1  0.5418440000000  0.4693920000000  0.5549230000000 1.0
C      1  0.5706880000000  0.4377410000000  0.5572300000000 1.0
C      1  0.4303520000000  0.4457600000000  0.5188270000000 1.0
C      1  0.4574270000000  0.5277190000000  0.5736350000000 1.0
C      1  0.4379040000000  0.5662880000000  0.4296340000000 1.0
C      1  0.5573310000000  0.5294600000000  0.4450060000000 1.0
C      1  0.5265140000000  0.4924700000000  0.5831330000000 1.0
C      1  0.5885890000000  0.5344980000000  0.5538660000000 1.0
C      1  0.4831410000000  0.5225070000000  0.5030530000000 1.0
C      1  0.4623840000000  0.4857860000000  0.4787810000000 1.0
C      1  0.5982240000000  0.5589490000000  0.4950720000000 1.0
C      1  0.5084830000000  0.4766700000000  0.5595260000000 1.0
C      1  0.5653390000000  0.5375130000000  0.5709150000000 1.0
C      1  0.5404420000000  0.5841800000000  0.4755910000000 1.0
C      1  0.4733800000000  0.5725080000000  0.5750690000000 1.0
C      1  0.5449580000000  0.5783970000000  0.5401870000000 1.0
C      1  0.4045140000000  0.5084100000000  0.5599990000000 1.0
C      1  0.4954360000000  0.5876980000000  0.5539140000000 1.0
C      1  0.4997620000000  0.4156090000000  0.4408650000000 1.0
C      1  0.5064510000000  0.5263810000000  0.4824300000000 1.0
C      1  0.4576000000000  0.4088060000000  0.4688280000000 1.0
C      1  0.4924720000000  0.5473400000000  0.5378100000000 1.0
C      1  0.4923860000000  0.5820080000000  0.4754650000000 1.0
C      1  0.4567080000000  0.5279920000000  0.4949340000000 1.0
C      1  0.4503380000000  0.5578250000000  0.5664440000000 1.0
C      1  0.5915560000000  0.5474730000000  0.5249410000000 1.0
C      1  0.5566160000000  0.5025960000000  0.4905430000000 1.0
C      1  0.4327900000000  0.4032430000000  0.5459380000000 1.0
C      1  0.4257070000000  0.4134930000000  0.5203290000000 1.0
C      1  0.4846270000000  0.5015660000000  0.5217590000000 1.0
C      1  0.4155800000000  0.5538990000000  0.4723180000000 1.0
C      1  0.3883560000000  0.4602830000000  0.4958880000000 1.0
C      1  0.5795910000000  0.4895060000000  0.5775290000000 1.0
C      1  0.5069270000000  0.3991690000000  0.4861220000000 1.0
C      1  0.5402070000000  0.5206810000000  0.6128240000000 1.0
C      1  0.5056530000000  0.4630950000000  0.4738730000000 1.0
C      1  0.4416140000000  0.5375150000000  0.4470420000000 1.0
C      1  0.5579850000000  0.4741620000000  0.4207420000000 1.0
C      1  0.4407950000000  0.5321910000000  0.5376470000000 1.0
C      1  0.5113220000000  0.4558850000000  0.4214240000000 1.0
C      1  0.3836060000000  0.5242110000000  0.4872270000000 1.0
C      1  0.4640770000000  0.3921580000000  0.4978110000000 1.0
C      1  0.6184570000000  0.5278580000000  0.4457750000000 1.0
C      1  0.4877750000000  0.4322400000000  0.4153250000000 1.0
C      1  0.4859880000000  0.5879370000000  0.4331630000000 1.0
C      1  0.5740430000000  0.4405480000000  0.4764890000000 1.0
C      1  0.5136040000000  0.4068080000000  0.5487060000000 1.0
C      1  0.5270000000000  0.5191840000000  0.4576780000000 1.0
C      1  0.4651410000000  0.4076540000000  0.5563630000000 1.0
C      1  0.4483080000000  0.4875080000000  0.4504880000000 1.0
C      1  0.4633570000000  0.4541580000000  0.4059580000000 1.0
C      1  0.4947480000000  0.4953000000000  0.4738740000000 1.0
C      1  0.4636430000000  0.4465060000000  0.4393070000000 1.0
C      1  0.4609330000000  0.4246380000000  0.5050930000000 1.0
C      1  0.4939230000000  0.4627620000000  0.5196560000000 1.0
C      1  0.6019730000000  0.5325790000000  0.4231450000000 1.0
C      1  0.4064850000000  0.4659820000000  0.5245320000000 1.0
C      1  0.5812540000000  0.4896610000000  0.4248340000000 1.0
C      1  0.5957970000000  0.4823750000000  0.4488480000000 1.0
C      1  0.4445180000000  0.5455540000000  0.4774320000000 1.0
C      1  0.4574940000000  0.4325960000000  0.5351670000000 1.0
C      1  0.4896960000000  0.3821000000000  0.4992780000000 1.0
C      1  0.4921260000000  0.4541380000000  0.4478930000000 1.0
C      1  0.4572460000000  0.5459120000000  0.4116380000000 1.0
C      1  0.5135420000000  0.4792100000000  0.6092560000000 1.0
C      1  0.5229550000000  0.5160350000000  0.4182060000000 1.0
C      1  0.5563630000000  0.5086020000000  0.5854070000000 1.0
C      1  0.5860270000000  0.4731200000000  0.5483170000000 1.0
C      1  0.5692140000000  0.5709460000000  0.5186160000000 1.0
C      1  0.4982720000000  0.5084270000000  0.3876980000000 1.0
C      1  0.5264740000000  0.5355250000000  0.5157930000000 1.0
C      1  0.4398440000000  0.4215760000000  0.5724960000000 1.0
C      1  0.4592760000000  0.4549080000000  0.4928480000000 1.0
C      1  0.5589370000000  0.4787950000000  0.5302680000000 1.0
C      1  0.5064000000000  0.6206870000000  0.5021980000000 1.0
C      1  0.5408100000000  0.4511410000000  0.4278210000000 1.0
C      1  0.4319540000000  0.5619880000000  0.5380050000000 1.0
C      1  0.5742420000000  0.4725300000000  0.4681690000000 1.0
C      1  0.5405300000000  0.4428620000000  0.5953480000000 1.0
C      1  0.5128500000000  0.4278970000000  0.5222160000000 1.0
C      1  0.5202690000000  0.4761650000000  0.5213610000000 1.0
C      1  0.5029530000000  0.4828280000000  0.4085120000000 1.0
C      1  0.5139830000000  0.5105660000000  0.6163100000000 1.0
C      1  0.4793420000000  0.4831330000000  0.5895070000000 1.0
C      1  0.4963850000000  0.4297920000000  0.5901730000000 1.0
C      1  0.5843110000000  0.4619140000000  0.4997540000000 1.0
C      1  0.6150310000000  0.5001660000000  0.4597080000000 1.0
C      1  0.4404700000000  0.4348480000000  0.4578220000000 1.0
C      1  0.4378770000000  0.5184070000000  0.4190010000000 1.0
C      1  0.5431400000000  0.5908880000000  0.5078950000000 1.0
C      1  0.4310300000000  0.5891740000000  0.4827090000000 1.0
END
