TITL C-2778425-5191-297 -0.011007355107038 125000 -542.444794291548 0 0 97 (C1) n - 1
REM
REM in /home/nfs/bkarasulu/CARBON/AIRSS/Generating-Clusters/REBO/Only-C1/SD-CG/HFTN-CG
REM
REM
REM
REM
REM
REM ./C.cell (11c1c37f851c82e70ff6c80c92926a4b)
REM
REM compiler GCC version 9.2.1 20190827 (Red Hat 9.2.1-1)
REM options -cpp -mtune=generic -march=x86-64 -g -O0 -fpre-include=/usr/include/finclude/math-vector-fortran.h
REM seed -1007367632 1553757604 -550321356 -1685360869 1371808847 -542928685 20948566 -1031471693 -200818728 -1481100396 792827807 -1903928091 539451417 -1326294986 -179261377 1936521377 1146285931 32443880 -1877292332 -1587412399 846645301 1775085019 -1600377381 1310048178 172325624 387920999 -744237149 480786139 -628410105 -1370078705 -445734750 -1850332189 816604575
REM
CELL 1.54180   50.00000   50.00000   50.00000   90.00000   90.00000   90.00000
LATT -1
SFAC C  
C      1  0.5350020000000  0.5219190000000  0.4666400000000 1.0
C      1  0.4695760000000  0.4829930000000  0.4743720000000 1.0
C      1  0.5044270000000  0.4650710000000  0.4817110000000 1.0
C      1  0.5796090000000  0.5419830000000  0.4887350000000 1.0
C      1  0.5751090000000  0.4726130000000  0.5087560000000 1.0
C      1  0.4437350000000  0.4529250000000  0.4787110000000 1.0
C      1  0.5245170000000  0.4887580000000  0.4937040000000 1.0
C      1  0.4450020000000  0.4743700000000  0.4528320000000 1.0
C      1  0.5109900000000  0.4239780000000  0.5197890000000 1.0
C      1  0.5077380000000  0.5539110000000  0.5375350000000 1.0
C      1  0.5812080000000  0.5370640000000  0.5205640000000 1.0
C      1  0.4959700000000  0.4689670000000  0.5929600000000 1.0
C      1  0.4585290000000  0.5210090000000  0.4796160000000 1.0
C      1  0.5394960000000  0.5516930000000  0.4407920000000 1.0
C      1  0.4134240000000  0.4663470000000  0.4852180000000 1.0
C      1  0.5609560000000  0.4882900000000  0.5431940000000 1.0
C      1  0.4862850000000  0.5008970000000  0.4141310000000 1.0
C      1  0.4907490000000  0.5133870000000  0.5754460000000 1.0
C      1  0.4010970000000  0.5210950000000  0.4907400000000 1.0
C      1  0.4770430000000  0.4858620000000  0.5826490000000 1.0
C      1  0.4276280000000  0.5171780000000  0.5328130000000 1.0
C      1  0.4437660000000  0.4697670000000  0.5464510000000 1.0
C      1  0.4911080000000  0.4322920000000  0.5778660000000 1.0
C      1  0.4919810000000  0.5335090000000  0.5070420000000 1.0
C      1  0.5259190000000  0.4251230000000  0.4569610000000 1.0
C      1  0.4106670000000  0.4959440000000  0.4821140000000 1.0
C      1  0.5388660000000  0.4805390000000  0.5300070000000 1.0
C      1  0.4524770000000  0.4854280000000  0.5684660000000 1.0
C      1  0.4825250000000  0.4608570000000  0.5440890000000 1.0
C      1  0.4778090000000  0.4874340000000  0.5277200000000 1.0
C      1  0.5119700000000  0.4503230000000  0.5382090000000 1.0
C      1  0.5288850000000  0.4678640000000  0.5842050000000 1.0
C      1  0.5723940000000  0.4622060000000  0.4764840000000 1.0
C      1  0.5438940000000  0.4300670000000  0.5260620000000 1.0
C      1  0.4471930000000  0.5446650000000  0.5348840000000 1.0
C      1  0.5287970000000  0.5451570000000  0.5705440000000 1.0
C      1  0.5198360000000  0.4912790000000  0.4463120000000 1.0
C      1  0.4823820000000  0.4761720000000  0.4292430000000 1.0
C      1  0.5500300000000  0.4465770000000  0.4561250000000 1.0
C      1  0.4679060000000  0.4408990000000  0.5622720000000 1.0
C      1  0.4333490000000  0.4569910000000  0.5104980000000 1.0
C      1  0.4472530000000  0.5284030000000  0.4343370000000 1.0
C      1  0.5682000000000  0.5568100000000  0.4677320000000 1.0
C      1  0.5724210000000  0.5442910000000  0.4363910000000 1.0
C      1  0.5298370000000  0.5279970000000  0.5346190000000 1.0
C      1  0.5371170000000  0.5202650000000  0.4979750000000 1.0
C      1  0.4333890000000  0.5332540000000  0.5833810000000 1.0
C      1  0.4429000000000  0.5447250000000  0.4942720000000 1.0
C      1  0.5602750000000  0.5538430000000  0.5316330000000 1.0
C      1  0.4783370000000  0.4307630000000  0.5180830000000 1.0
C      1  0.4340250000000  0.4890540000000  0.5219450000000 1.0
C      1  0.4387640000000  0.4631700000000  0.4283450000000 1.0
C      1  0.5178960000000  0.4978110000000  0.5760560000000 1.0
C      1  0.5484160000000  0.4785490000000  0.4490360000000 1.0
C      1  0.4690830000000  0.5237050000000  0.4135450000000 1.0
C      1  0.5130220000000  0.4266010000000  0.4884710000000 1.0
C      1  0.5715840000000  0.4872180000000  0.4300750000000 1.0
C      1  0.4930200000000  0.4324640000000  0.4618400000000 1.0
C      1  0.4782260000000  0.4612030000000  0.5026940000000 1.0
C      1  0.4652270000000  0.4098880000000  0.4981720000000 1.0
C      1  0.4520650000000  0.5561000000000  0.4484110000000 1.0
C      1  0.5133530000000  0.5084470000000  0.4214170000000 1.0
C      1  0.4565130000000  0.5635030000000  0.4757510000000 1.0
C      1  0.5380240000000  0.5640200000000  0.5492390000000 1.0
C      1  0.4678840000000  0.4344550000000  0.4799330000000 1.0
C      1  0.5531430000000  0.4887460000000  0.4795970000000 1.0
C      1  0.5082470000000  0.5781520000000  0.4660110000000 1.0
C      1  0.5134430000000  0.5307050000000  0.4448900000000 1.0
C      1  0.4503190000000  0.4404280000000  0.5331060000000 1.0
C      1  0.5089250000000  0.4790600000000  0.5206520000000 1.0
C      1  0.5540730000000  0.4499780000000  0.5094310000000 1.0
C      1  0.4732960000000  0.5129920000000  0.5484340000000 1.0
C      1  0.5150930000000  0.4437790000000  0.5686880000000 1.0
C      1  0.4451740000000  0.5066940000000  0.4533540000000 1.0
C      1  0.5810380000000  0.5029430000000  0.5233500000000 1.0
C      1  0.4988270000000  0.5749360000000  0.4360830000000 1.0
C      1  0.4981960000000  0.5183640000000  0.4894890000000 1.0
C      1  0.4427220000000  0.4929730000000  0.4906700000000 1.0
C      1  0.4791650000000  0.5519200000000  0.4299790000000 1.0
C      1  0.5845320000000  0.5129860000000  0.4336760000000 1.0
C      1  0.4921060000000  0.5726950000000  0.5144240000000 1.0
C      1  0.4811360000000  0.5296040000000  0.4554560000000 1.0
C      1  0.5400950000000  0.5710100000000  0.4654400000000 1.0
C      1  0.5033400000000  0.5418770000000  0.5810190000000 1.0
C      1  0.4929430000000  0.4621890000000  0.4496740000000 1.0
C      1  0.5403290000000  0.5164580000000  0.5625780000000 1.0
C      1  0.5583770000000  0.5178040000000  0.4521170000000 1.0
C      1  0.5545180000000  0.4874060000000  0.5731850000000 1.0
C      1  0.5691590000000  0.5111050000000  0.4933790000000 1.0
C      1  0.5351950000000  0.4510890000000  0.4855440000000 1.0
C      1  0.4197400000000  0.5351680000000  0.5075980000000 1.0
C      1  0.4783680000000  0.5404120000000  0.5341900000000 1.0
C      1  0.5182800000000  0.5694140000000  0.4973190000000 1.0
C      1  0.4425930000000  0.5150860000000  0.5613610000000 1.0
C      1  0.4809770000000  0.5749250000000  0.4854640000000 1.0
C      1  0.4938940000000  0.4993530000000  0.4643640000000 1.0
C      1  0.5360780000000  0.5498060000000  0.5096620000000 1.0
END
