TITL C-2778432-5617-474 0.00204726325342963 125000 -853.962229796823 0 0 146 (C1) n - 1
REM
REM in /home/nfs/bkarasulu/CARBON/AIRSS/Generating-Clusters/REBO/Only-C1/SD-CG/HFTN-CG
REM
REM
REM
REM
REM
REM ./C.cell (11c1c37f851c82e70ff6c80c92926a4b)
REM
REM compiler GCC version 9.2.1 20190827 (Red Hat 9.2.1-1)
REM options -cpp -mtune=generic -march=x86-64 -g -O0 -fpre-include=/usr/include/finclude/math-vector-fortran.h
REM seed -353504217 2088849805 -1304227128 -1792586592 -2101291738 1799663334 -466165382 1204205611 796783825 -322242323 1533082171 -2022768160 -1311410886 -785730310 -91970207 321822740 612470105 -1161164612 534750898 1835081943 806290058 2052784429 -533170674 -1433748209 169378171 -389391940 1130085641 1199492236 -52776850 -271227105 1511855003 1173526690 710508580
REM
CELL 1.54180   50.00000   50.00000   50.00000   90.00000   90.00000   90.00000
LATT -1
SFAC C  
C      1  0.4711140000000  0.5868230000000  0.5189830000000 1.0
C      1  0.4614940000000  0.5559530000000  0.4603700000000 1.0
C      1  0.5653450000000  0.5614630000000  0.5126220000000 1.0
C      1  0.5170760000000  0.5933170000000  0.4812920000000 1.0
C      1  0.4190440000000  0.5276010000000  0.5668000000000 1.0
C      1  0.5286420000000  0.5904490000000  0.4563550000000 1.0
C      1  0.5460200000000  0.4807710000000  0.4052000000000 1.0
C      1  0.5073210000000  0.5035530000000  0.5949300000000 1.0
C      1  0.4923150000000  0.5344610000000  0.5949710000000 1.0
C      1  0.5015530000000  0.5375640000000  0.5034230000000 1.0
C      1  0.5652600000000  0.4112780000000  0.4863560000000 1.0
C      1  0.4785390000000  0.5221080000000  0.4035680000000 1.0
C      1  0.5001480000000  0.4795460000000  0.4393470000000 1.0
C      1  0.5854090000000  0.4277690000000  0.4688590000000 1.0
C      1  0.5510520000000  0.5616090000000  0.4124490000000 1.0
C      1  0.5135000000000  0.4300610000000  0.5092030000000 1.0
C      1  0.5834370000000  0.4412120000000  0.5056640000000 1.0
C      1  0.4926640000000  0.4499780000000  0.4667210000000 1.0
C      1  0.4025890000000  0.5497910000000  0.5221590000000 1.0
C      1  0.5737680000000  0.4953430000000  0.4463220000000 1.0
C      1  0.4740090000000  0.5210280000000  0.4924770000000 1.0
C      1  0.4893440000000  0.5416020000000  0.4718530000000 1.0
C      1  0.4855280000000  0.6044020000000  0.5614060000000 1.0
C      1  0.5074960000000  0.5300570000000  0.4484220000000 1.0
C      1  0.5432190000000  0.4768040000000  0.5749840000000 1.0
C      1  0.4411650000000  0.5919910000000  0.5697980000000 1.0
C      1  0.4934060000000  0.4592390000000  0.4131870000000 1.0
C      1  0.4171150000000  0.4714400000000  0.5487940000000 1.0
C      1  0.4451060000000  0.4606250000000  0.5861720000000 1.0
C      1  0.5190410000000  0.4582030000000  0.4730650000000 1.0
C      1  0.5766890000000  0.4859480000000  0.5186990000000 1.0
C      1  0.6373640000000  0.5038460000000  0.4772730000000 1.0
C      1  0.4898960000000  0.4536770000000  0.5130640000000 1.0
C      1  0.4087810000000  0.4852190000000  0.5252620000000 1.0
C      1  0.5963860000000  0.4574820000000  0.4787350000000 1.0
C      1  0.4472200000000  0.5325260000000  0.5034640000000 1.0
C      1  0.4260280000000  0.5192810000000  0.3864340000000 1.0
C      1  0.4719200000000  0.4975490000000  0.5403530000000 1.0
C      1  0.5182210000000  0.5632360000000  0.4148390000000 1.0
C      1  0.4790570000000  0.5310320000000  0.5404130000000 1.0
C      1  0.4543670000000  0.5085850000000  0.5951290000000 1.0
C      1  0.6139670000000  0.5463230000000  0.5050610000000 1.0
C      1  0.4219700000000  0.4575460000000  0.4309240000000 1.0
C      1  0.5447330000000  0.5432890000000  0.4537720000000 1.0
C      1  0.4600220000000  0.4119680000000  0.5581770000000 1.0
C      1  0.4401480000000  0.4305020000000  0.5603490000000 1.0
C      1  0.5359160000000  0.4425580000000  0.4941660000000 1.0
C      1  0.5010670000000  0.4706160000000  0.5883380000000 1.0
C      1  0.4607160000000  0.4154740000000  0.5183750000000 1.0
C      1  0.5300220000000  0.4252880000000  0.4532870000000 1.0
C      1  0.4474900000000  0.5424070000000  0.5637810000000 1.0
C      1  0.4622610000000  0.4683580000000  0.5257930000000 1.0
C      1  0.4211240000000  0.5049840000000  0.4657970000000 1.0
C      1  0.4469670000000  0.4608400000000  0.4188910000000 1.0
C      1  0.5297750000000  0.5204890000000  0.4245270000000 1.0
C      1  0.5105840000000  0.5656250000000  0.4955940000000 1.0
C      1  0.5165130000000  0.5530460000000  0.5977030000000 1.0
C      1  0.5776180000000  0.5215760000000  0.4277050000000 1.0
C      1  0.5219770000000  0.4504980000000  0.5694230000000 1.0
C      1  0.5585300000000  0.4210730000000  0.5440240000000 1.0
C      1  0.4480550000000  0.5187280000000  0.5409450000000 1.0
C      1  0.4896910000000  0.5886450000000  0.4966500000000 1.0
C      1  0.5471390000000  0.5283780000000  0.5666630000000 1.0
C      1  0.4888260000000  0.5538590000000  0.4118440000000 1.0
C      1  0.5541650000000  0.5177170000000  0.4611110000000 1.0
C      1  0.4398930000000  0.4535050000000  0.5436580000000 1.0
C      1  0.5555580000000  0.5334270000000  0.4166300000000 1.0
C      1  0.5960320000000  0.4576480000000  0.5499670000000 1.0
C      1  0.4774680000000  0.5620710000000  0.5418410000000 1.0
C      1  0.4140820000000  0.5537900000000  0.4965670000000 1.0
C      1  0.5698780000000  0.4480730000000  0.5524650000000 1.0
C      1  0.4167560000000  0.4539990000000  0.4815480000000 1.0
C      1  0.4041910000000  0.4688580000000  0.5023280000000 1.0
C      1  0.5318190000000  0.4204150000000  0.5558160000000 1.0
C      1  0.4799810000000  0.5319310000000  0.4343280000000 1.0
C      1  0.4429050000000  0.4835350000000  0.5049380000000 1.0
C      1  0.5208470000000  0.5042550000000  0.5349560000000 1.0
C      1  0.5586620000000  0.4475760000000  0.4710300000000 1.0
C      1  0.4563260000000  0.5927060000000  0.4256300000000 1.0
C      1  0.5012590000000  0.5773060000000  0.5581340000000 1.0
C      1  0.5676960000000  0.5760260000000  0.4605980000000 1.0
C      1  0.4654570000000  0.5339630000000  0.5872580000000 1.0
C      1  0.4616210000000  0.4881070000000  0.4156280000000 1.0
C      1  0.5610910000000  0.4650960000000  0.5005110000000 1.0
C      1  0.5310900000000  0.5274480000000  0.5905410000000 1.0
C      1  0.5199960000000  0.5004940000000  0.4494650000000 1.0
C      1  0.4237460000000  0.4774420000000  0.5766460000000 1.0
C      1  0.4409760000000  0.5653600000000  0.4819210000000 1.0
C      1  0.4711010000000  0.4941400000000  0.4788550000000 1.0
C      1  0.4566160000000  0.4229370000000  0.4713220000000 1.0
C      1  0.4974010000000  0.4804210000000  0.5416260000000 1.0
C      1  0.6102050000000  0.5048320000000  0.4801340000000 1.0
C      1  0.4336080000000  0.4203130000000  0.5222960000000 1.0
C      1  0.5595800000000  0.4745500000000  0.4284370000000 1.0
C      1  0.4673430000000  0.5697580000000  0.4327670000000 1.0
C      1  0.5985340000000  0.5257460000000  0.4960200000000 1.0
C      1  0.4750680000000  0.4322150000000  0.4495230000000 1.0
C      1  0.4284730000000  0.5094780000000  0.5191380000000 1.0
C      1  0.4725940000000  0.4943400000000  0.4456090000000 1.0
C      1  0.4671480000000  0.4055500000000  0.4919840000000 1.0
C      1  0.4219140000000  0.5277000000000  0.4813820000000 1.0
C      1  0.4575920000000  0.5231310000000  0.4550240000000 1.0
C      1  0.5480230000000  0.5718540000000  0.5657520000000 1.0
C      1  0.5244690000000  0.5548510000000  0.5460120000000 1.0
C      1  0.5411080000000  0.4567580000000  0.5408000000000 1.0
C      1  0.4708850000000  0.4568000000000  0.5805170000000 1.0
C      1  0.5304730000000  0.4941320000000  0.5039770000000 1.0
C      1  0.5160750000000  0.4498140000000  0.4342890000000 1.0
C      1  0.4932080000000  0.4914710000000  0.4019860000000 1.0
C      1  0.4842010000000  0.4236640000000  0.5413730000000 1.0
C      1  0.4478190000000  0.5641150000000  0.5152430000000 1.0
C      1  0.4723190000000  0.4630880000000  0.4873560000000 1.0
C      1  0.4762680000000  0.6119450000000  0.5363610000000 1.0
C      1  0.5280570000000  0.5646690000000  0.4447780000000 1.0
C      1  0.5998540000000  0.4760950000000  0.5300300000000 1.0
C      1  0.4035650000000  0.5003410000000  0.4456780000000 1.0
C      1  0.5254520000000  0.4858260000000  0.4744940000000 1.0
C      1  0.4398460000000  0.4858720000000  0.4749140000000 1.0
C      1  0.4457120000000  0.5697110000000  0.5488250000000 1.0
C      1  0.5091300000000  0.5316660000000  0.5324330000000 1.0
C      1  0.5643040000000  0.5771100000000  0.4333370000000 1.0
C      1  0.4900770000000  0.3889890000000  0.4907220000000 1.0
C      1  0.5448350000000  0.4997230000000  0.5544420000000 1.0
C      1  0.4639280000000  0.6040380000000  0.5799420000000 1.0
C      1  0.5471280000000  0.4528500000000  0.4431790000000 1.0
C      1  0.4760980000000  0.4909140000000  0.6001510000000 1.0
C      1  0.5237670000000  0.4969410000000  0.4053560000000 1.0
C      1  0.4692240000000  0.4430250000000  0.4231760000000 1.0
C      1  0.5660090000000  0.5135560000000  0.5347860000000 1.0
C      1  0.4083120000000  0.4546260000000  0.4543670000000 1.0
C      1  0.5940360000000  0.4841400000000  0.4677800000000 1.0
C      1  0.5114880000000  0.4107120000000  0.5360560000000 1.0
C      1  0.5110810000000  0.3970440000000  0.5057870000000 1.0
C      1  0.5201200000000  0.4675160000000  0.5208270000000 1.0
C      1  0.5716190000000  0.5227470000000  0.5047860000000 1.0
C      1  0.4017270000000  0.5369490000000  0.5464030000000 1.0
C      1  0.5515210000000  0.5124980000000  0.4887550000000 1.0
C      1  0.4445060000000  0.4472730000000  0.4841540000000 1.0
C      1  0.5675880000000  0.5699470000000  0.4871240000000 1.0
C      1  0.4479860000000  0.5122980000000  0.3979370000000 1.0
C      1  0.4906900000000  0.4511050000000  0.5550140000000 1.0
C      1  0.5566550000000  0.5460860000000  0.5389290000000 1.0
C      1  0.5689600000000  0.4164550000000  0.5168470000000 1.0
C      1  0.4278160000000  0.5047800000000  0.5834410000000 1.0
C      1  0.5401030000000  0.4092540000000  0.4724170000000 1.0
C      1  0.5225250000000  0.5743980000000  0.5806290000000 1.0
END
