TITL C-2778433-5640-975 0.00597280047105886 125000 -659.242442836136 0 0 113 (C1) n - 1
REM
REM in /home/nfs/bkarasulu/CARBON/AIRSS/Generating-Clusters/REBO/Only-C1/SD-CG/HFTN-CG
REM
REM
REM
REM
REM
REM ./C.cell (11c1c37f851c82e70ff6c80c92926a4b)
REM
REM compiler GCC version 9.2.1 20190827 (Red Hat 9.2.1-1)
REM options -cpp -mtune=generic -march=x86-64 -g -O0 -fpre-include=/usr/include/finclude/math-vector-fortran.h
REM seed 1127465096 -291107400 61864930 -1822482465 138862940 1169332199 566356442 -969113585 -637899313 -74766069 -384213168 1792743818 516984181 -843113481 1005142292 -1209489503 1514744839 -1955068019 -415401832 -1995041233 -1649423419 311728388 524326921 1087229584 -374860671 -2054861172 113440279 -469073270 -1271121749 -673577338 -1889745263 -1520928239 1461541664
REM
CELL 1.54180   50.00000   50.00000   50.00000   90.00000   90.00000   90.00000
LATT -1
SFAC C  
C      1  0.5717010000000  0.4576090000000  0.4689320000000 1.0
C      1  0.5613160000000  0.5224210000000  0.5716060000000 1.0
C      1  0.5536390000000  0.4696200000000  0.4452200000000 1.0
C      1  0.4337190000000  0.4970990000000  0.5605560000000 1.0
C      1  0.5444660000000  0.4846030000000  0.5060280000000 1.0
C      1  0.5891010000000  0.5229310000000  0.5306890000000 1.0
C      1  0.4215180000000  0.5636540000000  0.4679070000000 1.0
C      1  0.4843160000000  0.5525690000000  0.4993750000000 1.0
C      1  0.4457360000000  0.4732600000000  0.4365350000000 1.0
C      1  0.4696020000000  0.5934380000000  0.4697810000000 1.0
C      1  0.5869960000000  0.5046350000000  0.4813930000000 1.0
C      1  0.4668570000000  0.5689770000000  0.4544830000000 1.0
C      1  0.5344390000000  0.5789550000000  0.5490950000000 1.0
C      1  0.4915250000000  0.4158750000000  0.5368560000000 1.0
C      1  0.4991820000000  0.4698800000000  0.4543150000000 1.0
C      1  0.5247050000000  0.4883910000000  0.4844780000000 1.0
C      1  0.5352220000000  0.5554960000000  0.4434680000000 1.0
C      1  0.5092180000000  0.5217950000000  0.3995920000000 1.0
C      1  0.5754670000000  0.5155850000000  0.4569510000000 1.0
C      1  0.4906400000000  0.5221410000000  0.5012430000000 1.0
C      1  0.5064030000000  0.4440150000000  0.5603260000000 1.0
C      1  0.5427060000000  0.5694670000000  0.4744700000000 1.0
C      1  0.5456700000000  0.5745280000000  0.5117070000000 1.0
C      1  0.5149490000000  0.4986170000000  0.4315280000000 1.0
C      1  0.4712260000000  0.5198660000000  0.5898480000000 1.0
C      1  0.4939780000000  0.4901320000000  0.4953850000000 1.0
C      1  0.5868280000000  0.5259320000000  0.5019710000000 1.0
C      1  0.4169110000000  0.5189400000000  0.5131810000000 1.0
C      1  0.5113100000000  0.4402890000000  0.4303240000000 1.0
C      1  0.5845240000000  0.4939700000000  0.5360620000000 1.0
C      1  0.4500920000000  0.4735400000000  0.5550990000000 1.0
C      1  0.3959580000000  0.5212730000000  0.5337150000000 1.0
C      1  0.5176390000000  0.5196870000000  0.4830300000000 1.0
C      1  0.4651170000000  0.4904110000000  0.4585070000000 1.0
C      1  0.5170030000000  0.5620340000000  0.4970130000000 1.0
C      1  0.4938210000000  0.4561980000000  0.4914620000000 1.0
C      1  0.4923550000000  0.5567860000000  0.4539330000000 1.0
C      1  0.4987450000000  0.5949020000000  0.5105720000000 1.0
C      1  0.4967400000000  0.4265040000000  0.4784440000000 1.0
C      1  0.4964390000000  0.5959650000000  0.4811910000000 1.0
C      1  0.5023440000000  0.5271080000000  0.5928130000000 1.0
C      1  0.4782570000000  0.5092970000000  0.5276080000000 1.0
C      1  0.4473460000000  0.5168160000000  0.5288410000000 1.0
C      1  0.5481770000000  0.4538440000000  0.5121630000000 1.0
C      1  0.4817190000000  0.5741740000000  0.5228730000000 1.0
C      1  0.5245570000000  0.5305800000000  0.4268570000000 1.0
C      1  0.5060770000000  0.4874260000000  0.5461570000000 1.0
C      1  0.4574900000000  0.4110080000000  0.4659240000000 1.0
C      1  0.4092770000000  0.4772660000000  0.5223690000000 1.0
C      1  0.4629870000000  0.5136220000000  0.4065030000000 1.0
C      1  0.5790680000000  0.4681490000000  0.5168260000000 1.0
C      1  0.4885220000000  0.5035530000000  0.4019560000000 1.0
C      1  0.5607660000000  0.5620360000000  0.5381780000000 1.0
C      1  0.5273420000000  0.4633710000000  0.4658560000000 1.0
C      1  0.4550710000000  0.4426630000000  0.4992440000000 1.0
C      1  0.4389580000000  0.5495460000000  0.5240220000000 1.0
C      1  0.4524170000000  0.4553980000000  0.5264230000000 1.0
C      1  0.5242200000000  0.5958810000000  0.5237600000000 1.0
C      1  0.5242910000000  0.4254580000000  0.5406380000000 1.0
C      1  0.5558560000000  0.4896210000000  0.5627480000000 1.0
C      1  0.5286990000000  0.4353400000000  0.4821860000000 1.0
C      1  0.5559140000000  0.5016770000000  0.5246270000000 1.0
C      1  0.5288290000000  0.5237510000000  0.5821610000000 1.0
C      1  0.4560010000000  0.4379690000000  0.4515300000000 1.0
C      1  0.4989400000000  0.4269680000000  0.4471180000000 1.0
C      1  0.4262240000000  0.4542550000000  0.4523830000000 1.0
C      1  0.4167190000000  0.4817930000000  0.4949970000000 1.0
C      1  0.5061940000000  0.5302860000000  0.4541130000000 1.0
C      1  0.5334460000000  0.4694100000000  0.5456280000000 1.0
C      1  0.5149030000000  0.5782090000000  0.4605400000000 1.0
C      1  0.4857910000000  0.4768580000000  0.5244210000000 1.0
C      1  0.5386410000000  0.5285120000000  0.5310280000000 1.0
C      1  0.4885460000000  0.4075550000000  0.5054950000000 1.0
C      1  0.4283810000000  0.5580790000000  0.4933120000000 1.0
C      1  0.4486470000000  0.5240560000000  0.5697370000000 1.0
C      1  0.4401090000000  0.5371000000000  0.4289500000000 1.0
C      1  0.4492830000000  0.4854250000000  0.5169610000000 1.0
C      1  0.4762770000000  0.4446900000000  0.5467390000000 1.0
C      1  0.4963650000000  0.4751060000000  0.4149530000000 1.0
C      1  0.5634010000000  0.5455090000000  0.4597800000000 1.0
C      1  0.5140500000000  0.4560350000000  0.5823290000000 1.0
C      1  0.5652540000000  0.5416520000000  0.4915910000000 1.0
C      1  0.5277790000000  0.4678070000000  0.4262140000000 1.0
C      1  0.5655500000000  0.4609210000000  0.5472170000000 1.0
C      1  0.4753630000000  0.4693380000000  0.5703810000000 1.0
C      1  0.4541360000000  0.5371590000000  0.4954440000000 1.0
C      1  0.4129150000000  0.4643910000000  0.4733810000000 1.0
C      1  0.4503350000000  0.5410040000000  0.3996270000000 1.0
C      1  0.5246460000000  0.5500900000000  0.5501390000000 1.0
C      1  0.4515760000000  0.5484050000000  0.5527360000000 1.0
C      1  0.4411260000000  0.5583000000000  0.4478640000000 1.0
C      1  0.4761220000000  0.4588580000000  0.4342870000000 1.0
C      1  0.5610450000000  0.4336840000000  0.4803970000000 1.0
C      1  0.4934080000000  0.5014330000000  0.4570940000000 1.0
C      1  0.4612660000000  0.4152650000000  0.4929990000000 1.0
C      1  0.4651180000000  0.4623280000000  0.4738720000000 1.0
C      1  0.4839530000000  0.3926090000000  0.5553490000000 1.0
C      1  0.4089780000000  0.4959270000000  0.5447970000000 1.0
C      1  0.5558970000000  0.4308660000000  0.5438000000000 1.0
C      1  0.5198660000000  0.4158170000000  0.5088430000000 1.0
C      1  0.4858530000000  0.4930870000000  0.5800120000000 1.0
C      1  0.4908490000000  0.5162820000000  0.5555110000000 1.0
C      1  0.5835810000000  0.4763670000000  0.4869470000000 1.0
C      1  0.5665400000000  0.4973150000000  0.4390260000000 1.0
C      1  0.5374930000000  0.5368140000000  0.5019140000000 1.0
C      1  0.5731120000000  0.5388480000000  0.5493600000000 1.0
C      1  0.4773650000000  0.5614880000000  0.5489260000000 1.0
C      1  0.5151460000000  0.4605190000000  0.5180160000000 1.0
C      1  0.5295400000000  0.5079590000000  0.5537020000000 1.0
C      1  0.4985420000000  0.5444700000000  0.5570320000000 1.0
C      1  0.5524580000000  0.4218390000000  0.5111790000000 1.0
C      1  0.4471490000000  0.5054730000000  0.4339280000000 1.0
C      1  0.4401580000000  0.5062980000000  0.4913900000000 1.0
END
