TITL C-2778424-3986-36 -0.00468044859186639 125000 -1052.93822796777 0 0 181 (C1) n - 1
REM
REM in /home/nfs/bkarasulu/CARBON/AIRSS/Generating-Clusters/REBO/Only-C1/SD-CG/HFTN-CG
REM
REM
REM
REM
REM
REM ./C.cell (11c1c37f851c82e70ff6c80c92926a4b)
REM
REM compiler GCC version 9.2.1 20190827 (Red Hat 9.2.1-1)
REM options -cpp -mtune=generic -march=x86-64 -g -O0 -fpre-include=/usr/include/finclude/math-vector-fortran.h
REM seed -52024272 713281391 -904109649 -1978842782 -1254258075 1906864870 -887424022 645554480 1387946568 -481289893 554263921 81139885 -1231549221 -1249736753 -69692227 -358192791 -433586938 -141825845 444869852 853566161 505437994 1529142893 705300439 1316160574 2072422160 1628113986 -1420972232 -959158249 -551299001 1219839040 -998669076 157636492 196514259
REM
CELL 1.54180   50.00000   50.00000   50.00000   90.00000   90.00000   90.00000
LATT -1
SFAC C  
C      1  0.5243690000000  0.5932790000000  0.4595950000000 1.0
C      1  0.4424330000000  0.4462890000000  0.5750460000000 1.0
C      1  0.4094520000000  0.5320870000000  0.4466610000000 1.0
C      1  0.5315110000000  0.5361930000000  0.5668610000000 1.0
C      1  0.4302650000000  0.5628350000000  0.5128550000000 1.0
C      1  0.4860730000000  0.6047340000000  0.5325410000000 1.0
C      1  0.5052820000000  0.5102560000000  0.3983600000000 1.0
C      1  0.4587320000000  0.4522960000000  0.5469360000000 1.0
C      1  0.4877950000000  0.3949680000000  0.5327640000000 1.0
C      1  0.5429870000000  0.4809890000000  0.4013440000000 1.0
C      1  0.5398720000000  0.5162000000000  0.4409930000000 1.0
C      1  0.5808720000000  0.5333860000000  0.4740300000000 1.0
C      1  0.4733220000000  0.4945170000000  0.4575010000000 1.0
C      1  0.5311960000000  0.4948730000000  0.4644290000000 1.0
C      1  0.4991610000000  0.4196950000000  0.3915350000000 1.0
C      1  0.5090660000000  0.4224810000000  0.4156380000000 1.0
C      1  0.5553720000000  0.5528640000000  0.5171220000000 1.0
C      1  0.5756780000000  0.5166580000000  0.5881550000000 1.0
C      1  0.5273840000000  0.6063950000000  0.4862140000000 1.0
C      1  0.5829230000000  0.4703300000000  0.5630380000000 1.0
C      1  0.5498720000000  0.4335810000000  0.5507180000000 1.0
C      1  0.4361730000000  0.4201970000000  0.4538430000000 1.0
C      1  0.4686560000000  0.4794970000000  0.6154430000000 1.0
C      1  0.5972800000000  0.4892650000000  0.5311440000000 1.0
C      1  0.4069110000000  0.4392680000000  0.4881260000000 1.0
C      1  0.5699660000000  0.5242090000000  0.5412120000000 1.0
C      1  0.4788510000000  0.4448310000000  0.5086210000000 1.0
C      1  0.5436590000000  0.5541710000000  0.5441910000000 1.0
C      1  0.4329020000000  0.5343310000000  0.5511480000000 1.0
C      1  0.4195840000000  0.5324810000000  0.5024330000000 1.0
C      1  0.5724240000000  0.4807190000000  0.4156020000000 1.0
C      1  0.4403910000000  0.5314130000000  0.5948780000000 1.0
C      1  0.4495690000000  0.5297470000000  0.4085980000000 1.0
C      1  0.4953060000000  0.5889370000000  0.4544340000000 1.0
C      1  0.4969580000000  0.4467910000000  0.5371830000000 1.0
C      1  0.4194400000000  0.4541970000000  0.5508200000000 1.0
C      1  0.4613410000000  0.5485510000000  0.5947380000000 1.0
C      1  0.4091100000000  0.4856970000000  0.5428060000000 1.0
C      1  0.5418010000000  0.4643430000000  0.5140160000000 1.0
C      1  0.5537290000000  0.5344410000000  0.4947100000000 1.0
C      1  0.5032010000000  0.4705450000000  0.5057160000000 1.0
C      1  0.5153340000000  0.4907590000000  0.5550310000000 1.0
C      1  0.4428930000000  0.5444960000000  0.4807420000000 1.0
C      1  0.4418340000000  0.4569780000000  0.4319950000000 1.0
C      1  0.5907850000000  0.4752960000000  0.4598910000000 1.0
C      1  0.5417460000000  0.5550660000000  0.4324010000000 1.0
C      1  0.5177350000000  0.4221190000000  0.5865910000000 1.0
C      1  0.5506200000000  0.5756630000000  0.6041370000000 1.0
C      1  0.4562750000000  0.5758700000000  0.5567740000000 1.0
C      1  0.5285860000000  0.5144080000000  0.4911650000000 1.0
C      1  0.4175140000000  0.5615510000000  0.4546220000000 1.0
C      1  0.4986640000000  0.5359670000000  0.4117190000000 1.0
C      1  0.4324240000000  0.5620850000000  0.5441840000000 1.0
C      1  0.4635100000000  0.4422410000000  0.4189980000000 1.0
C      1  0.5110020000000  0.4083180000000  0.4761050000000 1.0
C      1  0.4823560000000  0.5905740000000  0.5566370000000 1.0
C      1  0.4990840000000  0.6153220000000  0.4963230000000 1.0
C      1  0.4432100000000  0.5766070000000  0.4693430000000 1.0
C      1  0.5496150000000  0.5134300000000  0.5738820000000 1.0
C      1  0.4554940000000  0.4048260000000  0.5308840000000 1.0
C      1  0.4983910000000  0.5121790000000  0.5358660000000 1.0
C      1  0.5293390000000  0.5613330000000  0.5887470000000 1.0
C      1  0.5804450000000  0.4618510000000  0.5057660000000 1.0
C      1  0.3982650000000  0.4772590000000  0.4968410000000 1.0
C      1  0.4572700000000  0.5423480000000  0.4544910000000 1.0
C      1  0.5245160000000  0.4450650000000  0.4617770000000 1.0
C      1  0.4228500000000  0.5007550000000  0.4467740000000 1.0
C      1  0.4070860000000  0.4531850000000  0.5194190000000 1.0
C      1  0.5097760000000  0.5343100000000  0.4441370000000 1.0
C      1  0.4103220000000  0.4162850000000  0.4713870000000 1.0
C      1  0.4174220000000  0.5002300000000  0.5130160000000 1.0
C      1  0.4153720000000  0.5160600000000  0.4756870000000 1.0
C      1  0.4645030000000  0.4824560000000  0.5522700000000 1.0
C      1  0.4492960000000  0.4667030000000  0.5990900000000 1.0
C      1  0.4855980000000  0.4881710000000  0.4030210000000 1.0
C      1  0.5246940000000  0.4709090000000  0.5820010000000 1.0
C      1  0.5149650000000  0.4442840000000  0.4925670000000 1.0
C      1  0.5012200000000  0.5293960000000  0.5638540000000 1.0
C      1  0.5158440000000  0.5365680000000  0.5218770000000 1.0
C      1  0.4038890000000  0.4657080000000  0.4684540000000 1.0
C      1  0.6068110000000  0.5007950000000  0.5041730000000 1.0
C      1  0.5285080000000  0.4436690000000  0.5301980000000 1.0
C      1  0.4705540000000  0.5471810000000  0.4048970000000 1.0
C      1  0.3824540000000  0.4842900000000  0.5235340000000 1.0
C      1  0.5087790000000  0.5102280000000  0.6103070000000 1.0
C      1  0.5542510000000  0.4492280000000  0.4880430000000 1.0
C      1  0.5952190000000  0.5197340000000  0.4471210000000 1.0
C      1  0.4818600000000  0.5019700000000  0.6034120000000 1.0
C      1  0.3881880000000  0.4754210000000  0.4450400000000 1.0
C      1  0.5195470000000  0.4254120000000  0.4411390000000 1.0
C      1  0.4887810000000  0.4343680000000  0.4756210000000 1.0
C      1  0.5225480000000  0.5753370000000  0.5149610000000 1.0
C      1  0.5938020000000  0.4556410000000  0.5365700000000 1.0
C      1  0.4532000000000  0.4672590000000  0.4879460000000 1.0
C      1  0.5489400000000  0.5297010000000  0.4117200000000 1.0
C      1  0.5742530000000  0.5144350000000  0.4206720000000 1.0
C      1  0.5260080000000  0.4916360000000  0.5142340000000 1.0
C      1  0.6010420000000  0.4895860000000  0.4318340000000 1.0
C      1  0.4431420000000  0.5746620000000  0.4358280000000 1.0
C      1  0.5274530000000  0.4889750000000  0.6072220000000 1.0
C      1  0.4463750000000  0.5027240000000  0.4715220000000 1.0
C      1  0.5515260000000  0.5788250000000  0.4706210000000 1.0
C      1  0.5482060000000  0.4883580000000  0.5552640000000 1.0
C      1  0.5328490000000  0.5066920000000  0.3968890000000 1.0
C      1  0.5926790000000  0.5400590000000  0.5221310000000 1.0
C      1  0.5144920000000  0.5636110000000  0.4174630000000 1.0
C      1  0.4632980000000  0.5254340000000  0.5497360000000 1.0
C      1  0.5109940000000  0.5785630000000  0.5675290000000 1.0
C      1  0.5775490000000  0.4209530000000  0.5053330000000 1.0
C      1  0.4461230000000  0.4860510000000  0.5768510000000 1.0
C      1  0.5045600000000  0.5615520000000  0.5403700000000 1.0
C      1  0.5739710000000  0.5790430000000  0.5178600000000 1.0
C      1  0.4676700000000  0.4872000000000  0.4306630000000 1.0
C      1  0.4358140000000  0.4454540000000  0.5022190000000 1.0
C      1  0.4863060000000  0.5560870000000  0.4567370000000 1.0
C      1  0.4557020000000  0.6286970000000  0.4662390000000 1.0
C      1  0.5615120000000  0.4069560000000  0.4547110000000 1.0
C      1  0.5140480000000  0.4194030000000  0.5140780000000 1.0
C      1  0.4701470000000  0.5958980000000  0.5076440000000 1.0
C      1  0.4600040000000  0.4162500000000  0.4303150000000 1.0
C      1  0.5447820000000  0.4685710000000  0.4616330000000 1.0
C      1  0.5749130000000  0.4309480000000  0.5305260000000 1.0
C      1  0.4881750000000  0.5500930000000  0.5876860000000 1.0
C      1  0.5641810000000  0.4814060000000  0.5296140000000 1.0
C      1  0.4088730000000  0.5677360000000  0.4869840000000 1.0
C      1  0.5298920000000  0.4114190000000  0.5608000000000 1.0
C      1  0.4661280000000  0.5723010000000  0.4183900000000 1.0
C      1  0.4819710000000  0.4857140000000  0.4890360000000 1.0
C      1  0.4744700000000  0.4353120000000  0.5690720000000 1.0
C      1  0.5128800000000  0.5369040000000  0.6022430000000 1.0
C      1  0.5290860000000  0.5539240000000  0.4648170000000 1.0
C      1  0.5141730000000  0.6052690000000  0.5235760000000 1.0
C      1  0.5418340000000  0.4174910000000  0.4877810000000 1.0
C      1  0.5427120000000  0.5826920000000  0.5577100000000 1.0
C      1  0.5834510000000  0.5548100000000  0.5481530000000 1.0
C      1  0.5015130000000  0.5080650000000  0.4624130000000 1.0
C      1  0.4518720000000  0.6004730000000  0.4818490000000 1.0
C      1  0.5998480000000  0.5273490000000  0.4990880000000 1.0
C      1  0.4391320000000  0.5349180000000  0.4340830000000 1.0
C      1  0.4135660000000  0.5128120000000  0.5578990000000 1.0
C      1  0.4817730000000  0.5479640000000  0.4894790000000 1.0
C      1  0.4742110000000  0.5544910000000  0.5392620000000 1.0
C      1  0.4978980000000  0.3920040000000  0.5017910000000 1.0
C      1  0.4944410000000  0.5175510000000  0.4924440000000 1.0
C      1  0.4670120000000  0.5023170000000  0.5272860000000 1.0
C      1  0.4923890000000  0.5815380000000  0.4253410000000 1.0
C      1  0.4931410000000  0.4589840000000  0.4188700000000 1.0
C      1  0.5696840000000  0.4333280000000  0.4407710000000 1.0
C      1  0.4301670000000  0.5087380000000  0.5817050000000 1.0
C      1  0.4342830000000  0.4855630000000  0.4242120000000 1.0
C      1  0.5853250000000  0.5023320000000  0.5599940000000 1.0
C      1  0.4400030000000  0.4339880000000  0.5308920000000 1.0
C      1  0.4538970000000  0.5006230000000  0.4029060000000 1.0
C      1  0.5224490000000  0.3932000000000  0.5333180000000 1.0
C      1  0.4626580000000  0.4010100000000  0.4579440000000 1.0
C      1  0.4863530000000  0.4486390000000  0.4507050000000 1.0
C      1  0.5670450000000  0.5556870000000  0.4551200000000 1.0
C      1  0.4347620000000  0.4530540000000  0.4630200000000 1.0
C      1  0.4814570000000  0.6093410000000  0.4717550000000 1.0
C      1  0.4650890000000  0.4176730000000  0.5043800000000 1.0
C      1  0.5418000000000  0.5173180000000  0.5287980000000 1.0
C      1  0.4976680000000  0.4178360000000  0.5523730000000 1.0
C      1  0.5147890000000  0.5519270000000  0.4925290000000 1.0
C      1  0.5716460000000  0.5823160000000  0.5487220000000 1.0
C      1  0.5802410000000  0.4208670000000  0.4771360000000 1.0
C      1  0.5024120000000  0.4470230000000  0.5827560000000 1.0
C      1  0.4748610000000  0.5137200000000  0.5786140000000 1.0
C      1  0.5244790000000  0.4593130000000  0.4139220000000 1.0
C      1  0.3844030000000  0.5766750000000  0.4921640000000 1.0
C      1  0.5338830000000  0.4011400000000  0.4529980000000 1.0
C      1  0.5903520000000  0.4450090000000  0.4588890000000 1.0
C      1  0.4930030000000  0.4690020000000  0.5580940000000 1.0
C      1  0.5531340000000  0.4580920000000  0.4321120000000 1.0
C      1  0.4728060000000  0.3984510000000  0.4826700000000 1.0
C      1  0.4641190000000  0.5639070000000  0.5098910000000 1.0
C      1  0.5977940000000  0.4790770000000  0.4882570000000 1.0
C      1  0.5536340000000  0.4583860000000  0.5699300000000 1.0
C      1  0.4472330000000  0.4964450000000  0.5047340000000 1.0
C      1  0.5462050000000  0.3965440000000  0.5097810000000 1.0
C      1  0.5680270000000  0.4991330000000  0.4507790000000 1.0
C      1  0.5502460000000  0.5890850000000  0.5011960000000 1.0
END
