TITL C-2778433-5640-1015 -0.000155277033660769 125000 -494.907170725814 0 0 87 (C1) n - 1
REM
REM in /home/nfs/bkarasulu/CARBON/AIRSS/Generating-Clusters/REBO/Only-C1/SD-CG/HFTN-CG
REM
REM
REM
REM
REM
REM ./C.cell (11c1c37f851c82e70ff6c80c92926a4b)
REM
REM compiler GCC version 9.2.1 20190827 (Red Hat 9.2.1-1)
REM options -cpp -mtune=generic -march=x86-64 -g -O0 -fpre-include=/usr/include/finclude/math-vector-fortran.h
REM seed -1377619925 82177760 -1126616302 1168969110 195624208 1294154093 1986790906 262351820 -878244793 1931375370 -472278257 2050239093 1724531594 394632777 557680116 -1916493044 2112668622 471611794 1402751304 716127508 -2050313208 854364594 -1696441239 -1104206651 -2133045173 -1103639211 1557344957 -292675808 -1533339699 500401440 1323639015 -726109620 1915585840
REM
CELL 1.54180   50.00000   50.00000   50.00000   90.00000   90.00000   90.00000
LATT -1
SFAC C  
C      1  0.5212930000000  0.4263610000000  0.5236460000000 1.0
C      1  0.4711480000000  0.5674850000000  0.5517850000000 1.0
C      1  0.4972470000000  0.5177260000000  0.5241890000000 1.0
C      1  0.4464560000000  0.4264930000000  0.5907020000000 1.0
C      1  0.4186420000000  0.4738030000000  0.4871440000000 1.0
C      1  0.4209820000000  0.5042810000000  0.4986460000000 1.0
C      1  0.5308920000000  0.5217350000000  0.5655610000000 1.0
C      1  0.4842490000000  0.4498350000000  0.5794450000000 1.0
C      1  0.5049130000000  0.5712910000000  0.5548030000000 1.0
C      1  0.5448560000000  0.4289610000000  0.5170240000000 1.0
C      1  0.4890840000000  0.5458690000000  0.5710020000000 1.0
C      1  0.4975360000000  0.4261880000000  0.4670810000000 1.0
C      1  0.5683880000000  0.5622930000000  0.5060310000000 1.0
C      1  0.4421930000000  0.5633560000000  0.5054500000000 1.0
C      1  0.4402750000000  0.4853930000000  0.5185590000000 1.0
C      1  0.5089820000000  0.5254150000000  0.5815670000000 1.0
C      1  0.4597230000000  0.5308230000000  0.5205350000000 1.0
C      1  0.4960480000000  0.4741290000000  0.5844580000000 1.0
C      1  0.4491050000000  0.4345900000000  0.4664150000000 1.0
C      1  0.4505780000000  0.4967540000000  0.4125860000000 1.0
C      1  0.5254580000000  0.5630660000000  0.4570090000000 1.0
C      1  0.4550000000000  0.4418360000000  0.4395760000000 1.0
C      1  0.5717650000000  0.5394260000000  0.4860040000000 1.0
C      1  0.5492150000000  0.4324800000000  0.4339130000000 1.0
C      1  0.5783680000000  0.4766410000000  0.5192010000000 1.0
C      1  0.4617720000000  0.5347610000000  0.5539130000000 1.0
C      1  0.5141920000000  0.4992890000000  0.4723110000000 1.0
C      1  0.5381980000000  0.4831430000000  0.5586310000000 1.0
C      1  0.4663720000000  0.5635150000000  0.4920220000000 1.0
C      1  0.4723830000000  0.4623970000000  0.4356920000000 1.0
C      1  0.5427120000000  0.4975260000000  0.5002330000000 1.0
C      1  0.4911500000000  0.4904320000000  0.5369100000000 1.0
C      1  0.5101750000000  0.5526760000000  0.3828750000000 1.0
C      1  0.4863200000000  0.5628160000000  0.4651790000000 1.0
C      1  0.4947520000000  0.4676550000000  0.5143530000000 1.0
C      1  0.4927510000000  0.4387490000000  0.5257040000000 1.0
C      1  0.5187240000000  0.4449510000000  0.4695430000000 1.0
C      1  0.4719930000000  0.4237440000000  0.4799950000000 1.0
C      1  0.5366260000000  0.5644380000000  0.5485440000000 1.0
C      1  0.5614840000000  0.5454420000000  0.5350790000000 1.0
C      1  0.5619240000000  0.4518460000000  0.5042270000000 1.0
C      1  0.4565920000000  0.5259910000000  0.4258810000000 1.0
C      1  0.4525880000000  0.5132030000000  0.4715960000000 1.0
C      1  0.5454140000000  0.4426170000000  0.4589460000000 1.0
C      1  0.5428220000000  0.5755150000000  0.5170180000000 1.0
C      1  0.4231150000000  0.5044550000000  0.4281080000000 1.0
C      1  0.5023330000000  0.5485240000000  0.4068680000000 1.0
C      1  0.4294300000000  0.4504280000000  0.4793670000000 1.0
C      1  0.5674340000000  0.4506880000000  0.4747890000000 1.0
C      1  0.5284070000000  0.4661610000000  0.5357150000000 1.0
C      1  0.4303370000000  0.5311770000000  0.4437790000000 1.0
C      1  0.5459600000000  0.5037330000000  0.4699380000000 1.0
C      1  0.5227560000000  0.5358870000000  0.5362420000000 1.0
C      1  0.4462160000000  0.4421960000000  0.5697210000000 1.0
C      1  0.5647460000000  0.4901520000000  0.5404900000000 1.0
C      1  0.4991130000000  0.5063280000000  0.4446760000000 1.0
C      1  0.6131340000000  0.4522910000000  0.4539870000000 1.0
C      1  0.5212930000000  0.5640590000000  0.4844660000000 1.0
C      1  0.4788940000000  0.4856700000000  0.4570640000000 1.0
C      1  0.5941750000000  0.4653100000000  0.4691520000000 1.0
C      1  0.5000040000000  0.5580880000000  0.4382950000000 1.0
C      1  0.4290530000000  0.4547120000000  0.5236400000000 1.0
C      1  0.4832510000000  0.4379520000000  0.5552260000000 1.0
C      1  0.4607880000000  0.5044670000000  0.5018800000000 1.0
C      1  0.5096650000000  0.5744200000000  0.5211230000000 1.0
C      1  0.4729600000000  0.4225210000000  0.5081160000000 1.0
C      1  0.4493560000000  0.4930540000000  0.4469080000000 1.0
C      1  0.4762560000000  0.5334320000000  0.4790380000000 1.0
C      1  0.5395250000000  0.4725140000000  0.5110580000000 1.0
C      1  0.5966940000000  0.4836480000000  0.4979430000000 1.0
C      1  0.5102870000000  0.4695460000000  0.4840850000000 1.0
C      1  0.5221410000000  0.5398100000000  0.5023970000000 1.0
C      1  0.5930630000000  0.4988510000000  0.4699070000000 1.0
C      1  0.4237770000000  0.5282210000000  0.4745520000000 1.0
C      1  0.4868340000000  0.5292590000000  0.4293880000000 1.0
C      1  0.4806740000000  0.4846100000000  0.4884310000000 1.0
C      1  0.5086470000000  0.4875580000000  0.5629720000000 1.0
C      1  0.4527820000000  0.5096120000000  0.5639420000000 1.0
C      1  0.4865500000000  0.5500260000000  0.5266100000000 1.0
C      1  0.5504650000000  0.5269830000000  0.5089620000000 1.0
C      1  0.5714590000000  0.5170320000000  0.4673260000000 1.0
C      1  0.4459630000000  0.4587070000000  0.5476620000000 1.0
C      1  0.4292610000000  0.5363470000000  0.5064510000000 1.0
C      1  0.5003720000000  0.5192910000000  0.4914630000000 1.0
C      1  0.4946720000000  0.5809390000000  0.4931260000000 1.0
C      1  0.5558980000000  0.5176590000000  0.5489870000000 1.0
C      1  0.4609250000000  0.4867500000000  0.5451690000000 1.0
END
