TITL C-2778434-4341-826 0.00352139021960743 125000 -971.929900439742 0 0 171 (C1) n - 1
REM
REM in /home/nfs/bkarasulu/CARBON/AIRSS/Generating-Clusters/REBO/Only-C1/SD-CG/HFTN-CG
REM
REM
REM
REM
REM
REM ./C.cell (11c1c37f851c82e70ff6c80c92926a4b)
REM
REM compiler GCC version 9.2.1 20190827 (Red Hat 9.2.1-1)
REM options -cpp -mtune=generic -march=x86-64 -g -O0 -fpre-include=/usr/include/finclude/math-vector-fortran.h
REM seed -1901433512 -2126841619 1732191303 1096880542 -1664474074 605064790 1302435966 54109545 1125857705 82201775 -716328373 -1946260003 975339891 -2146995981 -1354716264 -954104237 1873766559 159536451 -512155256 494777541 -84362298 1592534075 -2067391222 275471330 -1349621135 -817652527 -35366431 -1060507953 -1412694617 1231622851 254994226 1930122739 -49033555
REM
CELL 1.54180   50.00000   50.00000   50.00000   90.00000   90.00000   90.00000
LATT -1
SFAC C  
C      1  0.5743440000000  0.5459890000000  0.4297460000000 1.0
C      1  0.5404580000000  0.4953910000000  0.4522300000000 1.0
C      1  0.5062390000000  0.4738710000000  0.3976200000000 1.0
C      1  0.5924900000000  0.4915360000000  0.5569410000000 1.0
C      1  0.4157070000000  0.4453430000000  0.5441300000000 1.0
C      1  0.4918120000000  0.5495130000000  0.5270480000000 1.0
C      1  0.4141720000000  0.4752160000000  0.5858060000000 1.0
C      1  0.4568740000000  0.6105690000000  0.5238930000000 1.0
C      1  0.4773380000000  0.4346810000000  0.4530040000000 1.0
C      1  0.5095980000000  0.6216050000000  0.4941440000000 1.0
C      1  0.5419500000000  0.3993520000000  0.4932800000000 1.0
C      1  0.5092840000000  0.5785860000000  0.5235530000000 1.0
C      1  0.4247190000000  0.4577220000000  0.4458150000000 1.0
C      1  0.5172600000000  0.4195850000000  0.4242950000000 1.0
C      1  0.4849400000000  0.4405150000000  0.5252030000000 1.0
C      1  0.5520350000000  0.4558380000000  0.5206850000000 1.0
C      1  0.5731360000000  0.4703660000000  0.5003020000000 1.0
C      1  0.4352810000000  0.5103140000000  0.4300080000000 1.0
C      1  0.3921190000000  0.4736310000000  0.5029340000000 1.0
C      1  0.4207720000000  0.5403270000000  0.5492280000000 1.0
C      1  0.5505350000000  0.4779730000000  0.5680390000000 1.0
C      1  0.4555550000000  0.4639430000000  0.5604090000000 1.0
C      1  0.4733460000000  0.4681310000000  0.4045070000000 1.0
C      1  0.4180630000000  0.5619250000000  0.4851630000000 1.0
C      1  0.4598940000000  0.5629600000000  0.5305210000000 1.0
C      1  0.4631250000000  0.5213930000000  0.5070390000000 1.0
C      1  0.4308090000000  0.4294040000000  0.4967470000000 1.0
C      1  0.4560590000000  0.5220070000000  0.4761390000000 1.0
C      1  0.5035970000000  0.5833300000000  0.5767410000000 1.0
C      1  0.5678940000000  0.5454910000000  0.4778390000000 1.0
C      1  0.4036810000000  0.4965000000000  0.5254810000000 1.0
C      1  0.5558140000000  0.5022370000000  0.5455400000000 1.0
C      1  0.4036550000000  0.5051640000000  0.5781960000000 1.0
C      1  0.5154720000000  0.5036840000000  0.4224670000000 1.0
C      1  0.5395270000000  0.4357510000000  0.4403410000000 1.0
C      1  0.5502550000000  0.4945880000000  0.5962750000000 1.0
C      1  0.5844170000000  0.4684350000000  0.4253520000000 1.0
C      1  0.4276760000000  0.4636390000000  0.5618390000000 1.0
C      1  0.5877680000000  0.4697070000000  0.5311580000000 1.0
C      1  0.4508130000000  0.5861700000000  0.5126850000000 1.0
C      1  0.5291530000000  0.4096040000000  0.5230570000000 1.0
C      1  0.5659970000000  0.4623920000000  0.4535930000000 1.0
C      1  0.4597340000000  0.5323400000000  0.5450060000000 1.0
C      1  0.5220810000000  0.5570310000000  0.4713150000000 1.0
C      1  0.5021980000000  0.4427260000000  0.6020250000000 1.0
C      1  0.5584490000000  0.4235590000000  0.5191870000000 1.0
C      1  0.5849560000000  0.5750950000000  0.5092960000000 1.0
C      1  0.4454960000000  0.4067180000000  0.5427000000000 1.0
C      1  0.3637580000000  0.4636120000000  0.5041450000000 1.0
C      1  0.4830700000000  0.4892330000000  0.4367740000000 1.0
C      1  0.5734690000000  0.5589860000000  0.5300340000000 1.0
C      1  0.4787780000000  0.4077830000000  0.5497020000000 1.0
C      1  0.5883700000000  0.5233160000000  0.4512500000000 1.0
C      1  0.4174700000000  0.5116000000000  0.4912480000000 1.0
C      1  0.4426730000000  0.5813000000000  0.4819360000000 1.0
C      1  0.5658990000000  0.5734730000000  0.4878540000000 1.0
C      1  0.4540090000000  0.3849550000000  0.4534400000000 1.0
C      1  0.5105370000000  0.4402680000000  0.4577860000000 1.0
C      1  0.4813390000000  0.5096860000000  0.5325790000000 1.0
C      1  0.5243970000000  0.5373920000000  0.5710470000000 1.0
C      1  0.4779790000000  0.4892110000000  0.5997140000000 1.0
C      1  0.5038580000000  0.4023480000000  0.4432740000000 1.0
C      1  0.4018140000000  0.4887260000000  0.4761830000000 1.0
C      1  0.4532740000000  0.4943930000000  0.4618410000000 1.0
C      1  0.5321080000000  0.4323300000000  0.4904510000000 1.0
C      1  0.5267180000000  0.4741940000000  0.5999450000000 1.0
C      1  0.4734140000000  0.4369370000000  0.4187190000000 1.0
C      1  0.4959410000000  0.5330610000000  0.3921170000000 1.0
C      1  0.4594310000000  0.4765240000000  0.4966480000000 1.0
C      1  0.5773640000000  0.5275430000000  0.5232970000000 1.0
C      1  0.5948310000000  0.4897670000000  0.4497040000000 1.0
C      1  0.5451990000000  0.5079460000000  0.4114100000000 1.0
C      1  0.5256900000000  0.5664910000000  0.4417290000000 1.0
C      1  0.5451330000000  0.5313240000000  0.5347850000000 1.0
C      1  0.5548060000000  0.5737910000000  0.4337340000000 1.0
C      1  0.5517590000000  0.5386090000000  0.4521480000000 1.0
C      1  0.6057110000000  0.4931600000000  0.4974780000000 1.0
C      1  0.5663090000000  0.4961510000000  0.4322410000000 1.0
C      1  0.5841770000000  0.4425200000000  0.4738540000000 1.0
C      1  0.5877550000000  0.5160720000000  0.4962080000000 1.0
C      1  0.5426470000000  0.5383320000000  0.4187110000000 1.0
C      1  0.4855110000000  0.4693820000000  0.5118590000000 1.0
C      1  0.4829380000000  0.5617140000000  0.5797700000000 1.0
C      1  0.4013820000000  0.4581230000000  0.6032850000000 1.0
C      1  0.5449990000000  0.5993780000000  0.4519700000000 1.0
C      1  0.4783420000000  0.5394510000000  0.4609550000000 1.0
C      1  0.5747190000000  0.4398210000000  0.5412460000000 1.0
C      1  0.5579600000000  0.5416640000000  0.5745690000000 1.0
C      1  0.4429200000000  0.4316370000000  0.4331970000000 1.0
C      1  0.4957350000000  0.4698330000000  0.6137210000000 1.0
C      1  0.4753830000000  0.4472550000000  0.5536710000000 1.0
C      1  0.5233150000000  0.5246770000000  0.4561320000000 1.0
C      1  0.4881660000000  0.5966740000000  0.5034980000000 1.0
C      1  0.5607520000000  0.4232910000000  0.4580050000000 1.0
C      1  0.4304170000000  0.5027180000000  0.5954650000000 1.0
C      1  0.4839650000000  0.5079530000000  0.5654440000000 1.0
C      1  0.4745580000000  0.4117470000000  0.5159440000000 1.0
C      1  0.5411790000000  0.5246470000000  0.5978110000000 1.0
C      1  0.4810700000000  0.5473310000000  0.4940490000000 1.0
C      1  0.5068790000000  0.4931360000000  0.5219750000000 1.0
C      1  0.5153640000000  0.4403360000000  0.5177050000000 1.0
C      1  0.5180520000000  0.4739900000000  0.4378630000000 1.0
C      1  0.4638530000000  0.4657100000000  0.4466090000000 1.0
C      1  0.5970340000000  0.4736450000000  0.4761200000000 1.0
C      1  0.4853600000000  0.6127540000000  0.5334510000000 1.0
C      1  0.5396020000000  0.5833910000000  0.4797570000000 1.0
C      1  0.5028460000000  0.4834590000000  0.5770200000000 1.0
C      1  0.4908610000000  0.5212470000000  0.4362360000000 1.0
C      1  0.5347720000000  0.5355630000000  0.6251090000000 1.0
C      1  0.4434760000000  0.4627160000000  0.4189580000000 1.0
C      1  0.4214910000000  0.4184900000000  0.5525280000000 1.0
C      1  0.5110020000000  0.4115070000000  0.4745860000000 1.0
C      1  0.4592890000000  0.5376220000000  0.5747490000000 1.0
C      1  0.5476810000000  0.4571420000000  0.4810210000000 1.0
C      1  0.5373290000000  0.4768170000000  0.4029480000000 1.0
C      1  0.5658100000000  0.5065090000000  0.4712030000000 1.0
C      1  0.6007010000000  0.5397110000000  0.4779330000000 1.0
C      1  0.4312630000000  0.5368450000000  0.4411860000000 1.0
C      1  0.4497960000000  0.5691470000000  0.5813230000000 1.0
C      1  0.5488560000000  0.5613040000000  0.5503890000000 1.0
C      1  0.5704690000000  0.4169990000000  0.4899790000000 1.0
C      1  0.4301340000000  0.4841430000000  0.5074260000000 1.0
C      1  0.4923400000000  0.5847800000000  0.4537170000000 1.0
C      1  0.5257750000000  0.5793340000000  0.5512380000000 1.0
C      1  0.5518600000000  0.4590190000000  0.4226120000000 1.0
C      1  0.5026610000000  0.6047520000000  0.5530200000000 1.0
C      1  0.4631740000000  0.5608590000000  0.4417520000000 1.0
C      1  0.5773760000000  0.4626890000000  0.5635660000000 1.0
C      1  0.5120660000000  0.4109260000000  0.5486100000000 1.0
C      1  0.4685880000000  0.5459970000000  0.3918740000000 1.0
C      1  0.5241040000000  0.4648450000000  0.5611860000000 1.0
C      1  0.4866740000000  0.4011500000000  0.4915700000000 1.0
C      1  0.6094170000000  0.5638200000000  0.4969810000000 1.0
C      1  0.4886930000000  0.4283800000000  0.5751380000000 1.0
C      1  0.5245590000000  0.4677230000000  0.5306310000000 1.0
C      1  0.4908580000000  0.5036330000000  0.4003300000000 1.0
C      1  0.5166070000000  0.5257580000000  0.5231520000000 1.0
C      1  0.5322330000000  0.4842250000000  0.4912510000000 1.0
C      1  0.5488920000000  0.5241050000000  0.4950170000000 1.0
C      1  0.5147240000000  0.6036070000000  0.4558810000000 1.0
C      1  0.4435970000000  0.4098650000000  0.5129400000000 1.0
C      1  0.4581350000000  0.5101370000000  0.5885980000000 1.0
C      1  0.4029880000000  0.5289400000000  0.5152750000000 1.0
C      1  0.4167710000000  0.4531210000000  0.5135690000000 1.0
C      1  0.4962000000000  0.5389380000000  0.5596430000000 1.0
C      1  0.4704870000000  0.5410940000000  0.4217860000000 1.0
C      1  0.4271240000000  0.5356850000000  0.4729980000000 1.0
C      1  0.4364670000000  0.5632860000000  0.5543100000000 1.0
C      1  0.5142020000000  0.5478630000000  0.4084910000000 1.0
C      1  0.5343770000000  0.4422370000000  0.5975510000000 1.0
C      1  0.5193340000000  0.5361670000000  0.4937610000000 1.0
C      1  0.4993640000000  0.5680880000000  0.4269030000000 1.0
C      1  0.5709900000000  0.5113350000000  0.5747500000000 1.0
C      1  0.5972160000000  0.5182080000000  0.5454060000000 1.0
C      1  0.4834270000000  0.4884050000000  0.4767520000000 1.0
C      1  0.5272370000000  0.5979260000000  0.5021340000000 1.0
C      1  0.3997090000000  0.5574800000000  0.5055870000000 1.0
C      1  0.4350600000000  0.5227240000000  0.5250020000000 1.0
C      1  0.4220070000000  0.4883660000000  0.4520760000000 1.0
C      1  0.4369960000000  0.5688130000000  0.4513060000000 1.0
C      1  0.5102530000000  0.4693550000000  0.4698660000000 1.0
C      1  0.4763030000000  0.5786270000000  0.4818230000000 1.0
C      1  0.4455950000000  0.4316030000000  0.4671380000000 1.0
C      1  0.5505290000000  0.4976250000000  0.5143100000000 1.0
C      1  0.4754160000000  0.4009620000000  0.4601150000000 1.0
C      1  0.5216910000000  0.4335930000000  0.5687150000000 1.0
C      1  0.4046660000000  0.5155250000000  0.5526040000000 1.0
C      1  0.4599920000000  0.4985950000000  0.4138450000000 1.0
C      1  0.4371030000000  0.4615850000000  0.4774310000000 1.0
C      1  0.5097920000000  0.5071380000000  0.4814640000000 1.0
C      1  0.5049100000000  0.4487570000000  0.4191560000000 1.0
END
