TITL C-2778436-5916-885 0.00294294417192033 125000 -527.173168868521 0 0 90 (C1) n - 1
REM
REM in /home/nfs/bkarasulu/CARBON/AIRSS/Generating-Clusters/REBO/Only-C1/SD-CG/HFTN-CG
REM
REM
REM
REM
REM
REM ./C.cell (11c1c37f851c82e70ff6c80c92926a4b)
REM
REM compiler GCC version 9.2.1 20190827 (Red Hat 9.2.1-1)
REM options -cpp -mtune=generic -march=x86-64 -g -O0 -fpre-include=/usr/include/finclude/math-vector-fortran.h
REM seed -742255813 -851703955 2119722182 -555521720 -1213197894 -365987463 -441278795 1001298705 -2096551009 86760528 1239926720 -273515909 1354880909 209360437 1964193168 824774902 847358750 1291455771 408061923 489615457 -975101241 -1733084820 1398077951 1695432454 -1832310983 -1963782898 -2118014912 -969015172 67960809 408560456 -1286697056 748729072 -359409520
REM
CELL 1.54180   50.00000   50.00000   50.00000   90.00000   90.00000   90.00000
LATT -1
SFAC C  
C      1  0.5082050000000  0.4768360000000  0.5431350000000 1.0
C      1  0.5674790000000  0.4985470000000  0.4280630000000 1.0
C      1  0.5534310000000  0.5112710000000  0.5398810000000 1.0
C      1  0.4063380000000  0.5142820000000  0.4825400000000 1.0
C      1  0.4887520000000  0.4336390000000  0.5125020000000 1.0
C      1  0.4270430000000  0.5076400000000  0.5295350000000 1.0
C      1  0.5469980000000  0.5497040000000  0.5194820000000 1.0
C      1  0.5134660000000  0.4225730000000  0.4973260000000 1.0
C      1  0.4411580000000  0.4816720000000  0.5228430000000 1.0
C      1  0.4735530000000  0.5650420000000  0.4744950000000 1.0
C      1  0.5552860000000  0.4498620000000  0.4932670000000 1.0
C      1  0.5882010000000  0.5286660000000  0.4740520000000 1.0
C      1  0.5681770000000  0.4701970000000  0.5126390000000 1.0
C      1  0.5347550000000  0.5658550000000  0.5391980000000 1.0
C      1  0.5240900000000  0.5006810000000  0.5810260000000 1.0
C      1  0.4865410000000  0.5574280000000  0.5709380000000 1.0
C      1  0.5200270000000  0.5047230000000  0.5414600000000 1.0
C      1  0.5327460000000  0.4655360000000  0.4349080000000 1.0
C      1  0.4360890000000  0.4793140000000  0.4683340000000 1.0
C      1  0.5302470000000  0.5797960000000  0.4784180000000 1.0
C      1  0.5699960000000  0.5525720000000  0.4999260000000 1.0
C      1  0.4774190000000  0.4923150000000  0.4311970000000 1.0
C      1  0.4755150000000  0.4221330000000  0.5377510000000 1.0
C      1  0.4984970000000  0.4522130000000  0.4603070000000 1.0
C      1  0.5145620000000  0.4809800000000  0.4671670000000 1.0
C      1  0.4483230000000  0.4298420000000  0.5392440000000 1.0
C      1  0.5315250000000  0.5004750000000  0.4892620000000 1.0
C      1  0.5364820000000  0.5241800000000  0.5643470000000 1.0
C      1  0.4527900000000  0.4331750000000  0.4953290000000 1.0
C      1  0.5399320000000  0.4926990000000  0.4278330000000 1.0
C      1  0.5846840000000  0.5246980000000  0.5408580000000 1.0
C      1  0.5578410000000  0.4985590000000  0.5092270000000 1.0
C      1  0.5365230000000  0.4297810000000  0.5126580000000 1.0
C      1  0.5117170000000  0.5645150000000  0.5798250000000 1.0
C      1  0.5082590000000  0.4592710000000  0.5163680000000 1.0
C      1  0.4416560000000  0.5267930000000  0.4526960000000 1.0
C      1  0.4649030000000  0.4817470000000  0.4813860000000 1.0
C      1  0.4736480000000  0.5254910000000  0.5116860000000 1.0
C      1  0.5343050000000  0.4749210000000  0.5733240000000 1.0
C      1  0.5168020000000  0.5920730000000  0.4986600000000 1.0
C      1  0.5401020000000  0.4506910000000  0.4621670000000 1.0
C      1  0.5684080000000  0.4625660000000  0.5392540000000 1.0
C      1  0.5329300000000  0.5541520000000  0.5645840000000 1.0
C      1  0.5036300000000  0.4252220000000  0.5486480000000 1.0
C      1  0.4339740000000  0.4494030000000  0.5276150000000 1.0
C      1  0.5294400000000  0.4351460000000  0.5405610000000 1.0
C      1  0.4748390000000  0.4531800000000  0.4442290000000 1.0
C      1  0.4771550000000  0.5325850000000  0.5829110000000 1.0
C      1  0.4791010000000  0.4751510000000  0.5558940000000 1.0
C      1  0.4819810000000  0.4655280000000  0.4166120000000 1.0
C      1  0.5776170000000  0.5252210000000  0.5115690000000 1.0
C      1  0.4506170000000  0.5183610000000  0.5721520000000 1.0
C      1  0.4706540000000  0.4502930000000  0.5653240000000 1.0
C      1  0.4338300000000  0.4400440000000  0.4741930000000 1.0
C      1  0.4275390000000  0.4639960000000  0.4975380000000 1.0
C      1  0.4574020000000  0.5455180000000  0.5311490000000 1.0
C      1  0.5445000000000  0.4560220000000  0.5539830000000 1.0
C      1  0.5053010000000  0.5210140000000  0.5185370000000 1.0
C      1  0.4743470000000  0.4826580000000  0.5230690000000 1.0
C      1  0.4401260000000  0.5252400000000  0.5477780000000 1.0
C      1  0.4476750000000  0.5476350000000  0.4720780000000 1.0
C      1  0.5031090000000  0.4911430000000  0.5062540000000 1.0
C      1  0.4868430000000  0.4908860000000  0.4598110000000 1.0
C      1  0.5088350000000  0.5777430000000  0.5268300000000 1.0
C      1  0.5248380000000  0.4612730000000  0.4910970000000 1.0
C      1  0.4713550000000  0.4586730000000  0.5012750000000 1.0
C      1  0.4966780000000  0.4479210000000  0.3918270000000 1.0
C      1  0.5563640000000  0.5173780000000  0.4745750000000 1.0
C      1  0.5244480000000  0.5469990000000  0.4743410000000 1.0
C      1  0.4857890000000  0.5631570000000  0.5063520000000 1.0
C      1  0.5263830000000  0.5367440000000  0.5048580000000 1.0
C      1  0.5768940000000  0.5122350000000  0.4498190000000 1.0
C      1  0.5148560000000  0.4290070000000  0.4698940000000 1.0
C      1  0.4476010000000  0.4531680000000  0.4507030000000 1.0
C      1  0.4924550000000  0.5642270000000  0.4490710000000 1.0
C      1  0.4919120000000  0.5161400000000  0.4155090000000 1.0
C      1  0.5225870000000  0.5149190000000  0.4251260000000 1.0
C      1  0.4812820000000  0.5473640000000  0.4230370000000 1.0
C      1  0.4191020000000  0.5222310000000  0.5062350000000 1.0
C      1  0.5558880000000  0.5603630000000  0.4755120000000 1.0
C      1  0.5142730000000  0.4541790000000  0.4174930000000 1.0
C      1  0.5138520000000  0.5434980000000  0.4339720000000 1.0
C      1  0.4609200000000  0.5219130000000  0.4304050000000 1.0
C      1  0.4733180000000  0.4964700000000  0.5750180000000 1.0
C      1  0.4944750000000  0.5410990000000  0.4816020000000 1.0
C      1  0.4241710000000  0.5060880000000  0.4619810000000 1.0
C      1  0.4986090000000  0.5079050000000  0.5899020000000 1.0
C      1  0.4790650000000  0.5126530000000  0.4826390000000 1.0
C      1  0.4439450000000  0.5394930000000  0.5013080000000 1.0
C      1  0.4810250000000  0.5638150000000  0.5406130000000 1.0
END
