TITL C-2778424-3986-1006 -0.000215304012220644 125000 -1037.66541752472 0 0 178 (C1) n - 1
REM
REM in /home/nfs/bkarasulu/CARBON/AIRSS/Generating-Clusters/REBO/Only-C1/SD-CG/HFTN-CG
REM
REM
REM
REM
REM
REM ./C.cell (11c1c37f851c82e70ff6c80c92926a4b)
REM
REM compiler GCC version 9.2.1 20190827 (Red Hat 9.2.1-1)
REM options -cpp -mtune=generic -march=x86-64 -g -O0 -fpre-include=/usr/include/finclude/math-vector-fortran.h
REM seed 906968199 1900568664 -1350246048 -408513020 860229937 1684765475 -998070173 -967605591 549014342 -1357123350 -101862389 765358549 244661078 1050310500 1237743370 1125636900 -1832007552 1690916523 -186259029 1937020163 688213263 1738563637 -659249459 -334656348 -1825420025 -196346484 1922058234 -392409252 1706590474 821481877 -1960029312 -1037439042 272419044
REM
CELL 1.54180   50.00000   50.00000   50.00000   90.00000   90.00000   90.00000
LATT -1
SFAC C  
C      1  0.4721950000000  0.4812740000000  0.5636560000000 1.0
C      1  0.5383010000000  0.4447430000000  0.4870120000000 1.0
C      1  0.4857700000000  0.4293000000000  0.4763450000000 1.0
C      1  0.3832800000000  0.4797950000000  0.4869590000000 1.0
C      1  0.4333750000000  0.5294980000000  0.4824260000000 1.0
C      1  0.5219900000000  0.5166880000000  0.5716400000000 1.0
C      1  0.5986950000000  0.5182460000000  0.4815030000000 1.0
C      1  0.4740710000000  0.5313660000000  0.3976990000000 1.0
C      1  0.4815080000000  0.3995410000000  0.5183100000000 1.0
C      1  0.4449610000000  0.5497310000000  0.5612560000000 1.0
C      1  0.4363590000000  0.4303750000000  0.5459600000000 1.0
C      1  0.4607960000000  0.5346830000000  0.4855410000000 1.0
C      1  0.5337110000000  0.4723830000000  0.5555780000000 1.0
C      1  0.5856650000000  0.4402050000000  0.5012020000000 1.0
C      1  0.4948120000000  0.5785860000000  0.4962790000000 1.0
C      1  0.4242980000000  0.5036490000000  0.4125600000000 1.0
C      1  0.4923590000000  0.5905040000000  0.5461970000000 1.0
C      1  0.4367920000000  0.5312450000000  0.4178940000000 1.0
C      1  0.5056480000000  0.4185190000000  0.5780960000000 1.0
C      1  0.5080690000000  0.3963360000000  0.4730810000000 1.0
C      1  0.5043390000000  0.5451530000000  0.4491680000000 1.0
C      1  0.5562650000000  0.4575460000000  0.5869530000000 1.0
C      1  0.4520540000000  0.5565300000000  0.4029140000000 1.0
C      1  0.4572340000000  0.4597950000000  0.4060720000000 1.0
C      1  0.5355380000000  0.5078800000000  0.4477000000000 1.0
C      1  0.3913820000000  0.5073070000000  0.5051990000000 1.0
C      1  0.5519160000000  0.4594140000000  0.4525000000000 1.0
C      1  0.5904830000000  0.4631070000000  0.4836640000000 1.0
C      1  0.4735750000000  0.4763650000000  0.6032490000000 1.0
C      1  0.5712380000000  0.5599820000000  0.5054120000000 1.0
C      1  0.5419160000000  0.5361140000000  0.4400330000000 1.0
C      1  0.4226820000000  0.5286940000000  0.6058470000000 1.0
C      1  0.4236940000000  0.5118960000000  0.4570570000000 1.0
C      1  0.4525750000000  0.4222150000000  0.4743450000000 1.0
C      1  0.5539890000000  0.5307220000000  0.4775060000000 1.0
C      1  0.5817180000000  0.4888860000000  0.4338400000000 1.0
C      1  0.5761110000000  0.5427290000000  0.4595060000000 1.0
C      1  0.5203260000000  0.4268000000000  0.5178670000000 1.0
C      1  0.5335140000000  0.4791050000000  0.4019880000000 1.0
C      1  0.4366160000000  0.4925710000000  0.5497740000000 1.0
C      1  0.4871170000000  0.4274380000000  0.4280520000000 1.0
C      1  0.5577370000000  0.4210310000000  0.4991790000000 1.0
C      1  0.4864260000000  0.4218360000000  0.5507940000000 1.0
C      1  0.5342880000000  0.5153050000000  0.5185810000000 1.0
C      1  0.5562060000000  0.4886810000000  0.4645920000000 1.0
C      1  0.5110540000000  0.5090820000000  0.5409930000000 1.0
C      1  0.5054580000000  0.5053160000000  0.4491920000000 1.0
C      1  0.5060990000000  0.4708630000000  0.6115280000000 1.0
C      1  0.5097950000000  0.6063200000000  0.5229190000000 1.0
C      1  0.5970430000000  0.4714110000000  0.5547580000000 1.0
C      1  0.4123940000000  0.4694650000000  0.5280300000000 1.0
C      1  0.4423040000000  0.5871550000000  0.5225030000000 1.0
C      1  0.5144360000000  0.5838320000000  0.4424570000000 1.0
C      1  0.4840760000000  0.5986030000000  0.4416290000000 1.0
C      1  0.4379050000000  0.4524790000000  0.4201530000000 1.0
C      1  0.5215020000000  0.5679560000000  0.5240740000000 1.0
C      1  0.5240750000000  0.5636190000000  0.4904460000000 1.0
C      1  0.4390220000000  0.4954540000000  0.5024670000000 1.0
C      1  0.4785270000000  0.5326910000000  0.5283940000000 1.0
C      1  0.5283050000000  0.3968200000000  0.5126660000000 1.0
C      1  0.4942320000000  0.5593430000000  0.5372830000000 1.0
C      1  0.4523880000000  0.5269000000000  0.4473450000000 1.0
C      1  0.4297670000000  0.4133010000000  0.4853810000000 1.0
C      1  0.5021790000000  0.4623940000000  0.4400250000000 1.0
C      1  0.5431450000000  0.5702390000000  0.4407540000000 1.0
C      1  0.4944500000000  0.4408150000000  0.5060840000000 1.0
C      1  0.6086640000000  0.5104540000000  0.5218380000000 1.0
C      1  0.4886920000000  0.5239900000000  0.4275540000000 1.0
C      1  0.4886540000000  0.3921260000000  0.4933140000000 1.0
C      1  0.4690500000000  0.5734620000000  0.5649190000000 1.0
C      1  0.4139160000000  0.4386590000000  0.5273400000000 1.0
C      1  0.5386790000000  0.3943870000000  0.5449840000000 1.0
C      1  0.4526800000000  0.5951260000000  0.5465610000000 1.0
C      1  0.5300700000000  0.4468270000000  0.4357380000000 1.0
C      1  0.5423750000000  0.5832110000000  0.4706090000000 1.0
C      1  0.5395410000000  0.5276700000000  0.4013010000000 1.0
C      1  0.5324200000000  0.5416770000000  0.5861210000000 1.0
C      1  0.5184300000000  0.5486030000000  0.4182350000000 1.0
C      1  0.4975530000000  0.4124900000000  0.4500530000000 1.0
C      1  0.5677490000000  0.5087360000000  0.5835090000000 1.0
C      1  0.4043860000000  0.5151260000000  0.5555320000000 1.0
C      1  0.4523350000000  0.5587000000000  0.4431450000000 1.0
C      1  0.3953050000000  0.5142990000000  0.4719360000000 1.0
C      1  0.4485790000000  0.5382760000000  0.5311230000000 1.0
C      1  0.4919000000000  0.5022630000000  0.5912770000000 1.0
C      1  0.4923370000000  0.5035210000000  0.4015480000000 1.0
C      1  0.4492650000000  0.5300260000000  0.5851820000000 1.0
C      1  0.5629840000000  0.5417520000000  0.5787810000000 1.0
C      1  0.4454440000000  0.4630070000000  0.5247470000000 1.0
C      1  0.4975980000000  0.5335260000000  0.5556850000000 1.0
C      1  0.5893330000000  0.5464530000000  0.4871960000000 1.0
C      1  0.4898740000000  0.4876210000000  0.5365240000000 1.0
C      1  0.4601160000000  0.4822050000000  0.4390130000000 1.0
C      1  0.5063740000000  0.4619490000000  0.5285280000000 1.0
C      1  0.4627950000000  0.4487730000000  0.5919380000000 1.0
C      1  0.5048510000000  0.5135040000000  0.4879670000000 1.0
C      1  0.4295920000000  0.4878510000000  0.4367860000000 1.0
C      1  0.4704460000000  0.6072120000000  0.4696300000000 1.0
C      1  0.4190180000000  0.5039980000000  0.5835530000000 1.0
C      1  0.4122070000000  0.5752530000000  0.4345930000000 1.0
C      1  0.4917020000000  0.6122180000000  0.4957260000000 1.0
C      1  0.5585820000000  0.4351690000000  0.5704610000000 1.0
C      1  0.4838510000000  0.4770170000000  0.4150960000000 1.0
C      1  0.5391260000000  0.3980560000000  0.4823760000000 1.0
C      1  0.5677140000000  0.5156570000000  0.4169690000000 1.0
C      1  0.5152850000000  0.5635650000000  0.5824870000000 1.0
C      1  0.4302150000000  0.4771040000000  0.4845260000000 1.0
C      1  0.4474730000000  0.5631150000000  0.5102080000000 1.0
C      1  0.5739920000000  0.4307890000000  0.5469560000000 1.0
C      1  0.5701760000000  0.4910610000000  0.5479190000000 1.0
C      1  0.4999270000000  0.4356170000000  0.4036890000000 1.0
C      1  0.5217880000000  0.5353480000000  0.4745550000000 1.0
C      1  0.4197820000000  0.5597830000000  0.4131290000000 1.0
C      1  0.5310900000000  0.4694130000000  0.6008280000000 1.0
C      1  0.5042330000000  0.4764720000000  0.5720700000000 1.0
C      1  0.5220800000000  0.4542830000000  0.4063580000000 1.0
C      1  0.4326260000000  0.5773560000000  0.4553560000000 1.0
C      1  0.4042100000000  0.4683640000000  0.4736540000000 1.0
C      1  0.4627740000000  0.4467410000000  0.5039450000000 1.0
C      1  0.5651080000000  0.5170700000000  0.5042190000000 1.0
C      1  0.5610440000000  0.4120380000000  0.5295310000000 1.0
C      1  0.5933410000000  0.4486760000000  0.5309890000000 1.0
C      1  0.4265900000000  0.4577160000000  0.4501540000000 1.0
C      1  0.4735800000000  0.5035980000000  0.4581470000000 1.0
C      1  0.4565600000000  0.4579590000000  0.5536130000000 1.0
C      1  0.4736580000000  0.4835410000000  0.4828950000000 1.0
C      1  0.4712260000000  0.5757880000000  0.4224960000000 1.0
C      1  0.5506070000000  0.4881940000000  0.4248990000000 1.0
C      1  0.5214850000000  0.5033980000000  0.3925990000000 1.0
C      1  0.5911090000000  0.4636160000000  0.4537730000000 1.0
C      1  0.4690480000000  0.5644890000000  0.4847870000000 1.0
C      1  0.5395690000000  0.4932220000000  0.5801070000000 1.0
C      1  0.5578870000000  0.5843040000000  0.5254100000000 1.0
C      1  0.5478200000000  0.5585010000000  0.5533700000000 1.0
C      1  0.5386580000000  0.6033310000000  0.5168770000000 1.0
C      1  0.5526610000000  0.4707400000000  0.4933660000000 1.0
C      1  0.5808370000000  0.5406670000000  0.4324550000000 1.0
C      1  0.5057360000000  0.3963650000000  0.5390340000000 1.0
C      1  0.4679540000000  0.4866770000000  0.5146880000000 1.0
C      1  0.5058310000000  0.4806830000000  0.4830210000000 1.0
C      1  0.4886560000000  0.4464350000000  0.5743850000000 1.0
C      1  0.5867450000000  0.5017830000000  0.4638820000000 1.0
C      1  0.5863790000000  0.5292270000000  0.5256360000000 1.0
C      1  0.5227740000000  0.5795610000000  0.5564570000000 1.0
C      1  0.5113970000000  0.5972660000000  0.4730940000000 1.0
C      1  0.4917580000000  0.5575230000000  0.4060800000000 1.0
C      1  0.4879910000000  0.5578890000000  0.5856850000000 1.0
C      1  0.5743080000000  0.5229270000000  0.5534070000000 1.0
C      1  0.4810250000000  0.5219010000000  0.5010080000000 1.0
C      1  0.5203060000000  0.4851590000000  0.5107960000000 1.0
C      1  0.4353370000000  0.4456660000000  0.5760930000000 1.0
C      1  0.5337950000000  0.4173000000000  0.5675030000000 1.0
C      1  0.5499180000000  0.4795070000000  0.5264370000000 1.0
C      1  0.5790140000000  0.4893130000000  0.5008740000000 1.0
C      1  0.4628740000000  0.4245020000000  0.5292800000000 1.0
C      1  0.5716820000000  0.4367310000000  0.4603070000000 1.0
C      1  0.5764100000000  0.4778760000000  0.5792090000000 1.0
C      1  0.4145360000000  0.5311840000000  0.5023730000000 1.0
C      1  0.5367240000000  0.4166920000000  0.4378790000000 1.0
C      1  0.4444300000000  0.5980560000000  0.4711510000000 1.0
C      1  0.4528540000000  0.4971710000000  0.5858100000000 1.0
C      1  0.5110160000000  0.4517550000000  0.4713630000000 1.0
C      1  0.5455360000000  0.6096850000000  0.4893610000000 1.0
C      1  0.5279310000000  0.4416390000000  0.5456040000000 1.0
C      1  0.5780760000000  0.5597860000000  0.5383760000000 1.0
C      1  0.5549740000000  0.4123650000000  0.4588230000000 1.0
C      1  0.4801380000000  0.5300700000000  0.5913680000000 1.0
C      1  0.5573530000000  0.5540550000000  0.4142520000000 1.0
C      1  0.4002630000000  0.4955540000000  0.5331560000000 1.0
C      1  0.4871420000000  0.5691680000000  0.4584350000000 1.0
C      1  0.4121220000000  0.4226050000000  0.5041580000000 1.0
C      1  0.4370730000000  0.5101200000000  0.5278190000000 1.0
C      1  0.4547580000000  0.4566970000000  0.4719980000000 1.0
C      1  0.4139620000000  0.5411490000000  0.5507870000000 1.0
C      1  0.5446190000000  0.5462710000000  0.5216690000000 1.0
C      1  0.4710010000000  0.4511910000000  0.4425670000000 1.0
C      1  0.4241850000000  0.4746830000000  0.5698760000000 1.0
C      1  0.6010420000000  0.4812770000000  0.5234740000000 1.0
END
