TITL C-2778434-4341-1259 -0.000145897006639003 125000 -444.984546751206 0 0 77 (C1) n - 1
REM
REM in /home/nfs/bkarasulu/CARBON/AIRSS/Generating-Clusters/REBO/Only-C1/SD-CG/HFTN-CG
REM
REM
REM
REM
REM
REM ./C.cell (11c1c37f851c82e70ff6c80c92926a4b)
REM
REM compiler GCC version 9.2.1 20190827 (Red Hat 9.2.1-1)
REM options -cpp -mtune=generic -march=x86-64 -g -O0 -fpre-include=/usr/include/finclude/math-vector-fortran.h
REM seed -1395073148 -514871126 1983343248 1181700610 1566286810 -317877899 1968134363 1427077170 1901532308 330121855 -344210719 -1625780932 -1892452479 266979227 8883738 523039460 -871501561 -1678433529 303734943 1396261581 -280274092 133548451 -409656474 -550541142 -1693282490 860384638 -1025367592 -1171612757 -1284955576 -623858541 2003935271 -1916952756 1822400000
REM
CELL 1.54180   50.00000   50.00000   50.00000   90.00000   90.00000   90.00000
LATT -1
SFAC C  
C      1  0.5226680000000  0.5330890000000  0.4390700000000 1.0
C      1  0.4592060000000  0.4852050000000  0.4310950000000 1.0
C      1  0.4450590000000  0.5028290000000  0.4565530000000 1.0
C      1  0.4877380000000  0.4877610000000  0.5630540000000 1.0
C      1  0.5774540000000  0.4980480000000  0.5514890000000 1.0
C      1  0.4444490000000  0.5544580000000  0.5100720000000 1.0
C      1  0.5778670000000  0.5122860000000  0.5011840000000 1.0
C      1  0.4613800000000  0.5468240000000  0.5588810000000 1.0
C      1  0.4498940000000  0.4391300000000  0.5581490000000 1.0
C      1  0.5183530000000  0.5575440000000  0.5349500000000 1.0
C      1  0.5062930000000  0.5238420000000  0.4848500000000 1.0
C      1  0.4743290000000  0.4899710000000  0.5010020000000 1.0
C      1  0.5113890000000  0.4670630000000  0.4818700000000 1.0
C      1  0.4297770000000  0.5240720000000  0.5052570000000 1.0
C      1  0.5162360000000  0.5483670000000  0.4951140000000 1.0
C      1  0.5639660000000  0.5411100000000  0.4673770000000 1.0
C      1  0.4755200000000  0.5641730000000  0.4596810000000 1.0
C      1  0.5165950000000  0.4151880000000  0.4256020000000 1.0
C      1  0.4951250000000  0.5710850000000  0.5266560000000 1.0
C      1  0.4694130000000  0.4165170000000  0.4871260000000 1.0
C      1  0.4822640000000  0.4649200000000  0.5158550000000 1.0
C      1  0.4309660000000  0.4642880000000  0.5169270000000 1.0
C      1  0.5171360000000  0.5595070000000  0.4298890000000 1.0
C      1  0.4634440000000  0.5193200000000  0.5088230000000 1.0
C      1  0.5522700000000  0.5618160000000  0.4844270000000 1.0
C      1  0.5695210000000  0.4505860000000  0.4850320000000 1.0
C      1  0.5306190000000  0.4642910000000  0.5680380000000 1.0
C      1  0.4416470000000  0.5400300000000  0.5395880000000 1.0
C      1  0.4416770000000  0.4359730000000  0.5280120000000 1.0
C      1  0.4492480000000  0.5688290000000  0.4810450000000 1.0
C      1  0.4826170000000  0.4761650000000  0.4184280000000 1.0
C      1  0.5498370000000  0.4332900000000  0.4755150000000 1.0
C      1  0.4725220000000  0.5735200000000  0.5121940000000 1.0
C      1  0.4363200000000  0.5097470000000  0.5360830000000 1.0
C      1  0.4489850000000  0.4854460000000  0.5239790000000 1.0
C      1  0.5184540000000  0.4973150000000  0.4873250000000 1.0
C      1  0.5492010000000  0.4946210000000  0.4572100000000 1.0
C      1  0.5468280000000  0.5235320000000  0.4519570000000 1.0
C      1  0.5467150000000  0.5005490000000  0.5040300000000 1.0
C      1  0.5162710000000  0.4390580000000  0.4384450000000 1.0
C      1  0.5130250000000  0.5379610000000  0.5550830000000 1.0
C      1  0.4562850000000  0.5202720000000  0.4757170000000 1.0
C      1  0.5074120000000  0.4645650000000  0.4254030000000 1.0
C      1  0.5288130000000  0.4842570000000  0.5236000000000 1.0
C      1  0.5076730000000  0.4471310000000  0.5646330000000 1.0
C      1  0.4986850000000  0.5190230000000  0.4460480000000 1.0
C      1  0.4764780000000  0.5883650000000  0.4831990000000 1.0
C      1  0.4851090000000  0.5317150000000  0.5564730000000 1.0
C      1  0.5307570000000  0.5161230000000  0.5615220000000 1.0
C      1  0.4358940000000  0.4272470000000  0.5772010000000 1.0
C      1  0.5262050000000  0.4795090000000  0.4469750000000 1.0
C      1  0.5722400000000  0.4736210000000  0.5373100000000 1.0
C      1  0.5067790000000  0.4935200000000  0.5289510000000 1.0
C      1  0.5742850000000  0.4720480000000  0.5085050000000 1.0
C      1  0.5562490000000  0.5268180000000  0.5215110000000 1.0
C      1  0.4936840000000  0.5724860000000  0.4360610000000 1.0
C      1  0.4508700000000  0.4703610000000  0.4592950000000 1.0
C      1  0.4807280000000  0.5346870000000  0.4658030000000 1.0
C      1  0.5570120000000  0.5177470000000  0.5499910000000 1.0
C      1  0.5175350000000  0.4908880000000  0.5682780000000 1.0
C      1  0.5419050000000  0.5512070000000  0.5137590000000 1.0
C      1  0.5041920000000  0.5714270000000  0.4877160000000 1.0
C      1  0.5854790000000  0.5268540000000  0.4796000000000 1.0
C      1  0.4116310000000  0.5017660000000  0.4924950000000 1.0
C      1  0.4768690000000  0.4838500000000  0.4714000000000 1.0
C      1  0.4745020000000  0.4563140000000  0.5647530000000 1.0
C      1  0.5257400000000  0.4439020000000  0.4651940000000 1.0
C      1  0.5483040000000  0.5881630000000  0.4771900000000 1.0
C      1  0.4984220000000  0.4917640000000  0.4532060000000 1.0
C      1  0.5541310000000  0.4579800000000  0.5530330000000 1.0
C      1  0.4792730000000  0.5079300000000  0.5367510000000 1.0
C      1  0.4940500000000  0.4568510000000  0.5385350000000 1.0
C      1  0.4110380000000  0.4748360000000  0.4995050000000 1.0
C      1  0.5675260000000  0.4814880000000  0.4761820000000 1.0
C      1  0.4906840000000  0.4428770000000  0.4841140000000 1.0
C      1  0.4633450000000  0.4445420000000  0.5045380000000 1.0
C      1  0.4479400000000  0.4085420000000  0.5086320000000 1.0
END
