TITL C-2778430-5657-1432 0.00231144565316698 125000 -897.315399344769 0 0 155 (C1) n - 1
REM
REM in /home/nfs/bkarasulu/CARBON/AIRSS/Generating-Clusters/REBO/Only-C1/SD-CG/HFTN-CG
REM
REM
REM
REM
REM
REM ./C.cell (11c1c37f851c82e70ff6c80c92926a4b)
REM
REM compiler GCC version 9.2.1 20190827 (Red Hat 9.2.1-1)
REM options -cpp -mtune=generic -march=x86-64 -g -O0 -fpre-include=/usr/include/finclude/math-vector-fortran.h
REM seed -73562046 -947099197 56121161 1454463454 -287580459 28454670 544271299 -517748097 1426820220 -1158523713 -1921473414 1445770408 1737739478 2086617498 2058495404 1223378636 -414857577 540227613 151624927 1222892055 -417826377 -342623614 -1565239634 1698905583 1710497392 -1070235111 1546286805 -351325910 -1359092215 -1835752122 226121915 -1333920260 -550539993
REM
CELL 1.54180   50.00000   50.00000   50.00000   90.00000   90.00000   90.00000
LATT -1
SFAC C  
C      1  0.4379290000000  0.4714490000000  0.4906560000000 1.0
C      1  0.5916510000000  0.4837350000000  0.4803540000000 1.0
C      1  0.4755800000000  0.5942530000000  0.4422120000000 1.0
C      1  0.4836570000000  0.4572530000000  0.5629670000000 1.0
C      1  0.5021690000000  0.4542420000000  0.5982920000000 1.0
C      1  0.5387190000000  0.4665580000000  0.4657670000000 1.0
C      1  0.5192850000000  0.4213910000000  0.5134210000000 1.0
C      1  0.5457560000000  0.4819110000000  0.5334840000000 1.0
C      1  0.4485060000000  0.5847120000000  0.5151570000000 1.0
C      1  0.5571400000000  0.5491000000000  0.4250660000000 1.0
C      1  0.4898330000000  0.4323800000000  0.5069140000000 1.0
C      1  0.4870920000000  0.5948010000000  0.4936540000000 1.0
C      1  0.5608640000000  0.5675960000000  0.5359730000000 1.0
C      1  0.4067390000000  0.5177610000000  0.4801080000000 1.0
C      1  0.4327490000000  0.4502760000000  0.4452730000000 1.0
C      1  0.4877330000000  0.5872940000000  0.5455130000000 1.0
C      1  0.5955820000000  0.5264510000000  0.5194690000000 1.0
C      1  0.5704500000000  0.4755560000000  0.4595140000000 1.0
C      1  0.4368960000000  0.4833720000000  0.5493250000000 1.0
C      1  0.5501890000000  0.5742850000000  0.5048160000000 1.0
C      1  0.5260320000000  0.4464610000000  0.3926940000000 1.0
C      1  0.4641260000000  0.4743670000000  0.4397440000000 1.0
C      1  0.5271210000000  0.5926760000000  0.4604100000000 1.0
C      1  0.5610830000000  0.4719770000000  0.4131330000000 1.0
C      1  0.4307350000000  0.5625780000000  0.4190210000000 1.0
C      1  0.5848610000000  0.4519230000000  0.4445740000000 1.0
C      1  0.5799780000000  0.5210170000000  0.5673700000000 1.0
C      1  0.4944940000000  0.4779810000000  0.4810840000000 1.0
C      1  0.5570930000000  0.5187300000000  0.4180780000000 1.0
C      1  0.5646880000000  0.4627970000000  0.5122310000000 1.0
C      1  0.4146820000000  0.5445210000000  0.4260610000000 1.0
C      1  0.4631440000000  0.5049140000000  0.5221480000000 1.0
C      1  0.4628010000000  0.5448690000000  0.5209720000000 1.0
C      1  0.5523790000000  0.5042040000000  0.4547440000000 1.0
C      1  0.5672790000000  0.4328850000000  0.5069320000000 1.0
C      1  0.5426170000000  0.4212760000000  0.4916510000000 1.0
C      1  0.5275940000000  0.4115720000000  0.5395440000000 1.0
C      1  0.5389660000000  0.4727740000000  0.3919160000000 1.0
C      1  0.5782090000000  0.5043950000000  0.5015290000000 1.0
C      1  0.5299210000000  0.4551890000000  0.5800020000000 1.0
C      1  0.4287590000000  0.4750200000000  0.4578420000000 1.0
C      1  0.5875390000000  0.5474780000000  0.4643210000000 1.0
C      1  0.5141620000000  0.4604130000000  0.5218170000000 1.0
C      1  0.5241920000000  0.5553610000000  0.4811240000000 1.0
C      1  0.4882490000000  0.4053330000000  0.5787780000000 1.0
C      1  0.5536140000000  0.4233750000000  0.5502510000000 1.0
C      1  0.5737920000000  0.4197460000000  0.5301930000000 1.0
C      1  0.5756350000000  0.4264010000000  0.4469920000000 1.0
C      1  0.5769650000000  0.5658260000000  0.4166610000000 1.0
C      1  0.4340630000000  0.5780340000000  0.4858730000000 1.0
C      1  0.4882320000000  0.5469770000000  0.4659920000000 1.0
C      1  0.4656820000000  0.5110070000000  0.4731610000000 1.0
C      1  0.5778260000000  0.5387300000000  0.5415630000000 1.0
C      1  0.5293670000000  0.5054380000000  0.4296760000000 1.0
C      1  0.4635550000000  0.4640160000000  0.4078080000000 1.0
C      1  0.5250740000000  0.4405620000000  0.4213060000000 1.0
C      1  0.5390740000000  0.5736500000000  0.5545420000000 1.0
C      1  0.6062560000000  0.4980630000000  0.5288710000000 1.0
C      1  0.5321170000000  0.4813020000000  0.5619400000000 1.0
C      1  0.4779680000000  0.5338890000000  0.5919970000000 1.0
C      1  0.4879960000000  0.4873660000000  0.5617370000000 1.0
C      1  0.5053670000000  0.5146230000000  0.5975560000000 1.0
C      1  0.4573100000000  0.5679750000000  0.4357150000000 1.0
C      1  0.5205680000000  0.5315330000000  0.5739410000000 1.0
C      1  0.4675030000000  0.4168010000000  0.4641070000000 1.0
C      1  0.4751870000000  0.5329180000000  0.5478360000000 1.0
C      1  0.6020970000000  0.5111040000000  0.4702120000000 1.0
C      1  0.5077810000000  0.5203360000000  0.5198510000000 1.0
C      1  0.5281660000000  0.5942940000000  0.5055260000000 1.0
C      1  0.4475030000000  0.5368510000000  0.5759070000000 1.0
C      1  0.4203710000000  0.5267010000000  0.4517360000000 1.0
C      1  0.6028520000000  0.4736900000000  0.5074020000000 1.0
C      1  0.5361790000000  0.5173080000000  0.4800630000000 1.0
C      1  0.5495260000000  0.5300730000000  0.5286060000000 1.0
C      1  0.4979820000000  0.4853070000000  0.5911720000000 1.0
C      1  0.4472250000000  0.5663740000000  0.5626580000000 1.0
C      1  0.4333320000000  0.5714620000000  0.5384860000000 1.0
C      1  0.4068150000000  0.4969030000000  0.5546660000000 1.0
C      1  0.4180500000000  0.5600080000000  0.5102850000000 1.0
C      1  0.4056540000000  0.4496100000000  0.5236420000000 1.0
C      1  0.5805380000000  0.5198540000000  0.4503090000000 1.0
C      1  0.4419470000000  0.5048770000000  0.4506810000000 1.0
C      1  0.5014420000000  0.5038410000000  0.4945470000000 1.0
C      1  0.5007160000000  0.4474230000000  0.4344920000000 1.0
C      1  0.4356010000000  0.4380430000000  0.4941360000000 1.0
C      1  0.5465600000000  0.4558520000000  0.4343070000000 1.0
C      1  0.4723530000000  0.5056410000000  0.4348400000000 1.0
C      1  0.5743220000000  0.4974120000000  0.4145450000000 1.0
C      1  0.4157310000000  0.4952330000000  0.5022410000000 1.0
C      1  0.4342110000000  0.5573590000000  0.4585150000000 1.0
C      1  0.5092120000000  0.4714980000000  0.4527300000000 1.0
C      1  0.5687040000000  0.5670540000000  0.4588610000000 1.0
C      1  0.5068350000000  0.5528710000000  0.5104610000000 1.0
C      1  0.5110130000000  0.4472380000000  0.5458440000000 1.0
C      1  0.4624210000000  0.5030300000000  0.5581640000000 1.0
C      1  0.5513370000000  0.5859020000000  0.4740560000000 1.0
C      1  0.5848890000000  0.4734160000000  0.5362930000000 1.0
C      1  0.4751170000000  0.4032100000000  0.5472630000000 1.0
C      1  0.5019530000000  0.5039610000000  0.4455720000000 1.0
C      1  0.5121590000000  0.5686490000000  0.5391700000000 1.0
C      1  0.4324300000000  0.5388310000000  0.4874980000000 1.0
C      1  0.4664400000000  0.5952570000000  0.4702540000000 1.0
C      1  0.5237970000000  0.5446560000000  0.4247120000000 1.0
C      1  0.4750220000000  0.4401090000000  0.4230850000000 1.0
C      1  0.3860410000000  0.4947420000000  0.5697560000000 1.0
C      1  0.4188920000000  0.5137450000000  0.5308350000000 1.0
C      1  0.4907600000000  0.5623100000000  0.5848660000000 1.0
C      1  0.4108930000000  0.4257750000000  0.4919830000000 1.0
C      1  0.5108310000000  0.4982020000000  0.5438970000000 1.0
C      1  0.4175590000000  0.4587030000000  0.5519580000000 1.0
C      1  0.4677240000000  0.4307080000000  0.5748700000000 1.0
C      1  0.4966890000000  0.5102460000000  0.4034330000000 1.0
C      1  0.5558730000000  0.4485110000000  0.5657970000000 1.0
C      1  0.5354180000000  0.5046960000000  0.5836380000000 1.0
C      1  0.5355030000000  0.4676430000000  0.4978170000000 1.0
C      1  0.4733720000000  0.4532250000000  0.5248930000000 1.0
C      1  0.4559710000000  0.5077260000000  0.5902460000000 1.0
C      1  0.4788420000000  0.5457360000000  0.4361770000000 1.0
C      1  0.5714500000000  0.4723000000000  0.5625340000000 1.0
C      1  0.5659380000000  0.4983110000000  0.5744910000000 1.0
C      1  0.5051780000000  0.5382420000000  0.5476220000000 1.0
C      1  0.4547710000000  0.4313270000000  0.4424110000000 1.0
C      1  0.4588540000000  0.4308010000000  0.5423010000000 1.0
C      1  0.4578920000000  0.5242450000000  0.4972900000000 1.0
C      1  0.4511770000000  0.4749850000000  0.5203290000000 1.0
C      1  0.4406330000000  0.5324440000000  0.5427420000000 1.0
C      1  0.3763730000000  0.4659070000000  0.4876930000000 1.0
C      1  0.3981320000000  0.4686640000000  0.5045660000000 1.0
C      1  0.4565440000000  0.4823660000000  0.6028240000000 1.0
C      1  0.4984180000000  0.4185100000000  0.4619430000000 1.0
C      1  0.4733410000000  0.5781390000000  0.5680530000000 1.0
C      1  0.5041410000000  0.5988690000000  0.4398650000000 1.0
C      1  0.5243260000000  0.4109220000000  0.4647220000000 1.0
C      1  0.4657460000000  0.4671090000000  0.4704500000000 1.0
C      1  0.5091770000000  0.4298850000000  0.5755800000000 1.0
C      1  0.4900440000000  0.4838990000000  0.5203400000000 1.0
C      1  0.5051990000000  0.5220670000000  0.4700180000000 1.0
C      1  0.5020270000000  0.5772540000000  0.4733160000000 1.0
C      1  0.5206550000000  0.5627600000000  0.5776610000000 1.0
C      1  0.4604230000000  0.4240530000000  0.4914570000000 1.0
C      1  0.6032150000000  0.5348150000000  0.4897730000000 1.0
C      1  0.5550730000000  0.4144650000000  0.4607620000000 1.0
C      1  0.4687890000000  0.4582560000000  0.5943690000000 1.0
C      1  0.4015860000000  0.5315420000000  0.5106610000000 1.0
C      1  0.5070360000000  0.3975430000000  0.5522610000000 1.0
C      1  0.4797990000000  0.5739610000000  0.5164220000000 1.0
C      1  0.5481360000000  0.4985860000000  0.5040880000000 1.0
C      1  0.5225140000000  0.4953270000000  0.3991320000000 1.0
C      1  0.4717450000000  0.4929890000000  0.4049190000000 1.0
C      1  0.4986260000000  0.5349410000000  0.4188370000000 1.0
C      1  0.4292960000000  0.4325660000000  0.5389420000000 1.0
C      1  0.4910670000000  0.4457140000000  0.4781010000000 1.0
C      1  0.4650740000000  0.5644710000000  0.4806270000000 1.0
C      1  0.5441410000000  0.5408580000000  0.5032670000000 1.0
C      1  0.5384360000000  0.5543790000000  0.4533030000000 1.0
END
