TITL C-2778427-5640-1182 0.00107795719371305 125000 -478.279121118522 0 0 86 (C1) n - 1
REM
REM in /home/nfs/bkarasulu/CARBON/AIRSS/Generating-Clusters/REBO/Only-C1/SD-CG/HFTN-CG
REM
REM
REM
REM
REM
REM ./C.cell (11c1c37f851c82e70ff6c80c92926a4b)
REM
REM compiler GCC version 9.2.1 20190827 (Red Hat 9.2.1-1)
REM options -cpp -mtune=generic -march=x86-64 -g -O0 -fpre-include=/usr/include/finclude/math-vector-fortran.h
REM seed 1750087790 -2143676348 1868704920 105558391 1651323186 -2131809919 1334635051 -545982063 -1166027349 -869869691 1093326762 -244049476 -645556553 1745471455 615942086 -956976338 -794636141 -270074995 1401064872 -2083472899 -1387814232 -1113662408 -561815881 -2014021434 1416327109 -1600902613 -827206062 -1440757066 1168002341 333147064 -1243391992 736665561 -5108133
REM
CELL 1.54180   50.00000   50.00000   50.00000   90.00000   90.00000   90.00000
LATT -1
SFAC C  
C      1  0.5017810000000  0.4158560000000  0.5177860000000 1.0
C      1  0.4801460000000  0.4569320000000  0.5377470000000 1.0
C      1  0.5477510000000  0.5447130000000  0.4508520000000 1.0
C      1  0.4661000000000  0.4625050000000  0.4318570000000 1.0
C      1  0.4284860000000  0.5158140000000  0.4590840000000 1.0
C      1  0.5167260000000  0.5011590000000  0.4123450000000 1.0
C      1  0.4308020000000  0.5077760000000  0.5383990000000 1.0
C      1  0.5293840000000  0.4791230000000  0.4793450000000 1.0
C      1  0.5588920000000  0.4846620000000  0.6126410000000 1.0
C      1  0.5271240000000  0.4925250000000  0.5195920000000 1.0
C      1  0.5229200000000  0.4355390000000  0.4446310000000 1.0
C      1  0.5198220000000  0.5086850000000  0.4806190000000 1.0
C      1  0.4377950000000  0.4659050000000  0.4474460000000 1.0
C      1  0.4525980000000  0.5365940000000  0.4470470000000 1.0
C      1  0.5252930000000  0.5054530000000  0.5723580000000 1.0
C      1  0.4364780000000  0.4637220000000  0.5094700000000 1.0
C      1  0.5554570000000  0.5370620000000  0.5304280000000 1.0
C      1  0.4952010000000  0.5146720000000  0.4985940000000 1.0
C      1  0.4770320000000  0.4271910000000  0.5238610000000 1.0
C      1  0.5649190000000  0.4854840000000  0.5298900000000 1.0
C      1  0.4801700000000  0.5046460000000  0.4565020000000 1.0
C      1  0.5127510000000  0.4619880000000  0.4975220000000 1.0
C      1  0.4476510000000  0.5675510000000  0.4425670000000 1.0
C      1  0.5338220000000  0.5520840000000  0.5679630000000 1.0
C      1  0.5023400000000  0.5178770000000  0.5375950000000 1.0
C      1  0.5188850000000  0.5456730000000  0.5435060000000 1.0
C      1  0.5266470000000  0.4682400000000  0.4496910000000 1.0
C      1  0.4948500000000  0.4767840000000  0.4555340000000 1.0
C      1  0.5238910000000  0.5207040000000  0.4529420000000 1.0
C      1  0.4614750000000  0.5292910000000  0.5848350000000 1.0
C      1  0.4746410000000  0.4992910000000  0.5627940000000 1.0
C      1  0.5329790000000  0.5461650000000  0.4821690000000 1.0
C      1  0.5130180000000  0.4223960000000  0.4736020000000 1.0
C      1  0.4999140000000  0.4875310000000  0.5691300000000 1.0
C      1  0.5793100000000  0.5000220000000  0.5042640000000 1.0
C      1  0.5231420000000  0.4377240000000  0.5172070000000 1.0
C      1  0.4698010000000  0.5109240000000  0.5308610000000 1.0
C      1  0.4787400000000  0.5605490000000  0.5488910000000 1.0
C      1  0.4377670000000  0.4669660000000  0.5603630000000 1.0
C      1  0.5440840000000  0.5085280000000  0.5441640000000 1.0
C      1  0.4776220000000  0.5346270000000  0.4689270000000 1.0
C      1  0.4486090000000  0.4547440000000  0.5381540000000 1.0
C      1  0.5424280000000  0.4389180000000  0.4718530000000 1.0
C      1  0.4718180000000  0.4943310000000  0.5011160000000 1.0
C      1  0.5417110000000  0.4638390000000  0.5249640000000 1.0
C      1  0.5023720000000  0.5706910000000  0.5291300000000 1.0
C      1  0.5137650000000  0.5337420000000  0.5811440000000 1.0
C      1  0.5027350000000  0.5515320000000  0.4673990000000 1.0
C      1  0.4826630000000  0.4671620000000  0.4931300000000 1.0
C      1  0.4499750000000  0.4967660000000  0.4444710000000 1.0
C      1  0.5720420000000  0.4672990000000  0.5010410000000 1.0
C      1  0.5553310000000  0.5127560000000  0.4420190000000 1.0
C      1  0.5265250000000  0.5691500000000  0.4502120000000 1.0
C      1  0.4576460000000  0.5337640000000  0.5517700000000 1.0
C      1  0.5628250000000  0.4576770000000  0.4753020000000 1.0
C      1  0.4961080000000  0.5798050000000  0.4503050000000 1.0
C      1  0.5644530000000  0.4810150000000  0.4509840000000 1.0
C      1  0.5045780000000  0.5204280000000  0.4290240000000 1.0
C      1  0.4871320000000  0.5428850000000  0.5767890000000 1.0
C      1  0.4211830000000  0.4860380000000  0.4694000000000 1.0
C      1  0.4385830000000  0.5278640000000  0.5125650000000 1.0
C      1  0.4977100000000  0.4849180000000  0.5293570000000 1.0
C      1  0.5028080000000  0.4605320000000  0.5600910000000 1.0
C      1  0.4401680000000  0.4944660000000  0.5093570000000 1.0
C      1  0.5621760000000  0.5285350000000  0.4823040000000 1.0
C      1  0.5319240000000  0.5817850000000  0.5323910000000 1.0
C      1  0.4912170000000  0.5420260000000  0.5157770000000 1.0
C      1  0.4866190000000  0.4189460000000  0.4778880000000 1.0
C      1  0.4624160000000  0.4442430000000  0.5022150000000 1.0
C      1  0.5326870000000  0.5242670000000  0.5085130000000 1.0
C      1  0.4545990000000  0.5546490000000  0.5256050000000 1.0
C      1  0.4650890000000  0.5407060000000  0.4963120000000 1.0
C      1  0.5580190000000  0.4971590000000  0.4786580000000 1.0
C      1  0.4325800000000  0.4545490000000  0.4778440000000 1.0
C      1  0.5517920000000  0.5669320000000  0.5355060000000 1.0
C      1  0.4760810000000  0.4930520000000  0.4243250000000 1.0
C      1  0.4803050000000  0.5326100000000  0.4281870000000 1.0
C      1  0.4438710000000  0.4950340000000  0.5606530000000 1.0
C      1  0.4694260000000  0.5843600000000  0.4436820000000 1.0
C      1  0.5401420000000  0.4859920000000  0.4274770000000 1.0
C      1  0.4538780000000  0.4279170000000  0.4749230000000 1.0
C      1  0.4957490000000  0.4488590000000  0.4351710000000 1.0
C      1  0.4717310000000  0.4535640000000  0.4645250000000 1.0
C      1  0.5779900000000  0.5312110000000  0.5095780000000 1.0
C      1  0.5266370000000  0.4482800000000  0.5494500000000 1.0
C      1  0.5436970000000  0.4940650000000  0.5944220000000 1.0
END
