TITL C-2778437-8639-382 2.4390779090334e-07 125000 -77.7740872707591 0 0 14 (Cs) n - 1
REM
REM in /home/nfs/bkarasulu/CARBON/AIRSS/Generating-Clusters/REBO/Only-C1/SD-CG/HFTN-CG
REM
REM
REM
REM
REM
REM ./C.cell (11c1c37f851c82e70ff6c80c92926a4b)
REM
REM compiler GCC version 9.2.1 20190827 (Red Hat 9.2.1-1)
REM options -cpp -mtune=generic -march=x86-64 -g -O0 -fpre-include=/usr/include/finclude/math-vector-fortran.h
REM seed 985850515 -293283665 -519328328 -1985427467 1562644938 -1842008806 -471481331 -1243942358 900103602 -1925124936 49270582 -251647187 1602942880 796579943 1767261435 -1255007437 -588089584 -2062978649 97818212 -1018231976 1685813683 1324695655 -75329980 -1324987582 405410043 -911713400 1150452335 -841038667 1615243197 1716578169 -1796310510 1405720003 1911844920
REM
CELL 1.54180   50.00000   50.00000   50.00000   90.00000   90.00000   90.00000
LATT -1
SFAC C  
C      1  0.3854460000000  0.4239060000000  0.4792910000000 1.0
C      1  0.5308020000000  0.5199300000000  0.5066260000000 1.0
C      1  0.5397720000000  0.4932840000000  0.5732580000000 1.0
C      1  0.4512860000000  0.4624810000000  0.5014820000000 1.0
C      1  0.5424450000000  0.5370960000000  0.4899240000000 1.0
C      1  0.4954130000000  0.4883350000000  0.5163540000000 1.0
C      1  0.5771900000000  0.5883220000000  0.4400840000000 1.0
C      1  0.5185770000000  0.5019070000000  0.5241610000000 1.0
C      1  0.4292220000000  0.4495540000000  0.4940450000000 1.0
C      1  0.5657320000000  0.5714290000000  0.4565210000000 1.0
C      1  0.4733490000000  0.4754080000000  0.5089180000000 1.0
C      1  0.5540890000000  0.5542630000000  0.4732220000000 1.0
C      1  0.4071590000000  0.4366280000000  0.4866090000000 1.0
C      1  0.5295180000000  0.4974560000000  0.5495040000000 1.0
END
