TITL C-2778431-5191-79 -0.00169461361929405 125000 -1014.44687651933 0 0 176 (C1) n - 1
REM
REM in /home/nfs/bkarasulu/CARBON/AIRSS/Generating-Clusters/REBO/Only-C1/SD-CG/HFTN-CG
REM
REM
REM
REM
REM
REM ./C.cell (11c1c37f851c82e70ff6c80c92926a4b)
REM
REM compiler GCC version 9.2.1 20190827 (Red Hat 9.2.1-1)
REM options -cpp -mtune=generic -march=x86-64 -g -O0 -fpre-include=/usr/include/finclude/math-vector-fortran.h
REM seed 466490599 -1368240360 -1748175978 -160938765 -41973934 117792472 -1643580989 -1975242364 1798081625 -235141253 582412971 -1931900602 1548040290 1414463009 1938387603 469226500 -354081063 212155092 -772229741 -2012289982 1681407768 673762384 1152723658 -1791371311 1325545185 389864067 -1323612479 1377426762 2055458767 -26454525 1618932288 568547851 1328912091
REM
CELL 1.54180   50.00000   50.00000   50.00000   90.00000   90.00000   90.00000
LATT -1
SFAC C  
C      1  0.5119270000000  0.4993840000000  0.6097260000000 1.0
C      1  0.4137700000000  0.4531790000000  0.4698450000000 1.0
C      1  0.4441950000000  0.4110380000000  0.4803820000000 1.0
C      1  0.5820920000000  0.5759830000000  0.5273570000000 1.0
C      1  0.4619640000000  0.3972720000000  0.5258930000000 1.0
C      1  0.4724290000000  0.5738450000000  0.5564690000000 1.0
C      1  0.5591340000000  0.5417280000000  0.4166000000000 1.0
C      1  0.5821770000000  0.4872010000000  0.5599660000000 1.0
C      1  0.5464000000000  0.5028120000000  0.5901060000000 1.0
C      1  0.4505790000000  0.5160810000000  0.5889450000000 1.0
C      1  0.5020310000000  0.5266890000000  0.5213080000000 1.0
C      1  0.5257080000000  0.5079150000000  0.5260600000000 1.0
C      1  0.4636720000000  0.4879320000000  0.5640180000000 1.0
C      1  0.5252930000000  0.5130510000000  0.3875700000000 1.0
C      1  0.5227530000000  0.5616320000000  0.4273750000000 1.0
C      1  0.4909640000000  0.5331720000000  0.5498990000000 1.0
C      1  0.4910310000000  0.4041400000000  0.4803500000000 1.0
C      1  0.4331220000000  0.4904500000000  0.5747200000000 1.0
C      1  0.5211660000000  0.5050020000000  0.4864940000000 1.0
C      1  0.5356420000000  0.5455700000000  0.5745950000000 1.0
C      1  0.3947330000000  0.4774290000000  0.5067030000000 1.0
C      1  0.5541800000000  0.5877870000000  0.4852920000000 1.0
C      1  0.4419300000000  0.5319180000000  0.4244410000000 1.0
C      1  0.4976110000000  0.5936220000000  0.5524430000000 1.0
C      1  0.5764910000000  0.5030090000000  0.4402470000000 1.0
C      1  0.3964630000000  0.5192630000000  0.5318750000000 1.0
C      1  0.5372980000000  0.5326000000000  0.5437580000000 1.0
C      1  0.4663200000000  0.5592660000000  0.5041390000000 1.0
C      1  0.4666230000000  0.5353220000000  0.5655370000000 1.0
C      1  0.4532060000000  0.5813490000000  0.4367510000000 1.0
C      1  0.5215740000000  0.4966890000000  0.4237030000000 1.0
C      1  0.4384990000000  0.4049610000000  0.5074240000000 1.0
C      1  0.4436410000000  0.5521200000000  0.4472060000000 1.0
C      1  0.5537750000000  0.4887090000000  0.4223100000000 1.0
C      1  0.5360150000000  0.4973150000000  0.5625210000000 1.0
C      1  0.5591960000000  0.4635440000000  0.4942350000000 1.0
C      1  0.5328180000000  0.5343170000000  0.4455420000000 1.0
C      1  0.5804100000000  0.4651100000000  0.4411560000000 1.0
C      1  0.4644850000000  0.6060390000000  0.5105970000000 1.0
C      1  0.4190750000000  0.5088700000000  0.5074330000000 1.0
C      1  0.4340970000000  0.5166630000000  0.4626630000000 1.0
C      1  0.5151750000000  0.3914560000000  0.5176850000000 1.0
C      1  0.4788110000000  0.4658950000000  0.3967010000000 1.0
C      1  0.5543650000000  0.4815540000000  0.5432510000000 1.0
C      1  0.4767890000000  0.4147940000000  0.5731770000000 1.0
C      1  0.5690330000000  0.4501780000000  0.4702330000000 1.0
C      1  0.5582690000000  0.4890660000000  0.5132920000000 1.0
C      1  0.5103540000000  0.6175140000000  0.5093560000000 1.0
C      1  0.5110450000000  0.4603840000000  0.4364860000000 1.0
C      1  0.5198040000000  0.3910950000000  0.5715430000000 1.0
C      1  0.4348540000000  0.5035440000000  0.4250980000000 1.0
C      1  0.5152010000000  0.5685500000000  0.5102130000000 1.0
C      1  0.5532490000000  0.5160410000000  0.4014870000000 1.0
C      1  0.5008570000000  0.4228270000000  0.4463890000000 1.0
C      1  0.5070120000000  0.4884680000000  0.4536780000000 1.0
C      1  0.5892060000000  0.5149700000000  0.5600750000000 1.0
C      1  0.5162710000000  0.5737310000000  0.5732600000000 1.0
C      1  0.4366960000000  0.4485060000000  0.5532980000000 1.0
C      1  0.5280580000000  0.4035000000000  0.5450090000000 1.0
C      1  0.4958430000000  0.3966770000000  0.5831090000000 1.0
C      1  0.5012560000000  0.4916340000000  0.3968460000000 1.0
C      1  0.5773730000000  0.4523600000000  0.3880220000000 1.0
C      1  0.5671990000000  0.5917690000000  0.5084840000000 1.0
C      1  0.5819620000000  0.4878080000000  0.4671340000000 1.0
C      1  0.5007570000000  0.5509690000000  0.5933170000000 1.0
C      1  0.4870690000000  0.4963350000000  0.5872500000000 1.0
C      1  0.5996450000000  0.5562750000000  0.5173190000000 1.0
C      1  0.5266530000000  0.4740600000000  0.4940800000000 1.0
C      1  0.4533850000000  0.5741550000000  0.5319260000000 1.0
C      1  0.3944440000000  0.5017940000000  0.4849940000000 1.0
C      1  0.5079720000000  0.4275100000000  0.5331880000000 1.0
C      1  0.5078900000000  0.4253910000000  0.4179850000000 1.0
C      1  0.4936790000000  0.5944030000000  0.4682210000000 1.0
C      1  0.4689190000000  0.4382520000000  0.5046310000000 1.0
C      1  0.4765000000000  0.4354980000000  0.4522730000000 1.0
C      1  0.5666910000000  0.5301550000000  0.4463880000000 1.0
C      1  0.5269030000000  0.4766970000000  0.6131010000000 1.0
C      1  0.5463800000000  0.4451050000000  0.4472000000000 1.0
C      1  0.4575320000000  0.4067220000000  0.5544590000000 1.0
C      1  0.4893380000000  0.4355400000000  0.3995720000000 1.0
C      1  0.5452850000000  0.4783240000000  0.4546370000000 1.0
C      1  0.4876900000000  0.5398820000000  0.4384900000000 1.0
C      1  0.5752480000000  0.4541020000000  0.5229980000000 1.0
C      1  0.4641540000000  0.5934560000000  0.4835930000000 1.0
C      1  0.5435530000000  0.4689010000000  0.5893280000000 1.0
C      1  0.6015000000000  0.5252690000000  0.5312740000000 1.0
C      1  0.5201860000000  0.4176950000000  0.4740570000000 1.0
C      1  0.4499230000000  0.4398760000000  0.4364710000000 1.0
C      1  0.5389200000000  0.4517570000000  0.5646230000000 1.0
C      1  0.5528850000000  0.5197300000000  0.5095100000000 1.0
C      1  0.4584910000000  0.5349660000000  0.5266230000000 1.0
C      1  0.5186930000000  0.5299730000000  0.4156610000000 1.0
C      1  0.4859060000000  0.5071740000000  0.4361780000000 1.0
C      1  0.4489560000000  0.4803870000000  0.4045680000000 1.0
C      1  0.5413500000000  0.5811450000000  0.5540850000000 1.0
C      1  0.4379480000000  0.5514070000000  0.5756740000000 1.0
C      1  0.4316960000000  0.4599030000000  0.4240880000000 1.0
C      1  0.5350490000000  0.3962000000000  0.4958220000000 1.0
C      1  0.5623360000000  0.4588480000000  0.4132690000000 1.0
C      1  0.5070110000000  0.5264890000000  0.4636880000000 1.0
C      1  0.4681310000000  0.5318920000000  0.4112990000000 1.0
C      1  0.4389320000000  0.6024350000000  0.5263100000000 1.0
C      1  0.5463370000000  0.5357110000000  0.4829290000000 1.0
C      1  0.4791250000000  0.5261920000000  0.6020160000000 1.0
C      1  0.4985550000000  0.5631280000000  0.5371770000000 1.0
C      1  0.4715890000000  0.5030910000000  0.4643120000000 1.0
C      1  0.4322380000000  0.5548970000000  0.5041790000000 1.0
C      1  0.6070540000000  0.5090280000000  0.5028800000000 1.0
C      1  0.4443120000000  0.6023680000000  0.4247790000000 1.0
C      1  0.4335210000000  0.5062400000000  0.5381160000000 1.0
C      1  0.5986580000000  0.4619130000000  0.5032890000000 1.0
C      1  0.5686280000000  0.5413450000000  0.5664870000000 1.0
C      1  0.4751340000000  0.4517070000000  0.4782190000000 1.0
C      1  0.4871240000000  0.5570500000000  0.4798990000000 1.0
C      1  0.4719450000000  0.5050000000000  0.3989470000000 1.0
C      1  0.5522170000000  0.5035220000000  0.4731080000000 1.0
C      1  0.4098160000000  0.4556380000000  0.4976700000000 1.0
C      1  0.3965030000000  0.4883120000000  0.5331540000000 1.0
C      1  0.5377040000000  0.5619230000000  0.5304320000000 1.0
C      1  0.4619090000000  0.5354730000000  0.4712400000000 1.0
C      1  0.5648960000000  0.4353410000000  0.5567730000000 1.0
C      1  0.4795720000000  0.5691360000000  0.4496920000000 1.0
C      1  0.5541340000000  0.5672490000000  0.4387840000000 1.0
C      1  0.4329930000000  0.4750970000000  0.5236910000000 1.0
C      1  0.5248840000000  0.5275260000000  0.5995920000000 1.0
C      1  0.5069450000000  0.4537070000000  0.5112950000000 1.0
C      1  0.5565910000000  0.4138860000000  0.5113520000000 1.0
C      1  0.5089310000000  0.5905180000000  0.4380190000000 1.0
C      1  0.4779660000000  0.4583960000000  0.5270920000000 1.0
C      1  0.4850810000000  0.4869750000000  0.5139080000000 1.0
C      1  0.5998640000000  0.4856060000000  0.4902580000000 1.0
C      1  0.5573940000000  0.4131520000000  0.5406280000000 1.0
C      1  0.5098370000000  0.4536800000000  0.5518180000000 1.0
C      1  0.4247830000000  0.5212190000000  0.5669500000000 1.0
C      1  0.4672350000000  0.5040160000000  0.5364430000000 1.0
C      1  0.4116450000000  0.5440840000000  0.5247000000000 1.0
C      1  0.4149460000000  0.4724630000000  0.4475800000000 1.0
C      1  0.5320640000000  0.4352020000000  0.5012000000000 1.0
C      1  0.4169510000000  0.4735740000000  0.5539450000000 1.0
C      1  0.4115490000000  0.5541700000000  0.4703830000000 1.0
C      1  0.4538260000000  0.4854860000000  0.4444150000000 1.0
C      1  0.4812740000000  0.4744750000000  0.4272660000000 1.0
C      1  0.4866130000000  0.4637030000000  0.5970080000000 1.0
C      1  0.5859030000000  0.5405350000000  0.4708020000000 1.0
C      1  0.4919730000000  0.5204310000000  0.4935940000000 1.0
C      1  0.5212900000000  0.5587720000000  0.4808620000000 1.0
C      1  0.5979850000000  0.4420680000000  0.4575900000000 1.0
C      1  0.5425000000000  0.4526970000000  0.5289020000000 1.0
C      1  0.4395770000000  0.4372570000000  0.4672130000000 1.0
C      1  0.4357230000000  0.5514450000000  0.5437020000000 1.0
C      1  0.5631580000000  0.5618320000000  0.4699530000000 1.0
C      1  0.5695400000000  0.5710220000000  0.5526530000000 1.0
C      1  0.4409040000000  0.5710320000000  0.4756430000000 1.0
C      1  0.4850170000000  0.4441030000000  0.5726840000000 1.0
C      1  0.3989760000000  0.5333000000000  0.4741940000000 1.0
C      1  0.4885350000000  0.4823980000000  0.4819370000000 1.0
C      1  0.6014350000000  0.5372160000000  0.4932640000000 1.0
C      1  0.5851930000000  0.4579690000000  0.5527540000000 1.0
C      1  0.5077600000000  0.4823060000000  0.5387830000000 1.0
C      1  0.4321840000000  0.4212330000000  0.5368890000000 1.0
C      1  0.4495010000000  0.4707780000000  0.4725420000000 1.0
C      1  0.4871290000000  0.4103810000000  0.5120920000000 1.0
C      1  0.4658060000000  0.4588380000000  0.5536920000000 1.0
C      1  0.4670790000000  0.3980990000000  0.4691370000000 1.0
C      1  0.4601260000000  0.5173810000000  0.4996610000000 1.0
C      1  0.4887170000000  0.6128500000000  0.5272280000000 1.0
C      1  0.5231220000000  0.4553790000000  0.4680270000000 1.0
C      1  0.5342230000000  0.4428200000000  0.4181470000000 1.0
C      1  0.4371160000000  0.4443300000000  0.5137340000000 1.0
C      1  0.5055560000000  0.5066810000000  0.5605900000000 1.0
C      1  0.5316110000000  0.5829940000000  0.4599000000000 1.0
C      1  0.4136420000000  0.4991270000000  0.4594350000000 1.0
C      1  0.4441360000000  0.4899600000000  0.4958600000000 1.0
C      1  0.5693740000000  0.5352390000000  0.5325300000000 1.0
C      1  0.4689890000000  0.5614220000000  0.5861700000000 1.0
C      1  0.5131040000000  0.5959270000000  0.4925840000000 1.0
END
