TITL C-2778433-5640-1385 -2.76831361574402e-05 125000 -143.293608639137 0 0 26 (C1) n - 1
REM
REM in /home/nfs/bkarasulu/CARBON/AIRSS/Generating-Clusters/REBO/Only-C1/SD-CG/HFTN-CG
REM
REM
REM
REM
REM
REM ./C.cell (11c1c37f851c82e70ff6c80c92926a4b)
REM
REM compiler GCC version 9.2.1 20190827 (Red Hat 9.2.1-1)
REM options -cpp -mtune=generic -march=x86-64 -g -O0 -fpre-include=/usr/include/finclude/math-vector-fortran.h
REM seed 442044146 -1374305119 1063301379 -453694698 -524327396 2115977575 -1959306618 423097394 -1798375274 -1566026165 -362275667 -802156497 1793239672 1897558313 1962036627 -1514389073 -317459182 1910501886 -1112232159 -1438494082 1249558478 -1300509473 -409968030 426232020 1154437746 1049463310 1435825501 -1021499271 -2075155458 -95005192 1630868527 1731095919 1184209593
REM
CELL 1.54180   50.00000   50.00000   50.00000   90.00000   90.00000   90.00000
LATT -1
SFAC C  
C      1  0.4625940000000  0.5059030000000  0.4717430000000 1.0
C      1  0.4657550000000  0.5138280000000  0.5010950000000 1.0
C      1  0.5338270000000  0.4870260000000  0.5453840000000 1.0
C      1  0.5745230000000  0.5689610000000  0.5796880000000 1.0
C      1  0.4273430000000  0.5514080000000  0.5173200000000 1.0
C      1  0.4942610000000  0.5259650000000  0.4998400000000 1.0
C      1  0.5237990000000  0.4562450000000  0.5401840000000 1.0
C      1  0.4448060000000  0.5343230000000  0.5099440000000 1.0
C      1  0.4938860000000  0.4319340000000  0.4769040000000 1.0
C      1  0.5600420000000  0.5511430000000  0.5670530000000 1.0
C      1  0.4838260000000  0.5193010000000  0.4490920000000 1.0
C      1  0.5298740000000  0.5140210000000  0.5407290000000 1.0
C      1  0.5087740000000  0.5406090000000  0.4446720000000 1.0
C      1  0.4658710000000  0.4892320000000  0.5194250000000 1.0
C      1  0.4808830000000  0.4596890000000  0.4090910000000 1.0
C      1  0.5241490000000  0.5544560000000  0.4275450000000 1.0
C      1  0.5007070000000  0.4330770000000  0.5029530000000 1.0
C      1  0.4854130000000  0.4428890000000  0.4539160000000 1.0
C      1  0.5014230000000  0.5328440000000  0.4744060000000 1.0
C      1  0.5111680000000  0.5225250000000  0.5215910000000 1.0
C      1  0.4787580000000  0.4634860000000  0.4359750000000 1.0
C      1  0.4723710000000  0.4881290000000  0.4467510000000 1.0
C      1  0.5453280000000  0.5330370000000  0.5542130000000 1.0
C      1  0.5009530000000  0.4501570000000  0.5253090000000 1.0
C      1  0.5505550000000  0.4621250000000  0.5575540000000 1.0
C      1  0.4791080000000  0.4676870000000  0.5276240000000 1.0
END
