TITL C-2778424-3986-497 -0.00265262092516605 125000 -797.733382292384 0 0 135 (C1) n - 1
REM
REM in /home/nfs/bkarasulu/CARBON/AIRSS/Generating-Clusters/REBO/Only-C1/SD-CG/HFTN-CG
REM
REM
REM
REM
REM
REM ./C.cell (11c1c37f851c82e70ff6c80c92926a4b)
REM
REM compiler GCC version 9.2.1 20190827 (Red Hat 9.2.1-1)
REM options -cpp -mtune=generic -march=x86-64 -g -O0 -fpre-include=/usr/include/finclude/math-vector-fortran.h
REM seed 1987668264 -273258363 -1524673158 -158006325 592362397 1300978450 -2100506925 -655433641 1916883983 1075820576 1649212670 124215824 -830993150 2005946115 1689621322 237818079 1272201161 1591265020 -1097996730 -49323183 49588194 -567095275 2118520250 -368660142 952016549 974682205 1493388901 1719486165 1311613734 -1152431877 -533046148 1304959785 -646064900
REM
CELL 1.54180   50.00000   50.00000   50.00000   90.00000   90.00000   90.00000
LATT -1
SFAC C  
C      1  0.5688240000000  0.5294260000000  0.5150050000000 1.0
C      1  0.4113390000000  0.4593820000000  0.5505400000000 1.0
C      1  0.5806010000000  0.4547000000000  0.5430430000000 1.0
C      1  0.5241780000000  0.4437820000000  0.5207510000000 1.0
C      1  0.5021980000000  0.4439250000000  0.5398380000000 1.0
C      1  0.4386100000000  0.5159470000000  0.4375180000000 1.0
C      1  0.5618860000000  0.4236460000000  0.4922620000000 1.0
C      1  0.5113180000000  0.5380160000000  0.4062230000000 1.0
C      1  0.4675030000000  0.5883580000000  0.5337870000000 1.0
C      1  0.5911670000000  0.4645250000000  0.5032500000000 1.0
C      1  0.5291860000000  0.4618020000000  0.5752340000000 1.0
C      1  0.5727910000000  0.4903270000000  0.4427200000000 1.0
C      1  0.4231930000000  0.5866820000000  0.4477240000000 1.0
C      1  0.4543140000000  0.4372680000000  0.5504050000000 1.0
C      1  0.5260690000000  0.5353060000000  0.5858940000000 1.0
C      1  0.5141750000000  0.4028750000000  0.4666050000000 1.0
C      1  0.4235300000000  0.4591780000000  0.4401340000000 1.0
C      1  0.4470430000000  0.5023750000000  0.5528330000000 1.0
C      1  0.4327100000000  0.4293700000000  0.5337490000000 1.0
C      1  0.5494650000000  0.5287920000000  0.4113940000000 1.0
C      1  0.4377640000000  0.4663120000000  0.4156820000000 1.0
C      1  0.4757130000000  0.5304690000000  0.4351870000000 1.0
C      1  0.4685310000000  0.4950540000000  0.4824390000000 1.0
C      1  0.5511070000000  0.5097070000000  0.5323130000000 1.0
C      1  0.5039240000000  0.4094170000000  0.4348260000000 1.0
C      1  0.5738480000000  0.4603140000000  0.4584910000000 1.0
C      1  0.4508950000000  0.4812390000000  0.5345420000000 1.0
C      1  0.5445660000000  0.5689220000000  0.4537950000000 1.0
C      1  0.4197300000000  0.5047820000000  0.5627150000000 1.0
C      1  0.5020750000000  0.4336260000000  0.4108800000000 1.0
C      1  0.4047160000000  0.4801480000000  0.4468200000000 1.0
C      1  0.4321970000000  0.4273640000000  0.5063960000000 1.0
C      1  0.4031350000000  0.5221350000000  0.5459260000000 1.0
C      1  0.4315810000000  0.5605500000000  0.5483590000000 1.0
C      1  0.5587500000000  0.5725840000000  0.4813050000000 1.0
C      1  0.5040860000000  0.4988320000000  0.5277320000000 1.0
C      1  0.4982320000000  0.4912000000000  0.4052590000000 1.0
C      1  0.5515430000000  0.5493670000000  0.5053890000000 1.0
C      1  0.5213510000000  0.4349850000000  0.4457730000000 1.0
C      1  0.3831890000000  0.5667870000000  0.5485080000000 1.0
C      1  0.5566890000000  0.5196110000000  0.4495320000000 1.0
C      1  0.5740240000000  0.4344240000000  0.5231460000000 1.0
C      1  0.4731160000000  0.5210120000000  0.6063820000000 1.0
C      1  0.5680810000000  0.5593140000000  0.5415770000000 1.0
C      1  0.5438490000000  0.4204720000000  0.5192320000000 1.0
C      1  0.5526300000000  0.4422890000000  0.4432070000000 1.0
C      1  0.4472050000000  0.5302940000000  0.4881890000000 1.0
C      1  0.5203870000000  0.4813180000000  0.4417200000000 1.0
C      1  0.4604530000000  0.4332120000000  0.4385380000000 1.0
C      1  0.5049490000000  0.5404590000000  0.4355380000000 1.0
C      1  0.5939730000000  0.5179960000000  0.5478170000000 1.0
C      1  0.4709980000000  0.5808360000000  0.5613680000000 1.0
C      1  0.4881060000000  0.5880780000000  0.5132660000000 1.0
C      1  0.5095530000000  0.5135860000000  0.5926670000000 1.0
C      1  0.5011630000000  0.3945600000000  0.5126450000000 1.0
C      1  0.5406090000000  0.4991660000000  0.5691870000000 1.0
C      1  0.4476900000000  0.5481400000000  0.4305820000000 1.0
C      1  0.4955660000000  0.4082860000000  0.4878600000000 1.0
C      1  0.3999590000000  0.5124200000000  0.5195010000000 1.0
C      1  0.5545620000000  0.4785090000000  0.5247130000000 1.0
C      1  0.5531170000000  0.4701170000000  0.5559890000000 1.0
C      1  0.5880780000000  0.4856810000000  0.5452620000000 1.0
C      1  0.5154200000000  0.4956630000000  0.6177570000000 1.0
C      1  0.4196790000000  0.5010120000000  0.4579350000000 1.0
C      1  0.5876020000000  0.5596800000000  0.4922480000000 1.0
C      1  0.5287050000000  0.3938760000000  0.5202970000000 1.0
C      1  0.4566270000000  0.4598570000000  0.5677880000000 1.0
C      1  0.5374090000000  0.5643870000000  0.5300310000000 1.0
C      1  0.4732060000000  0.4592150000000  0.4518570000000 1.0
C      1  0.5324230000000  0.5426620000000  0.4830860000000 1.0
C      1  0.4615280000000  0.5479400000000  0.5076740000000 1.0
C      1  0.5359260000000  0.4681580000000  0.5022900000000 1.0
C      1  0.4455650000000  0.5702160000000  0.5254020000000 1.0
C      1  0.5137520000000  0.5469400000000  0.5417250000000 1.0
C      1  0.5688920000000  0.5071850000000  0.4787550000000 1.0
C      1  0.4724950000000  0.4124160000000  0.4315920000000 1.0
C      1  0.5731320000000  0.5329040000000  0.4007270000000 1.0
C      1  0.4675140000000  0.5261880000000  0.5564580000000 1.0
C      1  0.5232050000000  0.5146650000000  0.5438020000000 1.0
C      1  0.5062590000000  0.4589880000000  0.4037850000000 1.0
C      1  0.5039960000000  0.4615940000000  0.5626510000000 1.0
C      1  0.4810430000000  0.5055760000000  0.5781880000000 1.0
C      1  0.5906980000000  0.5170530000000  0.4539150000000 1.0
C      1  0.5006150000000  0.5032910000000  0.4737500000000 1.0
C      1  0.4880170000000  0.5665170000000  0.5818690000000 1.0
C      1  0.4457930000000  0.5715110000000  0.4467280000000 1.0
C      1  0.5083510000000  0.5304910000000  0.4665770000000 1.0
C      1  0.5640700000000  0.4780830000000  0.4859280000000 1.0
C      1  0.5261020000000  0.5097110000000  0.3989620000000 1.0
C      1  0.5094740000000  0.5642640000000  0.4723380000000 1.0
C      1  0.5841840000000  0.4438210000000  0.4833960000000 1.0
C      1  0.4894220000000  0.5088200000000  0.6268980000000 1.0
C      1  0.4688010000000  0.5481430000000  0.5989690000000 1.0
C      1  0.5501310000000  0.4729150000000  0.4292460000000 1.0
C      1  0.5118700000000  0.5551660000000  0.5715670000000 1.0
C      1  0.5102750000000  0.5875140000000  0.4937470000000 1.0
C      1  0.4802030000000  0.4901100000000  0.4517660000000 1.0
C      1  0.4393150000000  0.4870700000000  0.4807980000000 1.0
C      1  0.5373570000000  0.5861490000000  0.5041900000000 1.0
C      1  0.5095370000000  0.4836060000000  0.4976950000000 1.0
C      1  0.4875150000000  0.4578490000000  0.4992880000000 1.0
C      1  0.5526420000000  0.5276940000000  0.5753940000000 1.0
C      1  0.4824200000000  0.3996280000000  0.5330680000000 1.0
C      1  0.4260470000000  0.4682600000000  0.5273420000000 1.0
C      1  0.5895610000000  0.5626380000000  0.5227940000000 1.0
C      1  0.4766880000000  0.5012830000000  0.4233500000000 1.0
C      1  0.6027870000000  0.5316380000000  0.5178810000000 1.0
C      1  0.4493440000000  0.4339740000000  0.4850250000000 1.0
C      1  0.5731610000000  0.5363460000000  0.5587370000000 1.0
C      1  0.4429610000000  0.4484920000000  0.3958830000000 1.0
C      1  0.5434370000000  0.4203420000000  0.4677430000000 1.0
C      1  0.4735200000000  0.5721340000000  0.4907640000000 1.0
C      1  0.4795190000000  0.4261410000000  0.5420840000000 1.0
C      1  0.4760890000000  0.4812280000000  0.5191450000000 1.0
C      1  0.5049450000000  0.4591340000000  0.4484380000000 1.0
C      1  0.4050670000000  0.5506780000000  0.5492230000000 1.0
C      1  0.4801280000000  0.4756620000000  0.5707940000000 1.0
C      1  0.4809430000000  0.5126460000000  0.5072370000000 1.0
C      1  0.5801470000000  0.4987280000000  0.5159900000000 1.0
C      1  0.4570940000000  0.5282890000000  0.4636290000000 1.0
C      1  0.4108740000000  0.4840400000000  0.5090930000000 1.0
C      1  0.4225600000000  0.5128330000000  0.4952370000000 1.0
C      1  0.4692290000000  0.5787080000000  0.4633780000000 1.0
C      1  0.4079580000000  0.4793250000000  0.5697520000000 1.0
C      1  0.5387440000000  0.5420780000000  0.4395650000000 1.0
C      1  0.5327330000000  0.4816820000000  0.5976650000000 1.0
C      1  0.5327410000000  0.4779150000000  0.4039500000000 1.0
C      1  0.4907860000000  0.5915910000000  0.4498910000000 1.0
C      1  0.4532530000000  0.5520770000000  0.5691370000000 1.0
C      1  0.4834700000000  0.5356910000000  0.5307350000000 1.0
C      1  0.5200170000000  0.5868560000000  0.4499550000000 1.0
C      1  0.4429670000000  0.4571510000000  0.4653460000000 1.0
C      1  0.4781520000000  0.4327990000000  0.4901540000000 1.0
C      1  0.5949020000000  0.5285560000000  0.4848740000000 1.0
C      1  0.4472170000000  0.4933000000000  0.4159160000000 1.0
END
