TITL C-2778423-5760-53 -0.000690980553965542 125000 -781.246430159081 0 0 134 (C1) n - 1
REM
REM in /home/nfs/bkarasulu/CARBON/AIRSS/Generating-Clusters/REBO/Only-C1/SD-CG/HFTN-CG
REM
REM
REM
REM
REM
REM ./C.cell (11c1c37f851c82e70ff6c80c92926a4b)
REM
REM compiler GCC version 9.2.1 20190827 (Red Hat 9.2.1-1)
REM options -cpp -mtune=generic -march=x86-64 -g -O0 -fpre-include=/usr/include/finclude/math-vector-fortran.h
REM seed -668437272 -1013189877 -1303025245 38746664 2041042206 1307418381 1402379600 -107491214 18868194 -177216679 -552652901 -1212274265 1931786999 886449731 851935418 1964091598 981431890 -231234587 59462834 1667949659 -2117949942 443056086 1051438878 -674297115 383942559 196477326 -262211650 965197994 2029933504 -1784136875 863732007 1690354607 377839568
REM
CELL 1.54180   50.00000   50.00000   50.00000   90.00000   90.00000   90.00000
LATT -1
SFAC C  
C      1  0.4769090000000  0.4638340000000  0.4938000000000 1.0
C      1  0.4870760000000  0.5190020000000  0.5239710000000 1.0
C      1  0.5873480000000  0.4698700000000  0.5299280000000 1.0
C      1  0.4746380000000  0.5673190000000  0.4732130000000 1.0
C      1  0.5036350000000  0.4894390000000  0.5448310000000 1.0
C      1  0.4055500000000  0.5242730000000  0.4827990000000 1.0
C      1  0.5682860000000  0.5132220000000  0.5044260000000 1.0
C      1  0.5311920000000  0.4611510000000  0.5462090000000 1.0
C      1  0.5187960000000  0.4008050000000  0.5259970000000 1.0
C      1  0.5494800000000  0.4433260000000  0.4490170000000 1.0
C      1  0.4173320000000  0.4670340000000  0.5483520000000 1.0
C      1  0.4822980000000  0.5323940000000  0.5771370000000 1.0
C      1  0.5383610000000  0.4597280000000  0.4211900000000 1.0
C      1  0.5655360000000  0.4705440000000  0.4387090000000 1.0
C      1  0.5106910000000  0.4447680000000  0.5662180000000 1.0
C      1  0.5060700000000  0.5807280000000  0.5733330000000 1.0
C      1  0.4468270000000  0.5365890000000  0.5593060000000 1.0
C      1  0.4466850000000  0.4431440000000  0.4746080000000 1.0
C      1  0.4701890000000  0.4937040000000  0.5084580000000 1.0
C      1  0.4243550000000  0.5527010000000  0.4494850000000 1.0
C      1  0.5090010000000  0.4245920000000  0.4839900000000 1.0
C      1  0.4951980000000  0.5472310000000  0.4573490000000 1.0
C      1  0.4375520000000  0.4978320000000  0.5145360000000 1.0
C      1  0.5334430000000  0.4906090000000  0.5612600000000 1.0
C      1  0.5654730000000  0.4977210000000  0.4810390000000 1.0
C      1  0.3951810000000  0.4882440000000  0.4966350000000 1.0
C      1  0.4907980000000  0.5931510000000  0.5237870000000 1.0
C      1  0.4685280000000  0.4332840000000  0.4606530000000 1.0
C      1  0.5145910000000  0.5496810000000  0.5277140000000 1.0
C      1  0.5181130000000  0.5085070000000  0.5220030000000 1.0
C      1  0.5368980000000  0.5385260000000  0.5801120000000 1.0
C      1  0.4843880000000  0.4558020000000  0.4448790000000 1.0
C      1  0.5710870000000  0.4450400000000  0.5678870000000 1.0
C      1  0.4881450000000  0.4896330000000  0.4468630000000 1.0
C      1  0.5135890000000  0.4488310000000  0.4070020000000 1.0
C      1  0.4611450000000  0.4671160000000  0.4232650000000 1.0
C      1  0.5330500000000  0.5632610000000  0.4417610000000 1.0
C      1  0.5128060000000  0.5249100000000  0.4171740000000 1.0
C      1  0.5436040000000  0.5063870000000  0.5892770000000 1.0
C      1  0.4286870000000  0.4601660000000  0.4610020000000 1.0
C      1  0.4975590000000  0.4751990000000  0.5750010000000 1.0
C      1  0.4968080000000  0.5542160000000  0.5563660000000 1.0
C      1  0.4064250000000  0.5107520000000  0.4585940000000 1.0
C      1  0.5122940000000  0.4327360000000  0.5168490000000 1.0
C      1  0.5680730000000  0.5338190000000  0.4642400000000 1.0
C      1  0.5580800000000  0.5234110000000  0.4359530000000 1.0
C      1  0.5205630000000  0.5296440000000  0.4630770000000 1.0
C      1  0.4483370000000  0.3957520000000  0.5076510000000 1.0
C      1  0.4009920000000  0.5149440000000  0.5147720000000 1.0
C      1  0.4363460000000  0.4761570000000  0.4375280000000 1.0
C      1  0.5424700000000  0.5725870000000  0.5449610000000 1.0
C      1  0.5986450000000  0.5136450000000  0.4656050000000 1.0
C      1  0.4821570000000  0.4130620000000  0.4742040000000 1.0
C      1  0.5360180000000  0.4925550000000  0.4232900000000 1.0
C      1  0.5546450000000  0.5737930000000  0.4653750000000 1.0
C      1  0.4954950000000  0.5097770000000  0.4709040000000 1.0
C      1  0.5210140000000  0.5937800000000  0.4513500000000 1.0
C      1  0.4478450000000  0.5668440000000  0.5456070000000 1.0
C      1  0.4427600000000  0.4199430000000  0.5211190000000 1.0
C      1  0.5335600000000  0.4064930000000  0.4957320000000 1.0
C      1  0.5742800000000  0.4974810000000  0.4493280000000 1.0
C      1  0.4744190000000  0.5905100000000  0.4975840000000 1.0
C      1  0.5406170000000  0.5419410000000  0.5074820000000 1.0
C      1  0.6046650000000  0.5020480000000  0.4921370000000 1.0
C      1  0.4665090000000  0.5082340000000  0.5794820000000 1.0
C      1  0.4655220000000  0.4809670000000  0.4695370000000 1.0
C      1  0.5241610000000  0.5917010000000  0.5317440000000 1.0
C      1  0.4594330000000  0.5168790000000  0.5411930000000 1.0
C      1  0.5440400000000  0.5365030000000  0.4808980000000 1.0
C      1  0.4724930000000  0.4123350000000  0.5585940000000 1.0
C      1  0.4247400000000  0.5507740000000  0.4832290000000 1.0
C      1  0.5538810000000  0.5486400000000  0.5338040000000 1.0
C      1  0.4880340000000  0.4565790000000  0.4048560000000 1.0
C      1  0.4626510000000  0.5602120000000  0.5759340000000 1.0
C      1  0.5813840000000  0.5713550000000  0.4673780000000 1.0
C      1  0.4921540000000  0.5952360000000  0.4687580000000 1.0
C      1  0.5665810000000  0.4942380000000  0.5679180000000 1.0
C      1  0.5007820000000  0.4587810000000  0.5302180000000 1.0
C      1  0.5992100000000  0.4757670000000  0.4996930000000 1.0
C      1  0.4692410000000  0.5276730000000  0.4593000000000 1.0
C      1  0.5078080000000  0.4354800000000  0.4534540000000 1.0
C      1  0.5959510000000  0.5223930000000  0.5128040000000 1.0
C      1  0.5357410000000  0.5380180000000  0.4270770000000 1.0
C      1  0.4531400000000  0.4443570000000  0.5063780000000 1.0
C      1  0.4452700000000  0.5245530000000  0.4792860000000 1.0
C      1  0.4412070000000  0.4952210000000  0.4751560000000 1.0
C      1  0.5224850000000  0.5697750000000  0.4759550000000 1.0
C      1  0.4112660000000  0.5450050000000  0.5204380000000 1.0
C      1  0.4125760000000  0.4882040000000  0.5324360000000 1.0
C      1  0.4293300000000  0.5660680000000  0.5215820000000 1.0
C      1  0.4747830000000  0.5730670000000  0.4203000000000 1.0
C      1  0.5240720000000  0.4165830000000  0.5559840000000 1.0
C      1  0.5464150000000  0.4260390000000  0.4701670000000 1.0
C      1  0.5453400000000  0.4305200000000  0.5252070000000 1.0
C      1  0.4389760000000  0.4513560000000  0.5586350000000 1.0
C      1  0.4950450000000  0.5753920000000  0.4400940000000 1.0
C      1  0.5980570000000  0.5469600000000  0.4651100000000 1.0
C      1  0.4513560000000  0.5287930000000  0.5097020000000 1.0
C      1  0.4504260000000  0.5623110000000  0.4298530000000 1.0
C      1  0.4939300000000  0.5045690000000  0.4199180000000 1.0
C      1  0.5552210000000  0.4772760000000  0.5312740000000 1.0
C      1  0.4641810000000  0.4708750000000  0.5704460000000 1.0
C      1  0.4428580000000  0.5774050000000  0.4947650000000 1.0
C      1  0.5262250000000  0.5018480000000  0.4469180000000 1.0
C      1  0.5102380000000  0.4635230000000  0.4917310000000 1.0
C      1  0.4158920000000  0.4789360000000  0.4808020000000 1.0
C      1  0.5031330000000  0.6030640000000  0.5537120000000 1.0
C      1  0.4788770000000  0.5471470000000  0.5107370000000 1.0
C      1  0.4523150000000  0.4857010000000  0.5431170000000 1.0
C      1  0.4271290000000  0.5036570000000  0.4388010000000 1.0
C      1  0.5634840000000  0.4226060000000  0.4982180000000 1.0
C      1  0.4962110000000  0.3978200000000  0.5513530000000 1.0
C      1  0.5812510000000  0.4694370000000  0.5602980000000 1.0
C      1  0.5122900000000  0.4940670000000  0.5947570000000 1.0
C      1  0.4682110000000  0.4591790000000  0.5324930000000 1.0
C      1  0.5226320000000  0.4809620000000  0.4651730000000 1.0
C      1  0.4451590000000  0.5291540000000  0.4369730000000 1.0
C      1  0.4796970000000  0.4428220000000  0.5601250000000 1.0
C      1  0.4786460000000  0.4870110000000  0.4031530000000 1.0
C      1  0.5061040000000  0.5585890000000  0.4962910000000 1.0
C      1  0.4675020000000  0.3935370000000  0.4880920000000 1.0
C      1  0.5479950000000  0.5075540000000  0.5271590000000 1.0
C      1  0.5327640000000  0.5671940000000  0.5717960000000 1.0
C      1  0.5415820000000  0.4556250000000  0.5029190000000 1.0
C      1  0.5549680000000  0.5237820000000  0.5552820000000 1.0
C      1  0.4459910000000  0.4244030000000  0.5492570000000 1.0
C      1  0.5460520000000  0.4778750000000  0.4823310000000 1.0
C      1  0.5016970000000  0.4948570000000  0.4962360000000 1.0
C      1  0.5539710000000  0.4284680000000  0.5555300000000 1.0
C      1  0.5088380000000  0.5249070000000  0.5898060000000 1.0
C      1  0.5197340000000  0.4207850000000  0.4347460000000 1.0
C      1  0.4773650000000  0.5666680000000  0.5343040000000 1.0
C      1  0.4455890000000  0.5757820000000  0.4607580000000 1.0
C      1  0.5756060000000  0.4517560000000  0.5047010000000 1.0
END
