TITL C-2778432-5617-853 0.00352110683425976 125000 -152.909585226625 0 0 27 (C1) n - 1
REM
REM in /home/nfs/bkarasulu/CARBON/AIRSS/Generating-Clusters/REBO/Only-C1/SD-CG/HFTN-CG
REM
REM
REM
REM
REM
REM ./C.cell (11c1c37f851c82e70ff6c80c92926a4b)
REM
REM compiler GCC version 9.2.1 20190827 (Red Hat 9.2.1-1)
REM options -cpp -mtune=generic -march=x86-64 -g -O0 -fpre-include=/usr/include/finclude/math-vector-fortran.h
REM seed 1449759925 -1054774430 -2012865404 726069373 1480820632 2067877393 -1655031299 -550193023 1546412681 -224408201 2015429424 1354262941 -1938117927 -1874723815 -1414168203 1184496875 1840743049 194247461 1902331986 -1620611419 -229141921 -1102438004 -1536906450 973399069 2135855124 1382468546 -1626418821 1160359477 -1212924625 -449316256 -1849284766 242523777 -1311303162
REM
CELL 1.54180   50.00000   50.00000   50.00000   90.00000   90.00000   90.00000
LATT -1
SFAC C  
C      1  0.4767160000000  0.5658120000000  0.5301880000000 1.0
C      1  0.4771830000000  0.4729330000000  0.4452160000000 1.0
C      1  0.4700250000000  0.5896050000000  0.5092410000000 1.0
C      1  0.4766530000000  0.5597450000000  0.4981070000000 1.0
C      1  0.5299560000000  0.5273280000000  0.5351060000000 1.0
C      1  0.5059990000000  0.4952280000000  0.5657600000000 1.0
C      1  0.5178720000000  0.5085400000000  0.4675530000000 1.0
C      1  0.5318380000000  0.4377230000000  0.5252070000000 1.0
C      1  0.5094370000000  0.4585700000000  0.5328710000000 1.0
C      1  0.4821880000000  0.5459800000000  0.5482470000000 1.0
C      1  0.5374440000000  0.4702300000000  0.4475620000000 1.0
C      1  0.4898260000000  0.5144050000000  0.4696470000000 1.0
C      1  0.5293510000000  0.4977640000000  0.4435860000000 1.0
C      1  0.5211190000000  0.4513500000000  0.4338090000000 1.0
C      1  0.4938140000000  0.4761160000000  0.5476130000000 1.0
C      1  0.4938930000000  0.4552280000000  0.4332090000000 1.0
C      1  0.5419070000000  0.4679260000000  0.4757120000000 1.0
C      1  0.4716510000000  0.4921310000000  0.4651400000000 1.0
C      1  0.4745270000000  0.5169530000000  0.5407220000000 1.0
C      1  0.5320730000000  0.4957830000000  0.4929670000000 1.0
C      1  0.4816700000000  0.5383180000000  0.4819460000000 1.0
C      1  0.5070880000000  0.5250230000000  0.5546450000000 1.0
C      1  0.5376000000000  0.5161440000000  0.5146070000000 1.0
C      1  0.4550380000000  0.4849140000000  0.4867930000000 1.0
C      1  0.4712790000000  0.4896150000000  0.5356530000000 1.0
C      1  0.4557830000000  0.4818520000000  0.5136690000000 1.0
C      1  0.5280700000000  0.4647840000000  0.5052250000000 1.0
END
