TITL C-2778426-5645-1262 0.00040177140762602 125000 -346.789128596128 0 0 61 (C1) n - 1
REM
REM in /home/nfs/bkarasulu/CARBON/AIRSS/Generating-Clusters/REBO/Only-C1/SD-CG/HFTN-CG
REM
REM
REM
REM
REM
REM ./C.cell (11c1c37f851c82e70ff6c80c92926a4b)
REM
REM compiler GCC version 9.2.1 20190827 (Red Hat 9.2.1-1)
REM options -cpp -mtune=generic -march=x86-64 -g -O0 -fpre-include=/usr/include/finclude/math-vector-fortran.h
REM seed 1089425662 2132150092 777213925 -999226762 -1963455163 347876127 -1825963339 -1502606282 50072052 134404289 -1662660052 824761508 1988231363 1223161268 -47330604 -91005673 -1682293561 -7619748 -158794175 -866648836 227061197 -1191167092 -486479397 -92521972 -1367345191 -1589827894 -1312418235 -1090411850 2094049 -30707193 -106543859 1142804951 1005374791
REM
CELL 1.54180   50.00000   50.00000   50.00000   90.00000   90.00000   90.00000
LATT -1
SFAC C  
C      1  0.4339110000000  0.5200950000000  0.5110440000000 1.0
C      1  0.5672940000000  0.4990870000000  0.5578120000000 1.0
C      1  0.4365190000000  0.4275760000000  0.5215100000000 1.0
C      1  0.5241830000000  0.5425690000000  0.5749850000000 1.0
C      1  0.4842710000000  0.4392150000000  0.5270740000000 1.0
C      1  0.4723810000000  0.5786860000000  0.5164840000000 1.0
C      1  0.5091020000000  0.5425240000000  0.5140030000000 1.0
C      1  0.4566410000000  0.5293260000000  0.5321480000000 1.0
C      1  0.5098790000000  0.4943870000000  0.5521780000000 1.0
C      1  0.5138830000000  0.5865900000000  0.4860920000000 1.0
C      1  0.5123620000000  0.4734380000000  0.4273170000000 1.0
C      1  0.4465710000000  0.4723790000000  0.5366850000000 1.0
C      1  0.4969960000000  0.4884450000000  0.4743500000000 1.0
C      1  0.5232560000000  0.4773420000000  0.4562010000000 1.0
C      1  0.4705760000000  0.5563800000000  0.4752560000000 1.0
C      1  0.5426210000000  0.5019190000000  0.5143310000000 1.0
C      1  0.4793130000000  0.4373990000000  0.4650180000000 1.0
C      1  0.5535390000000  0.4701750000000  0.4687680000000 1.0
C      1  0.4376550000000  0.4684260000000  0.4717190000000 1.0
C      1  0.5965770000000  0.4702640000000  0.4945760000000 1.0
C      1  0.4748290000000  0.4426740000000  0.4366330000000 1.0
C      1  0.5680500000000  0.4964560000000  0.5299390000000 1.0
C      1  0.5023740000000  0.5762440000000  0.5135060000000 1.0
C      1  0.4127200000000  0.5027960000000  0.5033180000000 1.0
C      1  0.5076330000000  0.5342170000000  0.5544910000000 1.0
C      1  0.5256420000000  0.5722010000000  0.5348130000000 1.0
C      1  0.4664500000000  0.5137910000000  0.5037810000000 1.0
C      1  0.4690370000000  0.4849680000000  0.4901910000000 1.0
C      1  0.5063490000000  0.4324020000000  0.4724330000000 1.0
C      1  0.5714410000000  0.5401360000000  0.4857400000000 1.0
C      1  0.5206080000000  0.5158070000000  0.5308020000000 1.0
C      1  0.4745170000000  0.4884070000000  0.4499830000000 1.0
C      1  0.5650960000000  0.5464110000000  0.5117200000000 1.0
C      1  0.4673440000000  0.4676000000000  0.5493890000000 1.0
C      1  0.5111370000000  0.4320560000000  0.5120580000000 1.0
C      1  0.4837750000000  0.4697370000000  0.4296410000000 1.0
C      1  0.4145620000000  0.4746620000000  0.4900180000000 1.0
C      1  0.5208240000000  0.4837960000000  0.4955330000000 1.0
C      1  0.4874880000000  0.5329040000000  0.4925590000000 1.0
C      1  0.5141810000000  0.4613860000000  0.5144680000000 1.0
C      1  0.4416630000000  0.4809580000000  0.5091980000000 1.0
C      1  0.5499040000000  0.4976910000000  0.5787780000000 1.0
C      1  0.4627130000000  0.5617570000000  0.5366590000000 1.0
C      1  0.5316560000000  0.5406550000000  0.4594300000000 1.0
C      1  0.4652040000000  0.4246050000000  0.4188800000000 1.0
C      1  0.4601700000000  0.4385620000000  0.5124600000000 1.0
C      1  0.5412230000000  0.5494290000000  0.5254240000000 1.0
C      1  0.5525730000000  0.5260110000000  0.4698230000000 1.0
C      1  0.4614590000000  0.4521180000000  0.4853520000000 1.0
C      1  0.5466260000000  0.4993680000000  0.4813960000000 1.0
C      1  0.4464230000000  0.4887960000000  0.4543010000000 1.0
C      1  0.4602250000000  0.5761950000000  0.4906750000000 1.0
C      1  0.4810780000000  0.5402770000000  0.5515720000000 1.0
C      1  0.5227360000000  0.4947270000000  0.5762080000000 1.0
C      1  0.4974130000000  0.4698110000000  0.5404010000000 1.0
C      1  0.4298550000000  0.5069470000000  0.4427780000000 1.0
C      1  0.5190690000000  0.5694000000000  0.4657730000000 1.0
C      1  0.5282340000000  0.4477120000000  0.4702060000000 1.0
C      1  0.5821620000000  0.4619650000000  0.4731050000000 1.0
C      1  0.4985370000000  0.5432520000000  0.4627390000000 1.0
C      1  0.5894910000000  0.4848880000000  0.5162760000000 1.0
END
