TITL C-2778433-5640-921 0.00365374581185321 125000 -1153.4654122801 0 0 196 (C1) n - 1
REM
REM in /home/nfs/bkarasulu/CARBON/AIRSS/Generating-Clusters/REBO/Only-C1/SD-CG/HFTN-CG
REM
REM
REM
REM
REM
REM ./C.cell (11c1c37f851c82e70ff6c80c92926a4b)
REM
REM compiler GCC version 9.2.1 20190827 (Red Hat 9.2.1-1)
REM options -cpp -mtune=generic -march=x86-64 -g -O0 -fpre-include=/usr/include/finclude/math-vector-fortran.h
REM seed -1964640853 -1481468252 -1529568844 -1519510834 2108798750 1994006369 1613080966 1491532675 357417854 1246666663 1512564861 -239081052 -235220064 2070880715 1693072873 151570606 1949582097 -515139974 -259659689 -1400560654 1078317183 -1750350423 -1598889317 2142267256 1745559364 -651552489 -1371895524 -982712274 1395791066 923320059 -2241052 608116923 177157139
REM
CELL 1.54180   50.00000   50.00000   50.00000   90.00000   90.00000   90.00000
LATT -1
SFAC C  
C      1  0.4699860000000  0.4608210000000  0.6049960000000 1.0
C      1  0.5492050000000  0.5965170000000  0.4887750000000 1.0
C      1  0.4218990000000  0.5316330000000  0.4126650000000 1.0
C      1  0.5883840000000  0.5069480000000  0.5532720000000 1.0
C      1  0.5096910000000  0.6110490000000  0.5177520000000 1.0
C      1  0.5139140000000  0.4435180000000  0.5154900000000 1.0
C      1  0.5448030000000  0.4203600000000  0.4297370000000 1.0
C      1  0.5740360000000  0.5446420000000  0.5857610000000 1.0
C      1  0.4288470000000  0.4817140000000  0.5412370000000 1.0
C      1  0.5206730000000  0.4537060000000  0.3897480000000 1.0
C      1  0.4587950000000  0.4143230000000  0.5398810000000 1.0
C      1  0.5128820000000  0.5442820000000  0.3903310000000 1.0
C      1  0.5737980000000  0.4897710000000  0.3970700000000 1.0
C      1  0.4585230000000  0.4905140000000  0.4929660000000 1.0
C      1  0.5273350000000  0.5959060000000  0.4066090000000 1.0
C      1  0.4438780000000  0.4863310000000  0.3996650000000 1.0
C      1  0.4800640000000  0.5988540000000  0.4421240000000 1.0
C      1  0.5558090000000  0.4597120000000  0.5969890000000 1.0
C      1  0.5418200000000  0.4004860000000  0.5016510000000 1.0
C      1  0.4623870000000  0.5708690000000  0.4387530000000 1.0
C      1  0.4866750000000  0.4817410000000  0.6163450000000 1.0
C      1  0.4687200000000  0.4612170000000  0.5549370000000 1.0
C      1  0.5031460000000  0.5976030000000  0.5485340000000 1.0
C      1  0.5146460000000  0.4110490000000  0.4255490000000 1.0
C      1  0.3994150000000  0.5547090000000  0.5125400000000 1.0
C      1  0.4164090000000  0.5765580000000  0.5248000000000 1.0
C      1  0.5468830000000  0.5418770000000  0.3930930000000 1.0
C      1  0.4329880000000  0.5690820000000  0.5505950000000 1.0
C      1  0.4676870000000  0.5024800000000  0.5879140000000 1.0
C      1  0.5486780000000  0.4426190000000  0.4058300000000 1.0
C      1  0.3953370000000  0.4663440000000  0.4706620000000 1.0
C      1  0.5602430000000  0.4442410000000  0.4474610000000 1.0
C      1  0.5657340000000  0.4155830000000  0.4997950000000 1.0
C      1  0.5005270000000  0.5431800000000  0.5546520000000 1.0
C      1  0.5329100000000  0.3880330000000  0.5255550000000 1.0
C      1  0.4377700000000  0.5132870000000  0.4874560000000 1.0
C      1  0.6073630000000  0.4732550000000  0.4405950000000 1.0
C      1  0.3982150000000  0.5156470000000  0.4825160000000 1.0
C      1  0.4788330000000  0.5866380000000  0.5697780000000 1.0
C      1  0.5819990000000  0.4850150000000  0.4257480000000 1.0
C      1  0.4957840000000  0.5049060000000  0.4226960000000 1.0
C      1  0.4619160000000  0.4289400000000  0.4885050000000 1.0
C      1  0.4336600000000  0.4746050000000  0.4784020000000 1.0
C      1  0.4236970000000  0.4571220000000  0.4282130000000 1.0
C      1  0.5257380000000  0.5237040000000  0.5455760000000 1.0
C      1  0.4610660000000  0.5540210000000  0.5264990000000 1.0
C      1  0.4524160000000  0.5673890000000  0.5711090000000 1.0
C      1  0.4562720000000  0.5406570000000  0.5815420000000 1.0
C      1  0.4936030000000  0.4230970000000  0.4972850000000 1.0
C      1  0.4357370000000  0.5209590000000  0.4591060000000 1.0
C      1  0.5636070000000  0.4356200000000  0.5757870000000 1.0
C      1  0.5820200000000  0.5140830000000  0.4370030000000 1.0
C      1  0.5360750000000  0.5563890000000  0.4523920000000 1.0
C      1  0.5262470000000  0.5672000000000  0.4764980000000 1.0
C      1  0.5204260000000  0.5192460000000  0.4123070000000 1.0
C      1  0.5181490000000  0.5978000000000  0.4903500000000 1.0
C      1  0.5150030000000  0.4790230000000  0.4852510000000 1.0
C      1  0.4470040000000  0.3919130000000  0.4868060000000 1.0
C      1  0.4133840000000  0.4676050000000  0.5695030000000 1.0
C      1  0.4994810000000  0.4700300000000  0.5639020000000 1.0
C      1  0.5379560000000  0.5446330000000  0.5685210000000 1.0
C      1  0.4912680000000  0.5857710000000  0.4781800000000 1.0
C      1  0.5953440000000  0.5111800000000  0.4653380000000 1.0
C      1  0.5474620000000  0.4703260000000  0.5657960000000 1.0
C      1  0.4528460000000  0.5003950000000  0.5573740000000 1.0
C      1  0.5589420000000  0.5658820000000  0.4993360000000 1.0
C      1  0.5065400000000  0.5024010000000  0.5274890000000 1.0
C      1  0.4162440000000  0.5342270000000  0.5599800000000 1.0
C      1  0.6007930000000  0.5356620000000  0.5152690000000 1.0
C      1  0.5529640000000  0.5919290000000  0.5580230000000 1.0
C      1  0.6109070000000  0.4850100000000  0.4656700000000 1.0
C      1  0.4023230000000  0.4801550000000  0.5195080000000 1.0
C      1  0.4189470000000  0.4450580000000  0.5286920000000 1.0
C      1  0.5128800000000  0.4721590000000  0.5343080000000 1.0
C      1  0.5049610000000  0.3834540000000  0.5279260000000 1.0
C      1  0.5084900000000  0.4879040000000  0.4468020000000 1.0
C      1  0.4328940000000  0.4837230000000  0.4263130000000 1.0
C      1  0.4300330000000  0.5987040000000  0.5115080000000 1.0
C      1  0.5108230000000  0.4476290000000  0.5813840000000 1.0
C      1  0.4980750000000  0.4634100000000  0.3724480000000 1.0
C      1  0.4409360000000  0.4129630000000  0.5107400000000 1.0
C      1  0.4331480000000  0.5412250000000  0.5328410000000 1.0
C      1  0.4987360000000  0.5399960000000  0.6084400000000 1.0
C      1  0.4796410000000  0.6153490000000  0.5022660000000 1.0
C      1  0.4844610000000  0.5266600000000  0.5736250000000 1.0
C      1  0.5404310000000  0.5812480000000  0.5859200000000 1.0
C      1  0.5801630000000  0.4750880000000  0.5306160000000 1.0
C      1  0.4574870000000  0.4819480000000  0.5226770000000 1.0
C      1  0.6063990000000  0.5121150000000  0.5295730000000 1.0
C      1  0.5795490000000  0.4791920000000  0.5702100000000 1.0
C      1  0.4678290000000  0.5128690000000  0.4612230000000 1.0
C      1  0.5524080000000  0.5597350000000  0.6022170000000 1.0
C      1  0.4778250000000  0.6138040000000  0.4696770000000 1.0
C      1  0.5645450000000  0.5623030000000  0.5606390000000 1.0
C      1  0.4032210000000  0.5458870000000  0.4843860000000 1.0
C      1  0.5701540000000  0.5360690000000  0.5046500000000 1.0
C      1  0.4103760000000  0.4263620000000  0.5037190000000 1.0
C      1  0.4516340000000  0.3997040000000  0.4633270000000 1.0
C      1  0.4745730000000  0.5051820000000  0.5358710000000 1.0
C      1  0.4814940000000  0.4181670000000  0.4282870000000 1.0
C      1  0.4643450000000  0.5059880000000  0.3804590000000 1.0
C      1  0.5735990000000  0.5082710000000  0.4875920000000 1.0
C      1  0.5188890000000  0.4075160000000  0.4806240000000 1.0
C      1  0.5370590000000  0.4990570000000  0.5638480000000 1.0
C      1  0.5019480000000  0.5959710000000  0.4238210000000 1.0
C      1  0.4493810000000  0.4445650000000  0.5349870000000 1.0
C      1  0.5808830000000  0.4500480000000  0.5523600000000 1.0
C      1  0.5464480000000  0.4735740000000  0.3915380000000 1.0
C      1  0.5390160000000  0.5742350000000  0.3943850000000 1.0
C      1  0.4680840000000  0.5832550000000  0.5378270000000 1.0
C      1  0.4436670000000  0.5259110000000  0.3984850000000 1.0
C      1  0.5343570000000  0.4497240000000  0.5491260000000 1.0
C      1  0.6035210000000  0.5524570000000  0.4900710000000 1.0
C      1  0.4267660000000  0.5247990000000  0.5089000000000 1.0
C      1  0.5341010000000  0.6054500000000  0.5413070000000 1.0
C      1  0.4251540000000  0.5383730000000  0.4397880000000 1.0
C      1  0.4974670000000  0.5245470000000  0.5027170000000 1.0
C      1  0.3907970000000  0.5074190000000  0.5098170000000 1.0
C      1  0.4567460000000  0.4307010000000  0.4544450000000 1.0
C      1  0.4875230000000  0.4080260000000  0.5261460000000 1.0
C      1  0.5356590000000  0.4210140000000  0.5649170000000 1.0
C      1  0.4741800000000  0.4173540000000  0.5701760000000 1.0
C      1  0.3965120000000  0.4594600000000  0.5449110000000 1.0
C      1  0.3862060000000  0.5312590000000  0.5255480000000 1.0
C      1  0.4835820000000  0.5373520000000  0.4744190000000 1.0
C      1  0.5795090000000  0.5171200000000  0.5824350000000 1.0
C      1  0.4871610000000  0.4596180000000  0.4825420000000 1.0
C      1  0.4887740000000  0.4404350000000  0.5365050000000 1.0
C      1  0.5760650000000  0.4275250000000  0.4713060000000 1.0
C      1  0.5917290000000  0.5428710000000  0.4671760000000 1.0
C      1  0.5085800000000  0.4430490000000  0.4654840000000 1.0
C      1  0.5005430000000  0.4971490000000  0.5802630000000 1.0
C      1  0.5450090000000  0.3955770000000  0.5498980000000 1.0
C      1  0.5465900000000  0.4438590000000  0.5205640000000 1.0
C      1  0.4143870000000  0.5653270000000  0.4672680000000 1.0
C      1  0.4086710000000  0.4930290000000  0.4677060000000 1.0
C      1  0.5706830000000  0.4762380000000  0.4986220000000 1.0
C      1  0.5803670000000  0.5907670000000  0.4902020000000 1.0
C      1  0.5659390000000  0.5371570000000  0.4176290000000 1.0
C      1  0.4855890000000  0.5144260000000  0.6130710000000 1.0
C      1  0.4719280000000  0.5553910000000  0.4136160000000 1.0
C      1  0.4333540000000  0.5667130000000  0.4449050000000 1.0
C      1  0.5562840000000  0.4729100000000  0.4385940000000 1.0
C      1  0.4756850000000  0.5708760000000  0.5013370000000 1.0
C      1  0.4516960000000  0.4674420000000  0.5795530000000 1.0
C      1  0.4883910000000  0.4992880000000  0.4847500000000 1.0
C      1  0.5773490000000  0.4360560000000  0.5230010000000 1.0
C      1  0.5477900000000  0.4099220000000  0.4624210000000 1.0
C      1  0.4594390000000  0.4308360000000  0.5920600000000 1.0
C      1  0.5445450000000  0.5071500000000  0.5145340000000 1.0
C      1  0.4806170000000  0.4780170000000  0.4337840000000 1.0
C      1  0.5219740000000  0.5477740000000  0.4288860000000 1.0
C      1  0.4618130000000  0.4610160000000  0.4650180000000 1.0
C      1  0.5244100000000  0.4605630000000  0.4408740000000 1.0
C      1  0.4297910000000  0.4933880000000  0.5815100000000 1.0
C      1  0.5414960000000  0.4992720000000  0.4840630000000 1.0
C      1  0.4408200000000  0.4518010000000  0.5025420000000 1.0
C      1  0.4578440000000  0.6038580000000  0.5171940000000 1.0
C      1  0.4295990000000  0.4419330000000  0.5837660000000 1.0
C      1  0.4735660000000  0.4736140000000  0.3769050000000 1.0
C      1  0.5608950000000  0.4933010000000  0.5954450000000 1.0
C      1  0.6095510000000  0.4719640000000  0.4907000000000 1.0
C      1  0.5260720000000  0.4551800000000  0.6042000000000 1.0
C      1  0.5495030000000  0.5203180000000  0.4419610000000 1.0
C      1  0.4801510000000  0.5358330000000  0.3861580000000 1.0
C      1  0.5259260000000  0.5642240000000  0.5104250000000 1.0
C      1  0.5141970000000  0.5685930000000  0.5710060000000 1.0
C      1  0.5673060000000  0.5488460000000  0.4500340000000 1.0
C      1  0.5013620000000  0.5662810000000  0.4126460000000 1.0
C      1  0.4323960000000  0.5251320000000  0.5808710000000 1.0
C      1  0.5127920000000  0.4716520000000  0.6229480000000 1.0
C      1  0.4801680000000  0.4511620000000  0.4228500000000 1.0
C      1  0.4993120000000  0.4140940000000  0.4555650000000 1.0
C      1  0.5588820000000  0.4976020000000  0.5391850000000 1.0
C      1  0.5454830000000  0.5076020000000  0.3949880000000 1.0
C      1  0.3894090000000  0.5301790000000  0.5534630000000 1.0
C      1  0.5426640000000  0.4611640000000  0.4944660000000 1.0
C      1  0.4532730000000  0.4571860000000  0.3941670000000 1.0
C      1  0.5024110000000  0.4204490000000  0.5720470000000 1.0
C      1  0.5887490000000  0.4474270000000  0.4929560000000 1.0
C      1  0.4491270000000  0.4372080000000  0.4216890000000 1.0
C      1  0.4545320000000  0.4878710000000  0.4470200000000 1.0
C      1  0.6064230000000  0.4867030000000  0.5146590000000 1.0
C      1  0.5396870000000  0.5380110000000  0.5198380000000 1.0
C      1  0.4993020000000  0.5732170000000  0.5249090000000 1.0
C      1  0.5375060000000  0.4960630000000  0.4535380000000 1.0
C      1  0.4836050000000  0.5349580000000  0.5302190000000 1.0
C      1  0.4804210000000  0.5611980000000  0.4630460000000 1.0
C      1  0.4726530000000  0.5220800000000  0.4158890000000 1.0
C      1  0.5290520000000  0.5359370000000  0.6007290000000 1.0
C      1  0.5106810000000  0.4432550000000  0.4178070000000 1.0
C      1  0.3981970000000  0.4553930000000  0.4965520000000 1.0
C      1  0.5301930000000  0.5057950000000  0.5941500000000 1.0
C      1  0.4782020000000  0.4605490000000  0.5125850000000 1.0
C      1  0.5386630000000  0.4412590000000  0.4726830000000 1.0
C      1  0.4894840000000  0.5621220000000  0.5910800000000 1.0
END
