TITL C-2778432-5617-436 0.00437989384949576 125000 -771.371532540573 0 0 129 (C1) n - 1
REM
REM in /home/nfs/bkarasulu/CARBON/AIRSS/Generating-Clusters/REBO/Only-C1/SD-CG/HFTN-CG
REM
REM
REM
REM
REM
REM ./C.cell (11c1c37f851c82e70ff6c80c92926a4b)
REM
REM compiler GCC version 9.2.1 20190827 (Red Hat 9.2.1-1)
REM options -cpp -mtune=generic -march=x86-64 -g -O0 -fpre-include=/usr/include/finclude/math-vector-fortran.h
REM seed -1021714238 392206354 -1536129325 1369723788 786716276 -1901279864 1698380271 -1193142372 -2051609074 -1936491005 -962369248 1863767752 939445148 1879066705 -1760372847 592911294 -1557909955 -1750272644 1560735035 -752691505 -57573756 -1446391155 -1918810117 -2071610186 -160410264 -878015989 273817001 1238805504 962549685 1287256982 638159984 1782091020 -1948860728
REM
CELL 1.54180   50.00000   50.00000   50.00000   90.00000   90.00000   90.00000
LATT -1
SFAC C  
C      1  0.5329530000000  0.5789090000000  0.5119020000000 1.0
C      1  0.5050420000000  0.5400270000000  0.4390620000000 1.0
C      1  0.4854670000000  0.5521010000000  0.4064240000000 1.0
C      1  0.5494680000000  0.5072830000000  0.4191720000000 1.0
C      1  0.4279690000000  0.4432210000000  0.5186380000000 1.0
C      1  0.4634410000000  0.5038000000000  0.4692930000000 1.0
C      1  0.5895050000000  0.4579050000000  0.4865380000000 1.0
C      1  0.6031170000000  0.4956620000000  0.5140060000000 1.0
C      1  0.4989460000000  0.6038490000000  0.4959360000000 1.0
C      1  0.5104420000000  0.5586550000000  0.5150810000000 1.0
C      1  0.5690810000000  0.4361110000000  0.4739180000000 1.0
C      1  0.5165340000000  0.5081150000000  0.4417600000000 1.0
C      1  0.5287410000000  0.5007160000000  0.5256720000000 1.0
C      1  0.4187600000000  0.4666200000000  0.5599310000000 1.0
C      1  0.4171030000000  0.4961280000000  0.4569730000000 1.0
C      1  0.5130300000000  0.4300900000000  0.5396290000000 1.0
C      1  0.4697490000000  0.4071740000000  0.5608120000000 1.0
C      1  0.5048260000000  0.3968750000000  0.4753950000000 1.0
C      1  0.5447300000000  0.4678380000000  0.5099070000000 1.0
C      1  0.4414550000000  0.4230200000000  0.5042210000000 1.0
C      1  0.5043500000000  0.4459240000000  0.4919430000000 1.0
C      1  0.3976980000000  0.4800090000000  0.5459780000000 1.0
C      1  0.5322030000000  0.4488090000000  0.4384380000000 1.0
C      1  0.4958000000000  0.4362030000000  0.4162700000000 1.0
C      1  0.5474090000000  0.5748080000000  0.4822580000000 1.0
C      1  0.5201160000000  0.5205730000000  0.5954880000000 1.0
C      1  0.5598150000000  0.5575700000000  0.4590680000000 1.0
C      1  0.4039860000000  0.4904930000000  0.5149640000000 1.0
C      1  0.5681840000000  0.4655610000000  0.5321780000000 1.0
C      1  0.5364940000000  0.4755110000000  0.4177010000000 1.0
C      1  0.5460170000000  0.4235780000000  0.4565820000000 1.0
C      1  0.4624240000000  0.5791230000000  0.4398650000000 1.0
C      1  0.4014590000000  0.5126370000000  0.5394250000000 1.0
C      1  0.5494990000000  0.5687420000000  0.5401200000000 1.0
C      1  0.4683990000000  0.5910440000000  0.4661740000000 1.0
C      1  0.5246310000000  0.5653440000000  0.5584510000000 1.0
C      1  0.4816060000000  0.6040710000000  0.5143200000000 1.0
C      1  0.5176870000000  0.4549030000000  0.5194320000000 1.0
C      1  0.5488180000000  0.5246180000000  0.5010300000000 1.0
C      1  0.5652960000000  0.4455180000000  0.5553450000000 1.0
C      1  0.5098770000000  0.5414020000000  0.5760150000000 1.0
C      1  0.4730820000000  0.4724430000000  0.4636480000000 1.0
C      1  0.4782020000000  0.4996820000000  0.5059800000000 1.0
C      1  0.4269480000000  0.4701370000000  0.5032380000000 1.0
C      1  0.5545560000000  0.4902320000000  0.5713490000000 1.0
C      1  0.4329500000000  0.5840730000000  0.5361510000000 1.0
C      1  0.4270240000000  0.5118280000000  0.5611970000000 1.0
C      1  0.5120670000000  0.4586330000000  0.5732060000000 1.0
C      1  0.4832330000000  0.4235980000000  0.5361310000000 1.0
C      1  0.4661250000000  0.5576630000000  0.5334770000000 1.0
C      1  0.5057750000000  0.5334430000000  0.4705170000000 1.0
C      1  0.5648420000000  0.4638930000000  0.5783570000000 1.0
C      1  0.5831130000000  0.5133770000000  0.4638680000000 1.0
C      1  0.5125600000000  0.5723700000000  0.4444560000000 1.0
C      1  0.4481690000000  0.5303520000000  0.4328380000000 1.0
C      1  0.4871720000000  0.4819310000000  0.4089300000000 1.0
C      1  0.4735850000000  0.4528440000000  0.4909370000000 1.0
C      1  0.4678330000000  0.5288320000000  0.5203320000000 1.0
C      1  0.4626230000000  0.4216690000000  0.4577170000000 1.0
C      1  0.5111180000000  0.4906450000000  0.5029380000000 1.0
C      1  0.4407280000000  0.5085990000000  0.4499470000000 1.0
C      1  0.5494350000000  0.4903740000000  0.5425350000000 1.0
C      1  0.5943450000000  0.5327720000000  0.5486050000000 1.0
C      1  0.4806520000000  0.5510340000000  0.5824040000000 1.0
C      1  0.5082660000000  0.4746220000000  0.5958310000000 1.0
C      1  0.5356370000000  0.5025250000000  0.4605500000000 1.0
C      1  0.5208660000000  0.4701450000000  0.4780930000000 1.0
C      1  0.5490590000000  0.4619060000000  0.4671210000000 1.0
C      1  0.4724020000000  0.5275210000000  0.4173780000000 1.0
C      1  0.4362700000000  0.4191890000000  0.4765510000000 1.0
C      1  0.4906890000000  0.4262570000000  0.4445460000000 1.0
C      1  0.5299860000000  0.3972930000000  0.4655490000000 1.0
C      1  0.4456510000000  0.5535250000000  0.4758090000000 1.0
C      1  0.5445630000000  0.4264890000000  0.5529000000000 1.0
C      1  0.5454640000000  0.5100680000000  0.5889730000000 1.0
C      1  0.4728120000000  0.4234990000000  0.5081450000000 1.0
C      1  0.4600630000000  0.4711650000000  0.5584170000000 1.0
C      1  0.5314510000000  0.5448570000000  0.4839950000000 1.0
C      1  0.4335700000000  0.4446250000000  0.4584540000000 1.0
C      1  0.4601640000000  0.5577140000000  0.5664380000000 1.0
C      1  0.5752380000000  0.5476650000000  0.5367380000000 1.0
C      1  0.5416300000000  0.5556790000000  0.4378050000000 1.0
C      1  0.4455970000000  0.5555180000000  0.4463050000000 1.0
C      1  0.5595850000000  0.4766450000000  0.4417570000000 1.0
C      1  0.5771070000000  0.5391380000000  0.4723630000000 1.0
C      1  0.5012970000000  0.5008300000000  0.6041880000000 1.0
C      1  0.5139510000000  0.4338150000000  0.4631390000000 1.0
C      1  0.4987950000000  0.5822300000000  0.4719370000000 1.0
C      1  0.5119700000000  0.5362780000000  0.4050130000000 1.0
C      1  0.4653390000000  0.4391980000000  0.4165130000000 1.0
C      1  0.5254290000000  0.5330360000000  0.5234610000000 1.0
C      1  0.4825090000000  0.4110190000000  0.4806110000000 1.0
C      1  0.4326190000000  0.5623970000000  0.5546990000000 1.0
C      1  0.4841250000000  0.5125700000000  0.5430870000000 1.0
C      1  0.5056040000000  0.4686800000000  0.5470010000000 1.0
C      1  0.4958290000000  0.5069710000000  0.4779300000000 1.0
C      1  0.4577690000000  0.4773840000000  0.5027430000000 1.0
C      1  0.6073750000000  0.5128000000000  0.5352020000000 1.0
C      1  0.4185090000000  0.5396150000000  0.5484600000000 1.0
C      1  0.5723540000000  0.5034700000000  0.4401670000000 1.0
C      1  0.5385930000000  0.5338360000000  0.4183980000000 1.0
C      1  0.5662460000000  0.5755970000000  0.5105920000000 1.0
C      1  0.5206910000000  0.4307450000000  0.5725490000000 1.0
C      1  0.5511400000000  0.4946690000000  0.4899170000000 1.0
C      1  0.5081070000000  0.4623570000000  0.4098400000000 1.0
C      1  0.4499700000000  0.4951000000000  0.6021060000000 1.0
C      1  0.4554780000000  0.4579390000000  0.4426650000000 1.0
C      1  0.5933700000000  0.4672260000000  0.5158090000000 1.0
C      1  0.4862950000000  0.5738790000000  0.4246610000000 1.0
C      1  0.5575710000000  0.4405570000000  0.5031760000000 1.0
C      1  0.4606500000000  0.4394450000000  0.5561800000000 1.0
C      1  0.5750150000000  0.5436570000000  0.5039260000000 1.0
C      1  0.4818810000000  0.4847170000000  0.5472470000000 1.0
C      1  0.4573760000000  0.5843320000000  0.5156010000000 1.0
C      1  0.4669870000000  0.5329450000000  0.4869590000000 1.0
C      1  0.4920220000000  0.5062480000000  0.4222620000000 1.0
C      1  0.4316770000000  0.4457580000000  0.5464020000000 1.0
C      1  0.4180960000000  0.4657570000000  0.4716820000000 1.0
C      1  0.5050890000000  0.5914240000000  0.5593070000000 1.0
C      1  0.5087320000000  0.5257810000000  0.5490640000000 1.0
C      1  0.4507060000000  0.5797190000000  0.4865590000000 1.0
C      1  0.4383020000000  0.4873130000000  0.5748320000000 1.0
C      1  0.4932930000000  0.5552220000000  0.4896370000000 1.0
C      1  0.5842260000000  0.4916020000000  0.4858590000000 1.0
C      1  0.5013650000000  0.4739930000000  0.4560220000000 1.0
C      1  0.4948900000000  0.5674000000000  0.5401480000000 1.0
C      1  0.3993520000000  0.4912510000000  0.4839180000000 1.0
C      1  0.4740230000000  0.5040110000000  0.6106860000000 1.0
C      1  0.4610490000000  0.4702190000000  0.4120560000000 1.0
END
