TITL C-2778437-8639-826 0.00106419084074106 125000 -1014.47313804809 0 0 173 (C1) n - 1
REM
REM in /home/nfs/bkarasulu/CARBON/AIRSS/Generating-Clusters/REBO/Only-C1/SD-CG/HFTN-CG
REM
REM
REM
REM
REM
REM ./C.cell (11c1c37f851c82e70ff6c80c92926a4b)
REM
REM compiler GCC version 9.2.1 20190827 (Red Hat 9.2.1-1)
REM options -cpp -mtune=generic -march=x86-64 -g -O0 -fpre-include=/usr/include/finclude/math-vector-fortran.h
REM seed -989188574 -1971233479 1165484029 944683632 -1369903060 1382041400 -675067743 -558125500 1105648922 608069414 2050227219 -1064839604 1897182092 -1079120449 1721946010 -437147174 -551711162 1718532246 -74821723 -1577492212 -1743840039 521995085 -1147666827 543524004 546588805 -1071825763 779071956 1406424929 1566044940 568537701 -323196767 1416994209 1909038458
REM
CELL 1.54180   50.00000   50.00000   50.00000   90.00000   90.00000   90.00000
LATT -1
SFAC C  
C      1  0.3970790000000  0.5133090000000  0.4794700000000 1.0
C      1  0.4218910000000  0.4683060000000  0.4416990000000 1.0
C      1  0.5836190000000  0.5272790000000  0.4739450000000 1.0
C      1  0.4407300000000  0.4789130000000  0.5252270000000 1.0
C      1  0.4500510000000  0.5444990000000  0.4630640000000 1.0
C      1  0.5516380000000  0.4864350000000  0.4456510000000 1.0
C      1  0.4992360000000  0.4072030000000  0.4351590000000 1.0
C      1  0.4363370000000  0.5273680000000  0.5319490000000 1.0
C      1  0.5828780000000  0.5569420000000  0.4905230000000 1.0
C      1  0.4969550000000  0.4006950000000  0.5267700000000 1.0
C      1  0.4158700000000  0.5242940000000  0.5800310000000 1.0
C      1  0.4042700000000  0.4477590000000  0.5108000000000 1.0
C      1  0.4136830000000  0.5572580000000  0.5095830000000 1.0
C      1  0.5592570000000  0.5537050000000  0.4055630000000 1.0
C      1  0.4421610000000  0.5762610000000  0.4562310000000 1.0
C      1  0.5479200000000  0.4896990000000  0.6102420000000 1.0
C      1  0.5426260000000  0.5307700000000  0.5395370000000 1.0
C      1  0.5455110000000  0.4562700000000  0.5386870000000 1.0
C      1  0.5596420000000  0.4838600000000  0.5718860000000 1.0
C      1  0.5662270000000  0.5601900000000  0.4367240000000 1.0
C      1  0.5198660000000  0.4247290000000  0.4357840000000 1.0
C      1  0.4439560000000  0.5032120000000  0.5014630000000 1.0
C      1  0.4530350000000  0.5598070000000  0.5161480000000 1.0
C      1  0.5410760000000  0.4820360000000  0.5180220000000 1.0
C      1  0.5390940000000  0.5966660000000  0.4986730000000 1.0
C      1  0.4096780000000  0.4737760000000  0.5790480000000 1.0
C      1  0.4672310000000  0.4110300000000  0.5558430000000 1.0
C      1  0.3952280000000  0.5006280000000  0.5180050000000 1.0
C      1  0.5034500000000  0.4982140000000  0.5794930000000 1.0
C      1  0.5335560000000  0.4416620000000  0.4889790000000 1.0
C      1  0.5188180000000  0.5846610000000  0.4437330000000 1.0
C      1  0.4689280000000  0.4075860000000  0.4453580000000 1.0
C      1  0.5041310000000  0.5379250000000  0.4107330000000 1.0
C      1  0.4847780000000  0.4778780000000  0.5962150000000 1.0
C      1  0.5419560000000  0.4618440000000  0.6001780000000 1.0
C      1  0.4828930000000  0.4669480000000  0.4479370000000 1.0
C      1  0.5452210000000  0.5408340000000  0.5698520000000 1.0
C      1  0.5996930000000  0.5315050000000  0.5273730000000 1.0
C      1  0.4498030000000  0.4168220000000  0.4718510000000 1.0
C      1  0.5917050000000  0.4942530000000  0.4737920000000 1.0
C      1  0.5296540000000  0.4340970000000  0.5184970000000 1.0
C      1  0.4460190000000  0.4258120000000  0.4333690000000 1.0
C      1  0.5833520000000  0.5162570000000  0.5058250000000 1.0
C      1  0.4703050000000  0.3825330000000  0.5379880000000 1.0
C      1  0.5122200000000  0.4723230000000  0.4749330000000 1.0
C      1  0.4160900000000  0.5467240000000  0.4593880000000 1.0
C      1  0.5243520000000  0.6048510000000  0.4707420000000 1.0
C      1  0.4765260000000  0.4249920000000  0.5777860000000 1.0
C      1  0.4601690000000  0.5441580000000  0.4233880000000 1.0
C      1  0.5612660000000  0.4538030000000  0.4433730000000 1.0
C      1  0.6014970000000  0.4887100000000  0.5050700000000 1.0
C      1  0.4586550000000  0.4109400000000  0.5229420000000 1.0
C      1  0.5373720000000  0.5732520000000  0.4238030000000 1.0
C      1  0.4742220000000  0.5830850000000  0.5759880000000 1.0
C      1  0.5909370000000  0.4713800000000  0.4483410000000 1.0
C      1  0.4970900000000  0.5277480000000  0.5722390000000 1.0
C      1  0.5562700000000  0.5505820000000  0.5196400000000 1.0
C      1  0.4520170000000  0.5904250000000  0.5639060000000 1.0
C      1  0.5761680000000  0.4547450000000  0.5341660000000 1.0
C      1  0.4396950000000  0.4950610000000  0.4535410000000 1.0
C      1  0.4117990000000  0.5462680000000  0.5569680000000 1.0
C      1  0.5492490000000  0.4650520000000  0.4069300000000 1.0
C      1  0.4542610000000  0.4415690000000  0.4120470000000 1.0
C      1  0.5555310000000  0.5804400000000  0.4586420000000 1.0
C      1  0.4198820000000  0.5708810000000  0.4815760000000 1.0
C      1  0.5034500000000  0.5709050000000  0.4717730000000 1.0
C      1  0.3972800000000  0.5351480000000  0.4459600000000 1.0
C      1  0.4528030000000  0.4896020000000  0.5972980000000 1.0
C      1  0.4760040000000  0.4964540000000  0.5590320000000 1.0
C      1  0.5274280000000  0.4133970000000  0.5807080000000 1.0
C      1  0.4513120000000  0.5182740000000  0.4433600000000 1.0
C      1  0.5080060000000  0.5276470000000  0.4397840000000 1.0
C      1  0.5420750000000  0.5863800000000  0.5298820000000 1.0
C      1  0.4656560000000  0.4161660000000  0.4963070000000 1.0
C      1  0.4400960000000  0.4783920000000  0.4172820000000 1.0
C      1  0.4367540000000  0.5867240000000  0.5406860000000 1.0
C      1  0.5241850000000  0.4529540000000  0.4242150000000 1.0
C      1  0.4936570000000  0.6025410000000  0.5435860000000 1.0
C      1  0.4701490000000  0.5070250000000  0.3937050000000 1.0
C      1  0.5413880000000  0.4339560000000  0.4567660000000 1.0
C      1  0.5518550000000  0.4090120000000  0.4768420000000 1.0
C      1  0.5113740000000  0.4571160000000  0.5955800000000 1.0
C      1  0.5114830000000  0.6071170000000  0.5155640000000 1.0
C      1  0.4875630000000  0.5554850000000  0.5882850000000 1.0
C      1  0.4704780000000  0.4679340000000  0.4201890000000 1.0
C      1  0.4836010000000  0.5701530000000  0.5393280000000 1.0
C      1  0.4914840000000  0.4535540000000  0.4845540000000 1.0
C      1  0.4082720000000  0.4894840000000  0.4646810000000 1.0
C      1  0.5203220000000  0.5575310000000  0.4018260000000 1.0
C      1  0.4911240000000  0.4582830000000  0.5619670000000 1.0
C      1  0.5501920000000  0.4166530000000  0.5380600000000 1.0
C      1  0.5584230000000  0.4511730000000  0.5766220000000 1.0
C      1  0.4669910000000  0.4702680000000  0.4964080000000 1.0
C      1  0.5035650000000  0.4271240000000  0.5876360000000 1.0
C      1  0.4882300000000  0.5197720000000  0.4829040000000 1.0
C      1  0.4903690000000  0.3618740000000  0.5217940000000 1.0
C      1  0.4579620000000  0.5491210000000  0.5472940000000 1.0
C      1  0.4434160000000  0.5946820000000  0.4832190000000 1.0
C      1  0.5758170000000  0.4450250000000  0.4137590000000 1.0
C      1  0.5100810000000  0.4986890000000  0.4910630000000 1.0
C      1  0.4009620000000  0.4990350000000  0.5703090000000 1.0
C      1  0.4937920000000  0.6084050000000  0.4629760000000 1.0
C      1  0.3986850000000  0.5326190000000  0.4942730000000 1.0
C      1  0.5840870000000  0.4528700000000  0.4761770000000 1.0
C      1  0.5450630000000  0.5448920000000  0.4952320000000 1.0
C      1  0.5499980000000  0.4011660000000  0.5084330000000 1.0
C      1  0.5337220000000  0.5611160000000  0.4720120000000 1.0
C      1  0.5581940000000  0.5255320000000  0.4008970000000 1.0
C      1  0.4330990000000  0.4420460000000  0.4582280000000 1.0
C      1  0.5334080000000  0.4966650000000  0.5826940000000 1.0
C      1  0.5941750000000  0.4576330000000  0.5048030000000 1.0
C      1  0.5878570000000  0.5275370000000  0.5531280000000 1.0
C      1  0.5122550000000  0.3783150000000  0.5099560000000 1.0
C      1  0.4884830000000  0.4901680000000  0.5137650000000 1.0
C      1  0.4820850000000  0.5687290000000  0.5053280000000 1.0
C      1  0.5772280000000  0.4253930000000  0.4719190000000 1.0
C      1  0.4156020000000  0.4863120000000  0.5038610000000 1.0
C      1  0.4177700000000  0.5662270000000  0.5380590000000 1.0
C      1  0.5713640000000  0.5501610000000  0.5601590000000 1.0
C      1  0.5954230000000  0.4296180000000  0.5232850000000 1.0
C      1  0.5540890000000  0.5108450000000  0.5161540000000 1.0
C      1  0.4412380000000  0.4698050000000  0.4763880000000 1.0
C      1  0.4804350000000  0.5303090000000  0.4549180000000 1.0
C      1  0.4760250000000  0.5888210000000  0.4817070000000 1.0
C      1  0.4639660000000  0.4758150000000  0.5415650000000 1.0
C      1  0.4782490000000  0.6083670000000  0.5164780000000 1.0
C      1  0.4858090000000  0.5865480000000  0.4391540000000 1.0
C      1  0.4764880000000  0.4898170000000  0.4713390000000 1.0
C      1  0.5363060000000  0.5053820000000  0.4034330000000 1.0
C      1  0.4351260000000  0.4665440000000  0.5880760000000 1.0
C      1  0.4671530000000  0.5145550000000  0.5241730000000 1.0
C      1  0.5141760000000  0.5433620000000  0.5252110000000 1.0
C      1  0.5212530000000  0.4031360000000  0.4911290000000 1.0
C      1  0.5180370000000  0.5716450000000  0.5399930000000 1.0
C      1  0.5135240000000  0.4746470000000  0.4438280000000 1.0
C      1  0.4087180000000  0.4616780000000  0.4829920000000 1.0
C      1  0.5178740000000  0.4783080000000  0.4023910000000 1.0
C      1  0.5009430000000  0.4278620000000  0.5256770000000 1.0
C      1  0.5786980000000  0.4059710000000  0.5249210000000 1.0
C      1  0.5249640000000  0.5016910000000  0.4340310000000 1.0
C      1  0.4183120000000  0.4561700000000  0.5299810000000 1.0
C      1  0.5015770000000  0.5458630000000  0.4950600000000 1.0
C      1  0.5118290000000  0.5069870000000  0.5415050000000 1.0
C      1  0.5397500000000  0.4719690000000  0.4906350000000 1.0
C      1  0.4638490000000  0.5699150000000  0.4354650000000 1.0
C      1  0.5202600000000  0.5488610000000  0.5814260000000 1.0
C      1  0.4424090000000  0.4990740000000  0.3986760000000 1.0
C      1  0.5687710000000  0.5087510000000  0.4264740000000 1.0
C      1  0.4522120000000  0.5939610000000  0.5133820000000 1.0
C      1  0.5350200000000  0.5142560000000  0.4893240000000 1.0
C      1  0.5682140000000  0.5724980000000  0.5382940000000 1.0
C      1  0.4839360000000  0.4495760000000  0.5334360000000 1.0
C      1  0.5900170000000  0.4828080000000  0.5354180000000 1.0
C      1  0.4386310000000  0.5360340000000  0.4984260000000 1.0
C      1  0.5655380000000  0.5309620000000  0.4491180000000 1.0
C      1  0.4593240000000  0.5203550000000  0.5633850000000 1.0
C      1  0.5800080000000  0.4990050000000  0.5565930000000 1.0
C      1  0.4880860000000  0.4846120000000  0.4006800000000 1.0
C      1  0.5127700000000  0.4784650000000  0.5348370000000 1.0
C      1  0.5352800000000  0.5306920000000  0.4595070000000 1.0
C      1  0.4979050000000  0.4207060000000  0.4865190000000 1.0
C      1  0.5490810000000  0.4255850000000  0.5662740000000 1.0
C      1  0.5620320000000  0.4789680000000  0.4742220000000 1.0
C      1  0.5225060000000  0.4619650000000  0.5631000000000 1.0
C      1  0.4066780000000  0.5160120000000  0.5422110000000 1.0
C      1  0.4433010000000  0.5156360000000  0.5863480000000 1.0
C      1  0.4642760000000  0.4544110000000  0.5825930000000 1.0
C      1  0.5786290000000  0.4789150000000  0.4176390000000 1.0
C      1  0.5659000000000  0.5786830000000  0.4877970000000 1.0
C      1  0.5073720000000  0.5779430000000  0.5704300000000 1.0
C      1  0.4830100000000  0.4347640000000  0.4591010000000 1.0
C      1  0.4772610000000  0.5335460000000  0.4028320000000 1.0
C      1  0.4908150000000  0.5281660000000  0.5400340000000 1.0
END
