TITL C-2778432-5617-1160 -0.0026847448151515 125000 -344.462630023348 0 0 58 (C1) n - 1
REM
REM in /home/nfs/bkarasulu/CARBON/AIRSS/Generating-Clusters/REBO/Only-C1/SD-CG/HFTN-CG
REM
REM
REM
REM
REM
REM ./C.cell (11c1c37f851c82e70ff6c80c92926a4b)
REM
REM compiler GCC version 9.2.1 20190827 (Red Hat 9.2.1-1)
REM options -cpp -mtune=generic -march=x86-64 -g -O0 -fpre-include=/usr/include/finclude/math-vector-fortran.h
REM seed -1387789390 270216040 18645071 -577669799 -208157036 -692002055 341786437 -956681117 -1739529666 2069034011 910698933 -992211690 -717877880 -750285218 -1427466939 -2052180664 -1747260948 -903200031 -1942248544 -53139392 -945778803 1879717344 70269738 -1148069619 -1603332035 -1966223479 2084830809 952036772 629389214 -1308916216 -1028135239 1309897937 1847572179
REM
CELL 1.54180   50.00000   50.00000   50.00000   90.00000   90.00000   90.00000
LATT -1
SFAC C  
C      1  0.4798920000000  0.5432130000000  0.5400380000000 1.0
C      1  0.5331590000000  0.5444050000000  0.5356470000000 1.0
C      1  0.5211310000000  0.5657380000000  0.5175810000000 1.0
C      1  0.4723320000000  0.4698180000000  0.5736020000000 1.0
C      1  0.4897500000000  0.5653400000000  0.5205300000000 1.0
C      1  0.4542360000000  0.4497930000000  0.5128890000000 1.0
C      1  0.5169380000000  0.5088480000000  0.4984050000000 1.0
C      1  0.4936950000000  0.5016950000000  0.5301090000000 1.0
C      1  0.4380650000000  0.5270170000000  0.4815500000000 1.0
C      1  0.4553360000000  0.4800010000000  0.5292710000000 1.0
C      1  0.4593430000000  0.5048250000000  0.4460550000000 1.0
C      1  0.4837890000000  0.4272440000000  0.4823260000000 1.0
C      1  0.5403840000000  0.4542620000000  0.4883080000000 1.0
C      1  0.5289250000000  0.4886510000000  0.4395350000000 1.0
C      1  0.5388930000000  0.4629040000000  0.5212510000000 1.0
C      1  0.4326720000000  0.4788740000000  0.4715800000000 1.0
C      1  0.5457120000000  0.5613540000000  0.4701610000000 1.0
C      1  0.5295270000000  0.4858550000000  0.5423850000000 1.0
C      1  0.4347400000000  0.5062320000000  0.4605870000000 1.0
C      1  0.5610130000000  0.5313950000000  0.5273570000000 1.0
C      1  0.5048270000000  0.5131880000000  0.5727240000000 1.0
C      1  0.4752210000000  0.5168650000000  0.5618420000000 1.0
C      1  0.5253020000000  0.5712690000000  0.4868290000000 1.0
C      1  0.5038370000000  0.4818040000000  0.4973020000000 1.0
C      1  0.5422430000000  0.5131110000000  0.4351180000000 1.0
C      1  0.5642960000000  0.5042180000000  0.5350640000000 1.0
C      1  0.5551950000000  0.5025300000000  0.4839630000000 1.0
C      1  0.5008470000000  0.4871840000000  0.4341510000000 1.0
C      1  0.5165350000000  0.4868520000000  0.5677200000000 1.0
C      1  0.4698860000000  0.4836340000000  0.4985160000000 1.0
C      1  0.4870490000000  0.5130080000000  0.4387500000000 1.0
C      1  0.4786490000000  0.4863920000000  0.4671880000000 1.0
C      1  0.4967650000000  0.5326840000000  0.4579910000000 1.0
C      1  0.4996220000000  0.4658760000000  0.5772060000000 1.0
C      1  0.4522930000000  0.5499580000000  0.4729320000000 1.0
C      1  0.4937570000000  0.5694370000000  0.4892760000000 1.0
C      1  0.4570970000000  0.4399260000000  0.4851520000000 1.0
C      1  0.5674950000000  0.5303590000000  0.4992520000000 1.0
C      1  0.5709620000000  0.5531240000000  0.4833170000000 1.0
C      1  0.5186150000000  0.5245120000000  0.4749750000000 1.0
C      1  0.4791310000000  0.4623890000000  0.4435350000000 1.0
C      1  0.4977500000000  0.4399260000000  0.4605370000000 1.0
C      1  0.5405420000000  0.4778150000000  0.4676740000000 1.0
C      1  0.4975720000000  0.4283810000000  0.5085150000000 1.0
C      1  0.4634210000000  0.4906870000000  0.5557920000000 1.0
C      1  0.4357600000000  0.4835970000000  0.5022640000000 1.0
C      1  0.4816110000000  0.4464300000000  0.5256130000000 1.0
C      1  0.4462280000000  0.5146140000000  0.5070260000000 1.0
C      1  0.4943960000000  0.4716780000000  0.5276550000000 1.0
C      1  0.5086060000000  0.5375330000000  0.5556250000000 1.0
C      1  0.5578610000000  0.4874320000000  0.5142140000000 1.0
C      1  0.5249500000000  0.5141340000000  0.5277700000000 1.0
C      1  0.5088480000000  0.4694540000000  0.4689850000000 1.0
C      1  0.5249630000000  0.4350170000000  0.5085790000000 1.0
C      1  0.4801860000000  0.5534260000000  0.4698140000000 1.0
C      1  0.4695800000000  0.5178250000000  0.5224760000000 1.0
C      1  0.4510220000000  0.4580300000000  0.4628360000000 1.0
C      1  0.5475510000000  0.5282380000000  0.4626540000000 1.0
END
