TITL C-2778431-5191-406 -0.00116123521295202 125000 -1085.1674147284 0 0 184 (C1) n - 1
REM
REM in /home/nfs/bkarasulu/CARBON/AIRSS/Generating-Clusters/REBO/Only-C1/SD-CG/HFTN-CG
REM
REM
REM
REM
REM
REM ./C.cell (11c1c37f851c82e70ff6c80c92926a4b)
REM
REM compiler GCC version 9.2.1 20190827 (Red Hat 9.2.1-1)
REM options -cpp -mtune=generic -march=x86-64 -g -O0 -fpre-include=/usr/include/finclude/math-vector-fortran.h
REM seed -1016043011 102349219 -1876931076 832569653 -554330716 1557187766 654440211 -1728422552 1234021958 -1586004035 -848891555 1531882320 -1524772754 -342741148 -227180192 1775985798 676174900 -1975294362 1455775279 2108408166 741884461 1917399985 -609833917 2016900602 -786368346 1165477391 -964769739 -1406464175 -1355133442 148104226 1865096562 -1304978007 516041292
REM
CELL 1.54180   50.00000   50.00000   50.00000   90.00000   90.00000   90.00000
LATT -1
SFAC C  
C      1  0.5459900000000  0.5906560000000  0.5413830000000 1.0
C      1  0.4948960000000  0.4804780000000  0.4858440000000 1.0
C      1  0.5670040000000  0.4249230000000  0.5324080000000 1.0
C      1  0.6113090000000  0.5038660000000  0.5509530000000 1.0
C      1  0.3960770000000  0.4995930000000  0.4659150000000 1.0
C      1  0.4366550000000  0.4835870000000  0.4045930000000 1.0
C      1  0.5966480000000  0.5353080000000  0.4876890000000 1.0
C      1  0.4098470000000  0.5086730000000  0.4378130000000 1.0
C      1  0.4452170000000  0.5455560000000  0.4784280000000 1.0
C      1  0.5606120000000  0.5972120000000  0.4520480000000 1.0
C      1  0.3935790000000  0.4683930000000  0.4791150000000 1.0
C      1  0.5152500000000  0.4891670000000  0.6095750000000 1.0
C      1  0.5603910000000  0.5467550000000  0.5116640000000 1.0
C      1  0.5477360000000  0.5132280000000  0.4414030000000 1.0
C      1  0.5245120000000  0.4617060000000  0.5047390000000 1.0
C      1  0.5176730000000  0.4824180000000  0.4318670000000 1.0
C      1  0.4766380000000  0.4407860000000  0.5734890000000 1.0
C      1  0.5461730000000  0.4497500000000  0.5373810000000 1.0
C      1  0.3972080000000  0.5218870000000  0.4868620000000 1.0
C      1  0.5253280000000  0.5265760000000  0.4261310000000 1.0
C      1  0.3878160000000  0.4729130000000  0.6113020000000 1.0
C      1  0.4669540000000  0.4726230000000  0.4134810000000 1.0
C      1  0.4810110000000  0.6049570000000  0.4960650000000 1.0
C      1  0.4486370000000  0.4992810000000  0.4389780000000 1.0
C      1  0.4107460000000  0.5215370000000  0.5611220000000 1.0
C      1  0.5267470000000  0.5622830000000  0.5923470000000 1.0
C      1  0.4697810000000  0.4078060000000  0.5519610000000 1.0
C      1  0.5709350000000  0.4438390000000  0.4535230000000 1.0
C      1  0.4673970000000  0.6030720000000  0.5246170000000 1.0
C      1  0.5735000000000  0.5069800000000  0.4201040000000 1.0
C      1  0.5854570000000  0.4680170000000  0.5519940000000 1.0
C      1  0.4053820000000  0.4436040000000  0.4991270000000 1.0
C      1  0.4803350000000  0.4998100000000  0.4655990000000 1.0
C      1  0.5084670000000  0.4134790000000  0.4937000000000 1.0
C      1  0.5404990000000  0.5409740000000  0.3996940000000 1.0
C      1  0.5839490000000  0.5515180000000  0.5427370000000 1.0
C      1  0.5917550000000  0.4623300000000  0.5246870000000 1.0
C      1  0.5556530000000  0.5020180000000  0.5811860000000 1.0
C      1  0.4474970000000  0.4668670000000  0.5658020000000 1.0
C      1  0.5146550000000  0.5134110000000  0.5271540000000 1.0
C      1  0.4555280000000  0.5223780000000  0.5087240000000 1.0
C      1  0.5882250000000  0.5587230000000  0.4751400000000 1.0
C      1  0.4531470000000  0.5064110000000  0.4789910000000 1.0
C      1  0.4506310000000  0.5537290000000  0.4357690000000 1.0
C      1  0.4173130000000  0.4828830000000  0.5326220000000 1.0
C      1  0.4199530000000  0.5631920000000  0.5124900000000 1.0
C      1  0.4555930000000  0.4560690000000  0.4675270000000 1.0
C      1  0.4586690000000  0.5557420000000  0.5076160000000 1.0
C      1  0.5403710000000  0.4014050000000  0.4728760000000 1.0
C      1  0.4652800000000  0.4409350000000  0.4172540000000 1.0
C      1  0.5161870000000  0.4375180000000  0.5408230000000 1.0
C      1  0.4465610000000  0.5779440000000  0.5278110000000 1.0
C      1  0.5306540000000  0.4368260000000  0.4885810000000 1.0
C      1  0.5976670000000  0.4840550000000  0.4806140000000 1.0
C      1  0.5129780000000  0.5900220000000  0.5360510000000 1.0
C      1  0.4542910000000  0.5102120000000  0.4084240000000 1.0
C      1  0.4873690000000  0.6020280000000  0.5455860000000 1.0
C      1  0.4940120000000  0.5309450000000  0.6105290000000 1.0
C      1  0.4685280000000  0.4483950000000  0.5210870000000 1.0
C      1  0.5634540000000  0.4638640000000  0.4965140000000 1.0
C      1  0.4184390000000  0.4269220000000  0.4431920000000 1.0
C      1  0.5662770000000  0.5231670000000  0.5492910000000 1.0
C      1  0.4903060000000  0.5021380000000  0.6159790000000 1.0
C      1  0.4423840000000  0.4097600000000  0.5176320000000 1.0
C      1  0.5265130000000  0.4882980000000  0.4847270000000 1.0
C      1  0.4866770000000  0.4882730000000  0.4354970000000 1.0
C      1  0.5858720000000  0.4794480000000  0.4159450000000 1.0
C      1  0.5381420000000  0.4114130000000  0.5443770000000 1.0
C      1  0.4678410000000  0.4967290000000  0.5231610000000 1.0
C      1  0.5831960000000  0.4980670000000  0.5630930000000 1.0
C      1  0.4394630000000  0.4728970000000  0.4468630000000 1.0
C      1  0.5387750000000  0.5837710000000  0.4903170000000 1.0
C      1  0.4833890000000  0.5433620000000  0.3999200000000 1.0
C      1  0.5290070000000  0.4907090000000  0.4005500000000 1.0
C      1  0.4446050000000  0.4776770000000  0.4877920000000 1.0
C      1  0.4970400000000  0.4469580000000  0.4083950000000 1.0
C      1  0.4968750000000  0.4795580000000  0.3979180000000 1.0
C      1  0.4848530000000  0.5711600000000  0.4993150000000 1.0
C      1  0.4128410000000  0.4904870000000  0.4172650000000 1.0
C      1  0.5709830000000  0.5769360000000  0.4972690000000 1.0
C      1  0.4812500000000  0.5417970000000  0.5871260000000 1.0
C      1  0.5112150000000  0.5552790000000  0.4383960000000 1.0
C      1  0.3932890000000  0.5161480000000  0.5404770000000 1.0
C      1  0.3969520000000  0.4760000000000  0.5869340000000 1.0
C      1  0.5872790000000  0.5250810000000  0.4419880000000 1.0
C      1  0.4671720000000  0.5403760000000  0.5561560000000 1.0
C      1  0.5535800000000  0.4701620000000  0.5909180000000 1.0
C      1  0.4307930000000  0.4547940000000  0.5424310000000 1.0
C      1  0.4571980000000  0.4337300000000  0.5463410000000 1.0
C      1  0.4990590000000  0.4110890000000  0.5530630000000 1.0
C      1  0.5025020000000  0.4843040000000  0.5574560000000 1.0
C      1  0.5540270000000  0.5311420000000  0.4626850000000 1.0
C      1  0.4780450000000  0.5855460000000  0.5661630000000 1.0
C      1  0.3897160000000  0.5059790000000  0.5153300000000 1.0
C      1  0.5599000000000  0.4252050000000  0.5656850000000 1.0
C      1  0.4528560000000  0.4736030000000  0.5150130000000 1.0
C      1  0.4809990000000  0.3907770000000  0.4754630000000 1.0
C      1  0.4061520000000  0.4791090000000  0.5623940000000 1.0
C      1  0.5382330000000  0.4868900000000  0.4544190000000 1.0
C      1  0.4834500000000  0.4216430000000  0.4362000000000 1.0
C      1  0.4988960000000  0.5667320000000  0.5761540000000 1.0
C      1  0.5123860000000  0.3910330000000  0.4698480000000 1.0
C      1  0.4545750000000  0.5895990000000  0.4810190000000 1.0
C      1  0.5346510000000  0.4459250000000  0.5752440000000 1.0
C      1  0.4415740000000  0.5340820000000  0.4010230000000 1.0
C      1  0.5963040000000  0.4631050000000  0.4629620000000 1.0
C      1  0.5317830000000  0.4740590000000  0.5563670000000 1.0
C      1  0.6080340000000  0.5074610000000  0.5239450000000 1.0
C      1  0.5249120000000  0.5573900000000  0.4886310000000 1.0
C      1  0.5628490000000  0.5730350000000  0.4361430000000 1.0
C      1  0.4855050000000  0.4534300000000  0.4778230000000 1.0
C      1  0.4166300000000  0.5349030000000  0.5111670000000 1.0
C      1  0.5021360000000  0.6031150000000  0.4558120000000 1.0
C      1  0.5110830000000  0.6123740000000  0.4876820000000 1.0
C      1  0.5306580000000  0.6040400000000  0.5137980000000 1.0
C      1  0.4438150000000  0.4223920000000  0.4331240000000 1.0
C      1  0.4310720000000  0.5105450000000  0.5286990000000 1.0
C      1  0.5148220000000  0.4251970000000  0.4277690000000 1.0
C      1  0.4718880000000  0.5647460000000  0.4158950000000 1.0
C      1  0.5318910000000  0.4357110000000  0.4543820000000 1.0
C      1  0.5064330000000  0.4301580000000  0.5796390000000 1.0
C      1  0.5825580000000  0.5541720000000  0.4469530000000 1.0
C      1  0.5738860000000  0.5788660000000  0.5313220000000 1.0
C      1  0.4250570000000  0.4318300000000  0.5206770000000 1.0
C      1  0.5241570000000  0.5030710000000  0.5859970000000 1.0
C      1  0.5000430000000  0.4293010000000  0.4644150000000 1.0
C      1  0.5457140000000  0.5335170000000  0.5718940000000 1.0
C      1  0.5503860000000  0.4434850000000  0.4268970000000 1.0
C      1  0.5010340000000  0.5146680000000  0.5658440000000 1.0
C      1  0.4440490000000  0.5184980000000  0.5578730000000 1.0
C      1  0.5413310000000  0.5022520000000  0.5397560000000 1.0
C      1  0.5363140000000  0.5523820000000  0.5350330000000 1.0
C      1  0.5503280000000  0.5118080000000  0.3989460000000 1.0
C      1  0.4680770000000  0.4311300000000  0.4960470000000 1.0
C      1  0.4804690000000  0.5417570000000  0.4472520000000 1.0
C      1  0.4348960000000  0.5210560000000  0.4571980000000 1.0
C      1  0.4693190000000  0.4907940000000  0.5995170000000 1.0
C      1  0.4116880000000  0.4718640000000  0.4526460000000 1.0
C      1  0.5792240000000  0.4367500000000  0.5067210000000 1.0
C      1  0.4997510000000  0.3984580000000  0.5211680000000 1.0
C      1  0.4725580000000  0.4002450000000  0.5048800000000 1.0
C      1  0.4453920000000  0.4267380000000  0.4726950000000 1.0
C      1  0.5866500000000  0.5103160000000  0.4719730000000 1.0
C      1  0.4614200000000  0.4636510000000  0.5938670000000 1.0
C      1  0.5396530000000  0.5633440000000  0.4215860000000 1.0
C      1  0.4823200000000  0.5788230000000  0.4661370000000 1.0
C      1  0.4121080000000  0.5488790000000  0.4732920000000 1.0
C      1  0.5332180000000  0.6017470000000  0.4636180000000 1.0
C      1  0.3965070000000  0.4746140000000  0.5104950000000 1.0
C      1  0.4140560000000  0.4292580000000  0.4721460000000 1.0
C      1  0.5592310000000  0.5217200000000  0.4903930000000 1.0
C      1  0.4879700000000  0.5343260000000  0.5325050000000 1.0
C      1  0.5104280000000  0.5127840000000  0.4683530000000 1.0
C      1  0.5154170000000  0.5415610000000  0.5602710000000 1.0
C      1  0.4953990000000  0.5197830000000  0.4298760000000 1.0
C      1  0.5736960000000  0.4525190000000  0.5731280000000 1.0
C      1  0.5275000000000  0.5269780000000  0.5014930000000 1.0
C      1  0.5919270000000  0.5321230000000  0.5173160000000 1.0
C      1  0.4985000000000  0.4573440000000  0.5245580000000 1.0
C      1  0.4246320000000  0.5581340000000  0.4467660000000 1.0
C      1  0.4779110000000  0.5376950000000  0.4780370000000 1.0
C      1  0.5613320000000  0.4273200000000  0.4799480000000 1.0
C      1  0.4866550000000  0.5839910000000  0.4327490000000 1.0
C      1  0.6023390000000  0.4836170000000  0.5088770000000 1.0
C      1  0.5782820000000  0.4558530000000  0.4162840000000 1.0
C      1  0.5290530000000  0.4641720000000  0.6110710000000 1.0
C      1  0.5156780000000  0.4401120000000  0.6097430000000 1.0
C      1  0.5281730000000  0.4588290000000  0.4115930000000 1.0
C      1  0.4937890000000  0.5323170000000  0.4988730000000 1.0
C      1  0.5456370000000  0.5669220000000  0.5649130000000 1.0
C      1  0.5254970000000  0.3885840000000  0.5335490000000 1.0
C      1  0.4314340000000  0.5809540000000  0.4909300000000 1.0
C      1  0.4561770000000  0.5693330000000  0.5558850000000 1.0
C      1  0.5496770000000  0.4781340000000  0.5210030000000 1.0
C      1  0.4969600000000  0.4898540000000  0.5182520000000 1.0
C      1  0.4632840000000  0.4052170000000  0.4551910000000 1.0
C      1  0.4787480000000  0.4704930000000  0.5586080000000 1.0
C      1  0.4839180000000  0.5093110000000  0.4016100000000 1.0
C      1  0.5156820000000  0.5408130000000  0.4659780000000 1.0
C      1  0.5788860000000  0.6000440000000  0.4734370000000 1.0
C      1  0.4694660000000  0.5058030000000  0.5748460000000 1.0
C      1  0.5573920000000  0.4670700000000  0.4709160000000 1.0
C      1  0.5200440000000  0.5447450000000  0.6133750000000 1.0
C      1  0.5057500000000  0.5617380000000  0.5230530000000 1.0
END
