TITL C-2778423-5760-718 0.00479687327890828 125000 -682.989999926434 0 0 118 (C1) n - 1
REM
REM in /home/nfs/bkarasulu/CARBON/AIRSS/Generating-Clusters/REBO/Only-C1/SD-CG/HFTN-CG
REM
REM
REM
REM
REM
REM ./C.cell (11c1c37f851c82e70ff6c80c92926a4b)
REM
REM compiler GCC version 9.2.1 20190827 (Red Hat 9.2.1-1)
REM options -cpp -mtune=generic -march=x86-64 -g -O0 -fpre-include=/usr/include/finclude/math-vector-fortran.h
REM seed -1315641606 -1355973672 1809117693 -1737726333 -244831329 -1469495551 -1276761092 1618020872 -2021147203 -65495252 892688394 -825701648 744538257 -233689381 1378245392 1079949372 -1516706559 -1414863149 -360702365 -2047632094 1720631966 -565392254 -966539368 151175839 -1862665846 -1149336429 -2024310588 -1599233144 -762095188 -2622790 -972005137 -7196019 -324338466
REM
CELL 1.54180   50.00000   50.00000   50.00000   90.00000   90.00000   90.00000
LATT -1
SFAC C  
C      1  0.5008200000000  0.4142740000000  0.4793220000000 1.0
C      1  0.5508570000000  0.4366750000000  0.5098990000000 1.0
C      1  0.5401790000000  0.5547970000000  0.5591690000000 1.0
C      1  0.5886780000000  0.5307550000000  0.5136260000000 1.0
C      1  0.4776940000000  0.5933480000000  0.4668060000000 1.0
C      1  0.5603830000000  0.4982420000000  0.5836920000000 1.0
C      1  0.5073940000000  0.5721320000000  0.5738500000000 1.0
C      1  0.4917710000000  0.4305950000000  0.4538880000000 1.0
C      1  0.4380580000000  0.4394150000000  0.5305320000000 1.0
C      1  0.5685440000000  0.5442440000000  0.5653040000000 1.0
C      1  0.5362470000000  0.4946830000000  0.4712300000000 1.0
C      1  0.4447790000000  0.4536480000000  0.4701180000000 1.0
C      1  0.4313630000000  0.5475310000000  0.4585190000000 1.0
C      1  0.4355920000000  0.5728070000000  0.5351520000000 1.0
C      1  0.5142280000000  0.5248150000000  0.5549150000000 1.0
C      1  0.4892800000000  0.5258860000000  0.4459120000000 1.0
C      1  0.4168340000000  0.5043230000000  0.4838440000000 1.0
C      1  0.5744030000000  0.5422220000000  0.4906380000000 1.0
C      1  0.5043990000000  0.4020300000000  0.5101040000000 1.0
C      1  0.5092870000000  0.5209400000000  0.4289400000000 1.0
C      1  0.4442370000000  0.4703310000000  0.5064550000000 1.0
C      1  0.4689860000000  0.5272520000000  0.5378090000000 1.0
C      1  0.5055090000000  0.5662530000000  0.5186010000000 1.0
C      1  0.5240840000000  0.4465090000000  0.4769890000000 1.0
C      1  0.5376910000000  0.5345230000000  0.5333990000000 1.0
C      1  0.4664820000000  0.4710930000000  0.5688140000000 1.0
C      1  0.4731710000000  0.5415350000000  0.4044670000000 1.0
C      1  0.4235830000000  0.4924110000000  0.4427580000000 1.0
C      1  0.5206430000000  0.4448620000000  0.4443240000000 1.0
C      1  0.4453770000000  0.4936850000000  0.4184530000000 1.0
C      1  0.4796890000000  0.4417410000000  0.5667570000000 1.0
C      1  0.4496410000000  0.5865190000000  0.5072180000000 1.0
C      1  0.4686250000000  0.6059390000000  0.4945530000000 1.0
C      1  0.4801670000000  0.5572590000000  0.4499340000000 1.0
C      1  0.4705430000000  0.4551810000000  0.4532150000000 1.0
C      1  0.5747990000000  0.4775780000000  0.5276230000000 1.0
C      1  0.5054230000000  0.5052200000000  0.5066350000000 1.0
C      1  0.5536400000000  0.5045530000000  0.4982000000000 1.0
C      1  0.5442730000000  0.4696770000000  0.5152430000000 1.0
C      1  0.4748230000000  0.4024540000000  0.5223620000000 1.0
C      1  0.6028620000000  0.5063150000000  0.5064860000000 1.0
C      1  0.4670580000000  0.5657390000000  0.5281590000000 1.0
C      1  0.5447520000000  0.4666850000000  0.4842270000000 1.0
C      1  0.5336650000000  0.4177650000000  0.4878490000000 1.0
C      1  0.5194690000000  0.4771870000000  0.4518040000000 1.0
C      1  0.5416890000000  0.4783920000000  0.6044220000000 1.0
C      1  0.4457840000000  0.5022840000000  0.4653010000000 1.0
C      1  0.4474630000000  0.5193530000000  0.5545730000000 1.0
C      1  0.4923750000000  0.4499530000000  0.5245820000000 1.0
C      1  0.4034760000000  0.4736970000000  0.4898510000000 1.0
C      1  0.5781010000000  0.5265240000000  0.4668520000000 1.0
C      1  0.5197350000000  0.5586660000000  0.4208740000000 1.0
C      1  0.5076150000000  0.4230170000000  0.5314820000000 1.0
C      1  0.5079610000000  0.4382600000000  0.5784740000000 1.0
C      1  0.5177700000000  0.5776140000000  0.5468670000000 1.0
C      1  0.5159310000000  0.5449810000000  0.5815220000000 1.0
C      1  0.4641130000000  0.5292100000000  0.4884530000000 1.0
C      1  0.4909790000000  0.4771760000000  0.4671420000000 1.0
C      1  0.5726800000000  0.5006520000000  0.4561170000000 1.0
C      1  0.4929890000000  0.4739070000000  0.5473950000000 1.0
C      1  0.4322450000000  0.5720520000000  0.4826480000000 1.0
C      1  0.4655980000000  0.4789110000000  0.5299060000000 1.0
C      1  0.4127100000000  0.4853750000000  0.5421420000000 1.0
C      1  0.4231650000000  0.4694050000000  0.4655250000000 1.0
C      1  0.5340700000000  0.5538950000000  0.4452090000000 1.0
C      1  0.4321800000000  0.5326490000000  0.4869520000000 1.0
C      1  0.4393260000000  0.4682070000000  0.5484780000000 1.0
C      1  0.5551250000000  0.4982980000000  0.4341830000000 1.0
C      1  0.5913280000000  0.4769580000000  0.5006450000000 1.0
C      1  0.5110700000000  0.5895450000000  0.4744320000000 1.0
C      1  0.5537350000000  0.5112410000000  0.5248390000000 1.0
C      1  0.5609790000000  0.4610950000000  0.5504020000000 1.0
C      1  0.4480250000000  0.4387210000000  0.4977760000000 1.0
C      1  0.5793180000000  0.4454620000000  0.4958500000000 1.0
C      1  0.5695170000000  0.5281660000000  0.5877980000000 1.0
C      1  0.5173080000000  0.4932070000000  0.5527250000000 1.0
C      1  0.4774900000000  0.5064240000000  0.5180980000000 1.0
C      1  0.5214910000000  0.4877180000000  0.5224650000000 1.0
C      1  0.4752040000000  0.4260570000000  0.4977210000000 1.0
C      1  0.4539940000000  0.5721110000000  0.4566280000000 1.0
C      1  0.5826570000000  0.5324360000000  0.5419400000000 1.0
C      1  0.4912970000000  0.5564540000000  0.4203570000000 1.0
C      1  0.4538440000000  0.4697300000000  0.3957710000000 1.0
C      1  0.4224200000000  0.5159610000000  0.5417540000000 1.0
C      1  0.5318800000000  0.5107660000000  0.4158160000000 1.0
C      1  0.4951360000000  0.4531970000000  0.4911450000000 1.0
C      1  0.5828520000000  0.4254190000000  0.4767310000000 1.0
C      1  0.5373560000000  0.4530420000000  0.5812250000000 1.0
C      1  0.4534540000000  0.5247270000000  0.4124290000000 1.0
C      1  0.5256150000000  0.4275930000000  0.5527140000000 1.0
C      1  0.4188010000000  0.5615160000000  0.5108640000000 1.0
C      1  0.5062730000000  0.4227090000000  0.4256980000000 1.0
C      1  0.4805710000000  0.5523580000000  0.4999230000000 1.0
C      1  0.5497090000000  0.4368440000000  0.5416890000000 1.0
C      1  0.4979240000000  0.5600400000000  0.4750920000000 1.0
C      1  0.5189430000000  0.5389480000000  0.4693140000000 1.0
C      1  0.5728050000000  0.4786050000000  0.4745580000000 1.0
C      1  0.4130490000000  0.5302320000000  0.5139840000000 1.0
C      1  0.4542840000000  0.5002170000000  0.5749120000000 1.0
C      1  0.4980310000000  0.6097290000000  0.4966450000000 1.0
C      1  0.5170940000000  0.4549850000000  0.6070760000000 1.0
C      1  0.4780370000000  0.5065970000000  0.4665740000000 1.0
C      1  0.5386460000000  0.5735350000000  0.4686410000000 1.0
C      1  0.4538940000000  0.4975810000000  0.4968790000000 1.0
C      1  0.5372460000000  0.4721750000000  0.4233840000000 1.0
C      1  0.4330810000000  0.5246770000000  0.4371310000000 1.0
C      1  0.5609150000000  0.4085370000000  0.4731260000000 1.0
C      1  0.5181410000000  0.5158290000000  0.4837410000000 1.0
C      1  0.4916430000000  0.5475480000000  0.5434270000000 1.0
C      1  0.4011240000000  0.4983260000000  0.5133490000000 1.0
C      1  0.4143920000000  0.4610540000000  0.5183800000000 1.0
C      1  0.4637000000000  0.4657930000000  0.4257450000000 1.0
C      1  0.5723480000000  0.5014720000000  0.5517000000000 1.0
C      1  0.5330030000000  0.5547740000000  0.5116120000000 1.0
C      1  0.4682800000000  0.4297070000000  0.5378540000000 1.0
C      1  0.5508880000000  0.5597370000000  0.4910850000000 1.0
C      1  0.5267900000000  0.4860230000000  0.3964630000000 1.0
C      1  0.5413550000000  0.4803230000000  0.5651480000000 1.0
END
