TITL C-2778428-5639-1114 -0.00366261131816677 125000 -640.046424273648 0 0 112 (C1) n - 1
REM
REM in /home/nfs/bkarasulu/CARBON/AIRSS/Generating-Clusters/REBO/Only-C1/SD-CG/HFTN-CG
REM
REM
REM
REM
REM
REM ./C.cell (11c1c37f851c82e70ff6c80c92926a4b)
REM
REM compiler GCC version 9.2.1 20190827 (Red Hat 9.2.1-1)
REM options -cpp -mtune=generic -march=x86-64 -g -O0 -fpre-include=/usr/include/finclude/math-vector-fortran.h
REM seed 1287089174 1650064239 1640712273 -1362929177 581766536 -1941087891 1976039231 345583167 -1946560006 -988834899 -676609894 319364761 2045942290 1854654819 120831764 -800555670 1995549708 272299325 1032356291 1154203645 -1406752786 489015185 -1135402416 1119854921 -1105064361 -1991111552 399608361 158228955 1599532939 -144003321 1301313403 -589821658 1802380360
REM
CELL 1.54180   50.00000   50.00000   50.00000   90.00000   90.00000   90.00000
LATT -1
SFAC C  
C      1  0.5206940000000  0.4326840000000  0.4747390000000 1.0
C      1  0.3975300000000  0.5107930000000  0.4702810000000 1.0
C      1  0.5295090000000  0.4932360000000  0.5866120000000 1.0
C      1  0.5289770000000  0.4652440000000  0.5673970000000 1.0
C      1  0.4824260000000  0.4759320000000  0.4070590000000 1.0
C      1  0.5909290000000  0.5376820000000  0.5383650000000 1.0
C      1  0.5304260000000  0.5456100000000  0.4541660000000 1.0
C      1  0.4782270000000  0.4080310000000  0.5207900000000 1.0
C      1  0.5862820000000  0.5443750000000  0.4998300000000 1.0
C      1  0.4965090000000  0.4778090000000  0.4636800000000 1.0
C      1  0.5552350000000  0.5402300000000  0.5664100000000 1.0
C      1  0.5699670000000  0.4833770000000  0.4907210000000 1.0
C      1  0.5667230000000  0.5053240000000  0.4429340000000 1.0
C      1  0.5581440000000  0.5309440000000  0.4635920000000 1.0
C      1  0.5740260000000  0.4592260000000  0.5143770000000 1.0
C      1  0.5684130000000  0.4445880000000  0.4594770000000 1.0
C      1  0.5363530000000  0.5499210000000  0.5115950000000 1.0
C      1  0.5525890000000  0.4269980000000  0.4797000000000 1.0
C      1  0.4722680000000  0.5692810000000  0.4885740000000 1.0
C      1  0.5010160000000  0.4759790000000  0.5820860000000 1.0
C      1  0.4375760000000  0.4584430000000  0.5526100000000 1.0
C      1  0.4926280000000  0.4273390000000  0.4348100000000 1.0
C      1  0.5358210000000  0.4101580000000  0.5040630000000 1.0
C      1  0.4893890000000  0.5733980000000  0.5402010000000 1.0
C      1  0.4597700000000  0.4362850000000  0.5278230000000 1.0
C      1  0.4950260000000  0.5838190000000  0.5090650000000 1.0
C      1  0.4839090000000  0.4552290000000  0.4482540000000 1.0
C      1  0.4582700000000  0.5659840000000  0.5466660000000 1.0
C      1  0.5282920000000  0.5227610000000  0.4088710000000 1.0
C      1  0.5067960000000  0.5414390000000  0.5787320000000 1.0
C      1  0.4976030000000  0.5293970000000  0.4227160000000 1.0
C      1  0.4765510000000  0.5263010000000  0.5830840000000 1.0
C      1  0.5032940000000  0.4127230000000  0.5103310000000 1.0
C      1  0.4262980000000  0.4967110000000  0.5551580000000 1.0
C      1  0.5053950000000  0.4783110000000  0.4242000000000 1.0
C      1  0.4527040000000  0.4724610000000  0.5727320000000 1.0
C      1  0.4302760000000  0.4858400000000  0.4447940000000 1.0
C      1  0.5002700000000  0.4855870000000  0.5433190000000 1.0
C      1  0.4799980000000  0.5521470000000  0.4332400000000 1.0
C      1  0.4830880000000  0.4422040000000  0.5521570000000 1.0
C      1  0.4779720000000  0.4598110000000  0.5736520000000 1.0
C      1  0.5399490000000  0.4774630000000  0.5041010000000 1.0
C      1  0.4421180000000  0.5635420000000  0.5167890000000 1.0
C      1  0.5092910000000  0.4347870000000  0.5430180000000 1.0
C      1  0.4590010000000  0.4743910000000  0.4238390000000 1.0
C      1  0.5128770000000  0.5666970000000  0.5596360000000 1.0
C      1  0.5589250000000  0.5741840000000  0.5339400000000 1.0
C      1  0.4989460000000  0.5032270000000  0.4424700000000 1.0
C      1  0.5287700000000  0.4688110000000  0.5352850000000 1.0
C      1  0.5444580000000  0.5028910000000  0.5580660000000 1.0
C      1  0.4501610000000  0.5063250000000  0.5745730000000 1.0
C      1  0.4276110000000  0.4675740000000  0.4910010000000 1.0
C      1  0.4826950000000  0.5424650000000  0.5026300000000 1.0
C      1  0.4406810000000  0.4968210000000  0.4862080000000 1.0
C      1  0.5606030000000  0.4333280000000  0.5108100000000 1.0
C      1  0.4087970000000  0.5015480000000  0.4940020000000 1.0
C      1  0.5327720000000  0.4732180000000  0.4248630000000 1.0
C      1  0.4737750000000  0.4899050000000  0.4823990000000 1.0
C      1  0.5098830000000  0.5009420000000  0.5146370000000 1.0
C      1  0.4326900000000  0.5352420000000  0.5471850000000 1.0
C      1  0.4415900000000  0.4477640000000  0.4787220000000 1.0
C      1  0.4441850000000  0.4546160000000  0.4473130000000 1.0
C      1  0.5604110000000  0.4703140000000  0.5416250000000 1.0
C      1  0.4962590000000  0.5046200000000  0.5676350000000 1.0
C      1  0.5790020000000  0.5120860000000  0.5045350000000 1.0
C      1  0.4613700000000  0.4938690000000  0.4516670000000 1.0
C      1  0.5708980000000  0.4787270000000  0.4607390000000 1.0
C      1  0.4848680000000  0.4950710000000  0.3858080000000 1.0
C      1  0.4638680000000  0.4281480000000  0.4521250000000 1.0
C      1  0.4246100000000  0.4923400000000  0.5222230000000 1.0
C      1  0.5154850000000  0.5692770000000  0.4657060000000 1.0
C      1  0.4996300000000  0.5174370000000  0.3914880000000 1.0
C      1  0.5377940000000  0.5731350000000  0.5508900000000 1.0
C      1  0.5365770000000  0.4261440000000  0.5338950000000 1.0
C      1  0.4453220000000  0.5168140000000  0.5263350000000 1.0
C      1  0.5763400000000  0.4952070000000  0.5583970000000 1.0
C      1  0.4622170000000  0.4357950000000  0.4935350000000 1.0
C      1  0.4870860000000  0.4281960000000  0.4773750000000 1.0
C      1  0.4940300000000  0.5734580000000  0.4471770000000 1.0
C      1  0.4496000000000  0.5250850000000  0.4761250000000 1.0
C      1  0.4300480000000  0.5328050000000  0.4374130000000 1.0
C      1  0.4486900000000  0.4692360000000  0.5247570000000 1.0
C      1  0.5492230000000  0.5328310000000  0.4309840000000 1.0
C      1  0.5570210000000  0.5342620000000  0.5327350000000 1.0
C      1  0.5476320000000  0.4963230000000  0.4168650000000 1.0
C      1  0.5090720000000  0.4438370000000  0.5112080000000 1.0
C      1  0.5851760000000  0.4891400000000  0.5268960000000 1.0
C      1  0.4775650000000  0.5229140000000  0.4603480000000 1.0
C      1  0.4526120000000  0.5499320000000  0.4423650000000 1.0
C      1  0.5321000000000  0.5254310000000  0.5812640000000 1.0
C      1  0.5193530000000  0.5726060000000  0.4939750000000 1.0
C      1  0.5238590000000  0.4665170000000  0.4760440000000 1.0
C      1  0.4701180000000  0.5389540000000  0.5341630000000 1.0
C      1  0.5516470000000  0.5259670000000  0.4929910000000 1.0
C      1  0.4745860000000  0.4840330000000  0.5218910000000 1.0
C      1  0.5072610000000  0.5486780000000  0.5234880000000 1.0
C      1  0.4336400000000  0.4288230000000  0.5487730000000 1.0
C      1  0.4965820000000  0.5317470000000  0.5490610000000 1.0
C      1  0.5150550000000  0.4176720000000  0.4467930000000 1.0
C      1  0.4501910000000  0.5638770000000  0.4670410000000 1.0
C      1  0.5079590000000  0.5298320000000  0.4706900000000 1.0
C      1  0.5432440000000  0.4636480000000  0.4509830000000 1.0
C      1  0.4147660000000  0.5102020000000  0.4468750000000 1.0
C      1  0.5813000000000  0.5251700000000  0.5631220000000 1.0
C      1  0.4617900000000  0.5891310000000  0.5143000000000 1.0
C      1  0.4995600000000  0.4693070000000  0.5072010000000 1.0
C      1  0.5412210000000  0.5050260000000  0.5252450000000 1.0
C      1  0.4381660000000  0.5490180000000  0.4925260000000 1.0
C      1  0.5196860000000  0.5191580000000  0.4923710000000 1.0
C      1  0.4720660000000  0.5116040000000  0.5058860000000 1.0
C      1  0.4515750000000  0.5422530000000  0.5701370000000 1.0
C      1  0.5749200000000  0.5649930000000  0.5139770000000 1.0
END
