TITL C-2778422-5617-935 0.00263694511353139 125000 -425.000422305034 0 0 72 (C1) n - 1
REM
REM in /home/nfs/bkarasulu/CARBON/AIRSS/Generating-Clusters/REBO/Only-C1/SD-CG/HFTN-CG
REM
REM
REM
REM
REM
REM ./C.cell (11c1c37f851c82e70ff6c80c92926a4b)
REM
REM compiler GCC version 9.2.1 20190827 (Red Hat 9.2.1-1)
REM options -cpp -mtune=generic -march=x86-64 -g -O0 -fpre-include=/usr/include/finclude/math-vector-fortran.h
REM seed -520719271 1832684520 -1251393946 -902942244 1727698376 843017044 -488561322 824101215 2010173279 -1032305343 1786850706 -435121764 800686885 -21184407 1192473884 -2130813168 1806898833 -1801775971 2140125321 1518743630 -1321920906 916129050 1421240718 1740354694 1095429955 2107372095 -1535618503 -179725897 -1517313619 205527702 -180245633 -769109470 -718324238
REM
CELL 1.54180   50.00000   50.00000   50.00000   90.00000   90.00000   90.00000
LATT -1
SFAC C  
C      1  0.4729810000000  0.4991420000000  0.5173100000000 1.0
C      1  0.5600320000000  0.4356310000000  0.5189960000000 1.0
C      1  0.4239110000000  0.4879790000000  0.5337410000000 1.0
C      1  0.4552880000000  0.5450430000000  0.5699180000000 1.0
C      1  0.5069930000000  0.5022430000000  0.5128810000000 1.0
C      1  0.4972140000000  0.5480400000000  0.4797060000000 1.0
C      1  0.4801520000000  0.4863760000000  0.4379500000000 1.0
C      1  0.4808990000000  0.5295110000000  0.5651400000000 1.0
C      1  0.4734750000000  0.4826800000000  0.4642090000000 1.0
C      1  0.5108970000000  0.5208190000000  0.4844030000000 1.0
C      1  0.5773090000000  0.5294410000000  0.4980150000000 1.0
C      1  0.3828890000000  0.4983890000000  0.5574690000000 1.0
C      1  0.5035090000000  0.4192770000000  0.5345520000000 1.0
C      1  0.5622100000000  0.6122060000000  0.4415850000000 1.0
C      1  0.5549250000000  0.3710020000000  0.4814850000000 1.0
C      1  0.4967330000000  0.4507500000000  0.5460470000000 1.0
C      1  0.5627120000000  0.5211120000000  0.4692870000000 1.0
C      1  0.5458700000000  0.5991410000000  0.4573680000000 1.0
C      1  0.5633860000000  0.5244880000000  0.5222110000000 1.0
C      1  0.5292650000000  0.5858640000000  0.4734070000000 1.0
C      1  0.4351330000000  0.5520130000000  0.5513740000000 1.0
C      1  0.5752960000000  0.4527340000000  0.5018840000000 1.0
C      1  0.5022790000000  0.5710730000000  0.5420460000000 1.0
C      1  0.5276730000000  0.4915980000000  0.5329840000000 1.0
C      1  0.4221040000000  0.4608530000000  0.5403540000000 1.0
C      1  0.4791360000000  0.5386850000000  0.4290470000000 1.0
C      1  0.5934280000000  0.4941210000000  0.4296730000000 1.0
C      1  0.5070120000000  0.5788340000000  0.5166640000000 1.0
C      1  0.4801220000000  0.5112920000000  0.4153960000000 1.0
C      1  0.5880870000000  0.4386160000000  0.4807600000000 1.0
C      1  0.4339090000000  0.4946810000000  0.4859700000000 1.0
C      1  0.4204120000000  0.4354450000000  0.5465490000000 1.0
C      1  0.4853940000000  0.5498830000000  0.4499430000000 1.0
C      1  0.5494220000000  0.4100550000000  0.5113930000000 1.0
C      1  0.5277860000000  0.5040230000000  0.4415180000000 1.0
C      1  0.4351510000000  0.5974020000000  0.5333220000000 1.0
C      1  0.4477050000000  0.4731370000000  0.4724140000000 1.0
C      1  0.5866890000000  0.4995410000000  0.4854530000000 1.0
C      1  0.4469650000000  0.5415070000000  0.4650690000000 1.0
C      1  0.4971390000000  0.5004780000000  0.5722890000000 1.0
C      1  0.4061030000000  0.5067200000000  0.5459260000000 1.0
C      1  0.5481490000000  0.3468620000000  0.4738570000000 1.0
C      1  0.5242580000000  0.4624950000000  0.5398990000000 1.0
C      1  0.5465200000000  0.4476430000000  0.5402460000000 1.0
C      1  0.5292110000000  0.5342970000000  0.5573960000000 1.0
C      1  0.5727970000000  0.4805940000000  0.5052450000000 1.0
C      1  0.5341820000000  0.5158480000000  0.4650210000000 1.0
C      1  0.4422880000000  0.4963260000000  0.5133860000000 1.0
C      1  0.5846900000000  0.5019600000000  0.4525210000000 1.0
C      1  0.4419750000000  0.5711820000000  0.5306600000000 1.0
C      1  0.5818020000000  0.4121650000000  0.4759690000000 1.0
C      1  0.4313610000000  0.5190420000000  0.4719580000000 1.0
C      1  0.4676890000000  0.5083640000000  0.3882760000000 1.0
C      1  0.4873680000000  0.4966090000000  0.4864120000000 1.0
C      1  0.5045900000000  0.5483900000000  0.5580570000000 1.0
C      1  0.5519990000000  0.5410410000000  0.5420360000000 1.0
C      1  0.4825640000000  0.4716540000000  0.5622590000000 1.0
C      1  0.4468280000000  0.4476890000000  0.4846810000000 1.0
C      1  0.4560280000000  0.5614530000000  0.5084000000000 1.0
C      1  0.4582770000000  0.4351880000000  0.5056910000000 1.0
C      1  0.5621260000000  0.3966570000000  0.4895920000000 1.0
C      1  0.4443000000000  0.5541620000000  0.4411360000000 1.0
C      1  0.4658310000000  0.5503070000000  0.4848210000000 1.0
C      1  0.4745480000000  0.5010020000000  0.5475720000000 1.0
C      1  0.4145620000000  0.5334060000000  0.5473430000000 1.0
C      1  0.5120040000000  0.5720620000000  0.4900800000000 1.0
C      1  0.5243390000000  0.5064370000000  0.5597450000000 1.0
C      1  0.5245750000000  0.4046180000000  0.5241950000000 1.0
C      1  0.4769910000000  0.4330580000000  0.5251930000000 1.0
C      1  0.5559710000000  0.4964300000000  0.5223730000000 1.0
C      1  0.4571050000000  0.5058710000000  0.3651890000000 1.0
C      1  0.5074750000000  0.4953580000000  0.4250820000000 1.0
END
