TITL C-2778427-5640-1057 0.00272889450750432 125000 -823.144702346066 0 0 142 (C1) n - 1
REM
REM in /home/nfs/bkarasulu/CARBON/AIRSS/Generating-Clusters/REBO/Only-C1/SD-CG/HFTN-CG
REM
REM
REM
REM
REM
REM ./C.cell (11c1c37f851c82e70ff6c80c92926a4b)
REM
REM compiler GCC version 9.2.1 20190827 (Red Hat 9.2.1-1)
REM options -cpp -mtune=generic -march=x86-64 -g -O0 -fpre-include=/usr/include/finclude/math-vector-fortran.h
REM seed -848595948 -2027998618 502188449 -317685685 -1798742664 -1315517478 -1538085502 -2055498314 1488719936 1653694528 962841641 -1937482283 1334320179 -1075867718 -1067715905 -827828806 -284924951 1524364315 -2142898746 885556298 825573013 955477313 662791258 -1230223124 -744405891 802956368 556825843 -1530621254 -1631526326 1136807844 -8106203 -1204424360 -1169960473
REM
CELL 1.54180   50.00000   50.00000   50.00000   90.00000   90.00000   90.00000
LATT -1
SFAC C  
C      1  0.4250900000000  0.5401890000000  0.5288020000000 1.0
C      1  0.5104830000000  0.4252220000000  0.4895290000000 1.0
C      1  0.4441090000000  0.4697660000000  0.4547970000000 1.0
C      1  0.5598050000000  0.4245080000000  0.5386900000000 1.0
C      1  0.4721570000000  0.5390210000000  0.4907450000000 1.0
C      1  0.4628780000000  0.5800870000000  0.5348240000000 1.0
C      1  0.4229160000000  0.5033640000000  0.4508210000000 1.0
C      1  0.5339180000000  0.4894440000000  0.5425950000000 1.0
C      1  0.4925530000000  0.4613340000000  0.5412460000000 1.0
C      1  0.4963700000000  0.4507760000000  0.5821460000000 1.0
C      1  0.4258260000000  0.4477020000000  0.4731580000000 1.0
C      1  0.5142990000000  0.4794950000000  0.5900730000000 1.0
C      1  0.5494620000000  0.5245250000000  0.4751690000000 1.0
C      1  0.5960730000000  0.5160310000000  0.4614140000000 1.0
C      1  0.4138520000000  0.4781510000000  0.4681280000000 1.0
C      1  0.5204240000000  0.5266770000000  0.4569400000000 1.0
C      1  0.4908270000000  0.5250000000000  0.4407430000000 1.0
C      1  0.4453670000000  0.4276750000000  0.4589150000000 1.0
C      1  0.5248720000000  0.4296500000000  0.4324710000000 1.0
C      1  0.4590300000000  0.4072440000000  0.5124830000000 1.0
C      1  0.5088620000000  0.4910600000000  0.4898260000000 1.0
C      1  0.4578380000000  0.5953020000000  0.5817730000000 1.0
C      1  0.5034440000000  0.4893620000000  0.4091440000000 1.0
C      1  0.5262800000000  0.5662990000000  0.5186560000000 1.0
C      1  0.4722370000000  0.4411520000000  0.4460030000000 1.0
C      1  0.5790320000000  0.5195410000000  0.4886480000000 1.0
C      1  0.4693620000000  0.4548430000000  0.4947050000000 1.0
C      1  0.4628870000000  0.5210690000000  0.4217210000000 1.0
C      1  0.4063410000000  0.4889670000000  0.4950350000000 1.0
C      1  0.5038470000000  0.4806990000000  0.5178050000000 1.0
C      1  0.4552180000000  0.3988550000000  0.4640100000000 1.0
C      1  0.5650770000000  0.5103810000000  0.5604810000000 1.0
C      1  0.5292000000000  0.4463600000000  0.5739440000000 1.0
C      1  0.4826400000000  0.5924010000000  0.4489410000000 1.0
C      1  0.4540610000000  0.5590750000000  0.4302270000000 1.0
C      1  0.4776120000000  0.5595690000000  0.5175880000000 1.0
C      1  0.4882640000000  0.4341290000000  0.5124120000000 1.0
C      1  0.5196910000000  0.5332800000000  0.5524290000000 1.0
C      1  0.5704870000000  0.4778910000000  0.5676920000000 1.0
C      1  0.5531400000000  0.4489060000000  0.4358620000000 1.0
C      1  0.5136940000000  0.5630070000000  0.5784020000000 1.0
C      1  0.4504920000000  0.4748950000000  0.5611510000000 1.0
C      1  0.5883840000000  0.4697030000000  0.5441320000000 1.0
C      1  0.5475190000000  0.5263480000000  0.5361230000000 1.0
C      1  0.4782680000000  0.5098000000000  0.5070350000000 1.0
C      1  0.5345880000000  0.4335760000000  0.5459560000000 1.0
C      1  0.5438110000000  0.4943040000000  0.5810080000000 1.0
C      1  0.5419400000000  0.5570570000000  0.4715390000000 1.0
C      1  0.4717830000000  0.4911680000000  0.4120640000000 1.0
C      1  0.5021470000000  0.5453730000000  0.4753810000000 1.0
C      1  0.5249570000000  0.5458890000000  0.4981540000000 1.0
C      1  0.4659190000000  0.4499660000000  0.5339530000000 1.0
C      1  0.5676080000000  0.4801820000000  0.4344490000000 1.0
C      1  0.4469790000000  0.4629530000000  0.4241850000000 1.0
C      1  0.5495490000000  0.4512840000000  0.5108080000000 1.0
C      1  0.5901760000000  0.4818160000000  0.5120970000000 1.0
C      1  0.5723110000000  0.5583000000000  0.4832000000000 1.0
C      1  0.4099870000000  0.4733250000000  0.5238010000000 1.0
C      1  0.5097130000000  0.4674160000000  0.4672120000000 1.0
C      1  0.4799690000000  0.4592010000000  0.4207280000000 1.0
C      1  0.4570040000000  0.5794700000000  0.4554040000000 1.0
C      1  0.4756100000000  0.4765410000000  0.5813690000000 1.0
C      1  0.5454840000000  0.5931050000000  0.5102360000000 1.0
C      1  0.5607060000000  0.5365420000000  0.4346070000000 1.0
C      1  0.4682950000000  0.5787180000000  0.5623630000000 1.0
C      1  0.5795390000000  0.4453490000000  0.5243460000000 1.0
C      1  0.4426640000000  0.5224060000000  0.5659160000000 1.0
C      1  0.5273930000000  0.5130480000000  0.4955500000000 1.0
C      1  0.5697110000000  0.5581020000000  0.5448430000000 1.0
C      1  0.4316010000000  0.5046510000000  0.5117330000000 1.0
C      1  0.4375180000000  0.5873700000000  0.5251910000000 1.0
C      1  0.4403140000000  0.4962290000000  0.4251420000000 1.0
C      1  0.5349030000000  0.4751480000000  0.4282230000000 1.0
C      1  0.5860330000000  0.5309820000000  0.5450000000000 1.0
C      1  0.4976150000000  0.4944420000000  0.4517700000000 1.0
C      1  0.4708690000000  0.5285470000000  0.5799070000000 1.0
C      1  0.4678660000000  0.5413440000000  0.4555120000000 1.0
C      1  0.4325880000000  0.4516760000000  0.5340100000000 1.0
C      1  0.5098810000000  0.3987280000000  0.4745670000000 1.0
C      1  0.6002710000000  0.5004630000000  0.5385370000000 1.0
C      1  0.4035490000000  0.5221830000000  0.5341100000000 1.0
C      1  0.5567020000000  0.4840820000000  0.4727110000000 1.0
C      1  0.4562670000000  0.5289070000000  0.5363220000000 1.0
C      1  0.4520450000000  0.4947670000000  0.5332150000000 1.0
C      1  0.5193930000000  0.5670340000000  0.4291700000000 1.0
C      1  0.5321990000000  0.4965000000000  0.4526500000000 1.0
C      1  0.4281910000000  0.4970410000000  0.5649880000000 1.0
C      1  0.4339940000000  0.5352650000000  0.4330260000000 1.0
C      1  0.4771510000000  0.4095360000000  0.4432940000000 1.0
C      1  0.5796550000000  0.5412870000000  0.4551850000000 1.0
C      1  0.4923150000000  0.3800800000000  0.4872990000000 1.0
C      1  0.5054860000000  0.4055090000000  0.4466470000000 1.0
C      1  0.4899590000000  0.4456890000000  0.4722350000000 1.0
C      1  0.5567150000000  0.4566490000000  0.5846000000000 1.0
C      1  0.4651800000000  0.3893290000000  0.4899450000000 1.0
C      1  0.5255370000000  0.5872310000000  0.5612540000000 1.0
C      1  0.5233590000000  0.5099990000000  0.4126160000000 1.0
C      1  0.4882790000000  0.5397460000000  0.5408320000000 1.0
C      1  0.5418320000000  0.4193430000000  0.4600500000000 1.0
C      1  0.5273240000000  0.5759270000000  0.4552040000000 1.0
C      1  0.4404560000000  0.5297560000000  0.4923670000000 1.0
C      1  0.5211920000000  0.4522520000000  0.5246960000000 1.0
C      1  0.5439750000000  0.5006830000000  0.5176320000000 1.0
C      1  0.4705480000000  0.4904610000000  0.6093250000000 1.0
C      1  0.4779240000000  0.4280120000000  0.5648480000000 1.0
C      1  0.4764350000000  0.4839060000000  0.4889130000000 1.0
C      1  0.4151950000000  0.5351870000000  0.4614500000000 1.0
C      1  0.4480760000000  0.4419720000000  0.5618900000000 1.0
C      1  0.4859350000000  0.5546510000000  0.5702940000000 1.0
C      1  0.4506100000000  0.5175810000000  0.4647820000000 1.0
C      1  0.5398470000000  0.4361170000000  0.4863130000000 1.0
C      1  0.5543820000000  0.5090100000000  0.4220180000000 1.0
C      1  0.5110660000000  0.4569640000000  0.4174750000000 1.0
C      1  0.5975880000000  0.5223680000000  0.5141330000000 1.0
C      1  0.4085750000000  0.5220110000000  0.4921530000000 1.0
C      1  0.5602880000000  0.4806040000000  0.5031640000000 1.0
C      1  0.5986140000000  0.4449360000000  0.4992670000000 1.0
C      1  0.4185680000000  0.4462040000000  0.5045170000000 1.0
C      1  0.4315410000000  0.5650530000000  0.4626330000000 1.0
C      1  0.5422340000000  0.5578160000000  0.5601650000000 1.0
C      1  0.4480690000000  0.4326780000000  0.5027460000000 1.0
C      1  0.4946900000000  0.5717740000000  0.4948130000000 1.0
C      1  0.5996170000000  0.4699090000000  0.4830110000000 1.0
C      1  0.5171530000000  0.4740400000000  0.5577140000000 1.0
C      1  0.5864510000000  0.4861300000000  0.4594550000000 1.0
C      1  0.5686840000000  0.5721240000000  0.5141110000000 1.0
C      1  0.5131240000000  0.5995210000000  0.5017350000000 1.0
C      1  0.5316960000000  0.5416230000000  0.4216310000000 1.0
C      1  0.5156990000000  0.5922500000000  0.5351320000000 1.0
C      1  0.4701000000000  0.5159410000000  0.6088710000000 1.0
C      1  0.5163690000000  0.5103870000000  0.5742570000000 1.0
C      1  0.4799430000000  0.4130310000000  0.5378690000000 1.0
C      1  0.4870570000000  0.5029950000000  0.5672310000000 1.0
C      1  0.5621990000000  0.5393590000000  0.5106940000000 1.0
C      1  0.4736340000000  0.5679140000000  0.4083520000000 1.0
C      1  0.4199370000000  0.5667520000000  0.5210440000000 1.0
C      1  0.4651740000000  0.4906570000000  0.4617780000000 1.0
C      1  0.5048530000000  0.5914720000000  0.4701500000000 1.0
C      1  0.4944030000000  0.5811020000000  0.4233470000000 1.0
C      1  0.4840440000000  0.5001780000000  0.5374410000000 1.0
C      1  0.4082460000000  0.4961610000000  0.5446670000000 1.0
C      1  0.5391840000000  0.4589280000000  0.4643630000000 1.0
END
