TITL C-2778424-3986-545 -0.00350838149058984 125000 -746.578858009878 0 0 124 (C1) n - 1
REM
REM in /home/nfs/bkarasulu/CARBON/AIRSS/Generating-Clusters/REBO/Only-C1/SD-CG/HFTN-CG
REM
REM
REM
REM
REM
REM ./C.cell (11c1c37f851c82e70ff6c80c92926a4b)
REM
REM compiler GCC version 9.2.1 20190827 (Red Hat 9.2.1-1)
REM options -cpp -mtune=generic -march=x86-64 -g -O0 -fpre-include=/usr/include/finclude/math-vector-fortran.h
REM seed -662867180 -850179294 -740980586 -571650518 816955667 -692816157 -1045699118 -2140666964 -569365653 -841902644 1756945203 -2087793241 1842695508 -917368899 90909465 -236547518 -702009957 963403247 346838755 -638130233 -59781546 716531036 1719836182 -2761045 161741944 1614941624 411361854 -1506322934 1113350396 1499681469 1726357419 617892686 -1163265773
REM
CELL 1.54180   50.00000   50.00000   50.00000   90.00000   90.00000   90.00000
LATT -1
SFAC C  
C      1  0.5006700000000  0.4818050000000  0.5836260000000 1.0
C      1  0.5449840000000  0.5903990000000  0.5362790000000 1.0
C      1  0.4676230000000  0.5365350000000  0.4925250000000 1.0
C      1  0.4752450000000  0.5862340000000  0.5242480000000 1.0
C      1  0.4965090000000  0.5999330000000  0.5010060000000 1.0
C      1  0.4466900000000  0.5561240000000  0.4555660000000 1.0
C      1  0.5601610000000  0.3972350000000  0.4568980000000 1.0
C      1  0.5805430000000  0.4809610000000  0.5408610000000 1.0
C      1  0.4973210000000  0.5955110000000  0.4510280000000 1.0
C      1  0.4514350000000  0.4878180000000  0.5840510000000 1.0
C      1  0.4457400000000  0.4556820000000  0.4349790000000 1.0
C      1  0.5651830000000  0.5783890000000  0.5207900000000 1.0
C      1  0.4443150000000  0.5176550000000  0.5762190000000 1.0
C      1  0.5240280000000  0.5625820000000  0.5081900000000 1.0
C      1  0.5148270000000  0.5954120000000  0.4761850000000 1.0
C      1  0.5176440000000  0.4138210000000  0.5314900000000 1.0
C      1  0.4787530000000  0.5797960000000  0.4701690000000 1.0
C      1  0.4103270000000  0.5349380000000  0.4886610000000 1.0
C      1  0.4661960000000  0.4758470000000  0.4906900000000 1.0
C      1  0.5609230000000  0.4902710000000  0.4804830000000 1.0
C      1  0.4484870000000  0.4302950000000  0.5015790000000 1.0
C      1  0.4988390000000  0.4162520000000  0.4345170000000 1.0
C      1  0.5474900000000  0.5871260000000  0.5645560000000 1.0
C      1  0.5468800000000  0.4247850000000  0.4597610000000 1.0
C      1  0.4833410000000  0.4154630000000  0.4648200000000 1.0
C      1  0.5078990000000  0.5592970000000  0.5668330000000 1.0
C      1  0.6011900000000  0.4663550000000  0.5021800000000 1.0
C      1  0.5013190000000  0.5404180000000  0.4543960000000 1.0
C      1  0.5112390000000  0.4591940000000  0.4108170000000 1.0
C      1  0.4846710000000  0.4589200000000  0.5277870000000 1.0
C      1  0.4742440000000  0.4833380000000  0.5418490000000 1.0
C      1  0.4656890000000  0.4318200000000  0.5298410000000 1.0
C      1  0.4126530000000  0.4505230000000  0.4725790000000 1.0
C      1  0.5174840000000  0.4537430000000  0.5322680000000 1.0
C      1  0.5877050000000  0.5115820000000  0.5410280000000 1.0
C      1  0.3920020000000  0.5359900000000  0.5493260000000 1.0
C      1  0.4833060000000  0.4028760000000  0.5268720000000 1.0
C      1  0.4419410000000  0.5288170000000  0.4843540000000 1.0
C      1  0.4457220000000  0.5053720000000  0.4412850000000 1.0
C      1  0.4680580000000  0.4926530000000  0.4608760000000 1.0
C      1  0.5919840000000  0.5190970000000  0.4874580000000 1.0
C      1  0.4827210000000  0.5528140000000  0.4738030000000 1.0
C      1  0.5591820000000  0.4402150000000  0.4862560000000 1.0
C      1  0.5042370000000  0.5089910000000  0.4157070000000 1.0
C      1  0.4409950000000  0.5722960000000  0.4798580000000 1.0
C      1  0.4749250000000  0.4792080000000  0.5708020000000 1.0
C      1  0.4396610000000  0.4854240000000  0.4190910000000 1.0
C      1  0.5749700000000  0.4764460000000  0.4552420000000 1.0
C      1  0.5053040000000  0.4485130000000  0.4739990000000 1.0
C      1  0.5967700000000  0.5289510000000  0.5196030000000 1.0
C      1  0.5417230000000  0.5184270000000  0.5117460000000 1.0
C      1  0.4600130000000  0.4199620000000  0.5774210000000 1.0
C      1  0.4591450000000  0.5616720000000  0.5346730000000 1.0
C      1  0.5696910000000  0.5256020000000  0.5605210000000 1.0
C      1  0.5780250000000  0.4498010000000  0.4615120000000 1.0
C      1  0.5105950000000  0.5080720000000  0.5845010000000 1.0
C      1  0.4292450000000  0.5276340000000  0.4543570000000 1.0
C      1  0.5479700000000  0.5362670000000  0.4329230000000 1.0
C      1  0.4171410000000  0.5355590000000  0.5391180000000 1.0
C      1  0.4940480000000  0.5727290000000  0.4320630000000 1.0
C      1  0.5751340000000  0.5221990000000  0.4387110000000 1.0
C      1  0.5844430000000  0.4588230000000  0.5241920000000 1.0
C      1  0.4228480000000  0.5608360000000  0.4986500000000 1.0
C      1  0.5726200000000  0.4938770000000  0.4328940000000 1.0
C      1  0.5508380000000  0.4422700000000  0.4333170000000 1.0
C      1  0.5539960000000  0.4950210000000  0.5546490000000 1.0
C      1  0.4634900000000  0.5936290000000  0.4938810000000 1.0
C      1  0.4082050000000  0.4783660000000  0.4877220000000 1.0
C      1  0.4327260000000  0.4304530000000  0.4756060000000 1.0
C      1  0.5201530000000  0.4614920000000  0.5801810000000 1.0
C      1  0.4148060000000  0.4789940000000  0.5490630000000 1.0
C      1  0.5465670000000  0.4919750000000  0.5228570000000 1.0
C      1  0.5007220000000  0.4340000000000  0.5108740000000 1.0
C      1  0.5151100000000  0.5883320000000  0.5256950000000 1.0
C      1  0.5379880000000  0.5555750000000  0.4592280000000 1.0
C      1  0.5399010000000  0.5114320000000  0.4724160000000 1.0
C      1  0.5005940000000  0.4329310000000  0.4134970000000 1.0
C      1  0.4565910000000  0.4343710000000  0.4553440000000 1.0
C      1  0.5169990000000  0.4653330000000  0.4925650000000 1.0
C      1  0.4618870000000  0.5090520000000  0.5332290000000 1.0
C      1  0.5777120000000  0.5548490000000  0.5132370000000 1.0
C      1  0.4781290000000  0.4546260000000  0.4694680000000 1.0
C      1  0.5491080000000  0.4888940000000  0.4171920000000 1.0
C      1  0.4336190000000  0.5122860000000  0.5381550000000 1.0
C      1  0.5935750000000  0.4881250000000  0.4881900000000 1.0
C      1  0.4950330000000  0.4819900000000  0.4154780000000 1.0
C      1  0.4960820000000  0.5817920000000  0.5502810000000 1.0
C      1  0.5298740000000  0.4539440000000  0.5557740000000 1.0
C      1  0.4359830000000  0.4561630000000  0.5409710000000 1.0
C      1  0.4926410000000  0.5310490000000  0.5750010000000 1.0
C      1  0.4710720000000  0.5347070000000  0.5212590000000 1.0
C      1  0.4690430000000  0.5556880000000  0.4364170000000 1.0
C      1  0.4484210000000  0.4620630000000  0.5103580000000 1.0
C      1  0.5466520000000  0.4228880000000  0.5311900000000 1.0
C      1  0.4708940000000  0.4767400000000  0.4309290000000 1.0
C      1  0.4217600000000  0.4937640000000  0.5722810000000 1.0
C      1  0.4633620000000  0.5374800000000  0.5782070000000 1.0
C      1  0.5086980000000  0.5344860000000  0.5450450000000 1.0
C      1  0.4294000000000  0.5583980000000  0.5261280000000 1.0
C      1  0.4132360000000  0.4989260000000  0.4632920000000 1.0
C      1  0.4986640000000  0.4000350000000  0.5553000000000 1.0
C      1  0.5224050000000  0.5371890000000  0.5210400000000 1.0
C      1  0.4978710000000  0.4844210000000  0.5001080000000 1.0
C      1  0.5647360000000  0.4383760000000  0.5176080000000 1.0
C      1  0.4930490000000  0.5021180000000  0.4774500000000 1.0
C      1  0.4199460000000  0.4709230000000  0.4505160000000 1.0
C      1  0.5509180000000  0.5399600000000  0.5795350000000 1.0
C      1  0.5140760000000  0.5175750000000  0.4679670000000 1.0
C      1  0.5167480000000  0.4230380000000  0.4612120000000 1.0
C      1  0.5461280000000  0.4687240000000  0.4995020000000 1.0
C      1  0.4496850000000  0.4341300000000  0.5567750000000 1.0
C      1  0.5361260000000  0.5639940000000  0.5765840000000 1.0
C      1  0.5202660000000  0.5555640000000  0.4306260000000 1.0
C      1  0.5324520000000  0.5122340000000  0.4172690000000 1.0
C      1  0.4576730000000  0.5611400000000  0.5657250000000 1.0
C      1  0.5928640000000  0.5294330000000  0.4582000000000 1.0
C      1  0.5375570000000  0.5116140000000  0.5785170000000 1.0
C      1  0.4834060000000  0.4051330000000  0.5772020000000 1.0
C      1  0.5633880000000  0.5306430000000  0.4984750000000 1.0
C      1  0.4881500000000  0.5305920000000  0.4257030000000 1.0
C      1  0.4192700000000  0.4769180000000  0.5154150000000 1.0
C      1  0.5296700000000  0.5705930000000  0.4810780000000 1.0
C      1  0.5389750000000  0.4623010000000  0.4170290000000 1.0
C      1  0.4784460000000  0.4160800000000  0.4956170000000 1.0
END
