TITL C-2778434-4341-1340 0.00572765084249531 125000 -466.266626354916 0 0 81 (C1) n - 1
REM
REM in /home/nfs/bkarasulu/CARBON/AIRSS/Generating-Clusters/REBO/Only-C1/SD-CG/HFTN-CG
REM
REM
REM
REM
REM
REM ./C.cell (11c1c37f851c82e70ff6c80c92926a4b)
REM
REM compiler GCC version 9.2.1 20190827 (Red Hat 9.2.1-1)
REM options -cpp -mtune=generic -march=x86-64 -g -O0 -fpre-include=/usr/include/finclude/math-vector-fortran.h
REM seed 200878505 559055504 544613704 -1851378662 -1455466743 2111773897 -1538353303 -112998911 1838869493 -468723888 1023543222 800994609 -1836253427 -1324046421 1611530071 335295281 602993436 -1003926849 550909907 -285222346 209820750 -2040112013 -1350636709 1658783357 -175596171 1056172784 1251391118 481667133 904532215 860500999 1601919675 -1193818678 1014754888
REM
CELL 1.54180   50.00000   50.00000   50.00000   90.00000   90.00000   90.00000
LATT -1
SFAC C  
C      1  0.5586030000000  0.4688440000000  0.5237220000000 1.0
C      1  0.5240340000000  0.4362900000000  0.5476000000000 1.0
C      1  0.4835540000000  0.5525230000000  0.4524700000000 1.0
C      1  0.4486070000000  0.5034540000000  0.4389600000000 1.0
C      1  0.5708320000000  0.5179740000000  0.4659810000000 1.0
C      1  0.5150200000000  0.5335230000000  0.4938780000000 1.0
C      1  0.4523830000000  0.4995100000000  0.5605690000000 1.0
C      1  0.4891930000000  0.5305600000000  0.4195780000000 1.0
C      1  0.5125420000000  0.4999850000000  0.5816540000000 1.0
C      1  0.4488920000000  0.4488860000000  0.4652030000000 1.0
C      1  0.4807200000000  0.4297450000000  0.5461160000000 1.0
C      1  0.4245430000000  0.5378690000000  0.4681970000000 1.0
C      1  0.5141320000000  0.4310350000000  0.4476900000000 1.0
C      1  0.5007920000000  0.4753040000000  0.5866170000000 1.0
C      1  0.5345170000000  0.5339940000000  0.4381870000000 1.0
C      1  0.5267090000000  0.5415120000000  0.5575850000000 1.0
C      1  0.5267070000000  0.4268550000000  0.4935650000000 1.0
C      1  0.5722970000000  0.5078180000000  0.4926750000000 1.0
C      1  0.4926300000000  0.5289600000000  0.4756200000000 1.0
C      1  0.4666880000000  0.4704160000000  0.4454100000000 1.0
C      1  0.4514130000000  0.4376840000000  0.5032250000000 1.0
C      1  0.5433060000000  0.5706550000000  0.5217860000000 1.0
C      1  0.4879460000000  0.4463770000000  0.4571740000000 1.0
C      1  0.4994740000000  0.4183210000000  0.4955600000000 1.0
C      1  0.5358170000000  0.4696800000000  0.4791980000000 1.0
C      1  0.5102290000000  0.5827870000000  0.4886780000000 1.0
C      1  0.4659240000000  0.4438250000000  0.5611650000000 1.0
C      1  0.4933650000000  0.4959160000000  0.4979350000000 1.0
C      1  0.5214600000000  0.4851530000000  0.4248510000000 1.0
C      1  0.4480750000000  0.5499250000000  0.5253520000000 1.0
C      1  0.5344730000000  0.5122320000000  0.5021430000000 1.0
C      1  0.4345960000000  0.5023930000000  0.5364160000000 1.0
C      1  0.4790240000000  0.5068250000000  0.4354820000000 1.0
C      1  0.4458920000000  0.5082150000000  0.5122820000000 1.0
C      1  0.5548680000000  0.5412770000000  0.4580520000000 1.0
C      1  0.4968980000000  0.5084490000000  0.5357360000000 1.0
C      1  0.5621000000000  0.4975490000000  0.5416050000000 1.0
C      1  0.4611320000000  0.5352110000000  0.4793830000000 1.0
C      1  0.5563040000000  0.4528250000000  0.4611980000000 1.0
C      1  0.4989020000000  0.5261180000000  0.5715270000000 1.0
C      1  0.4930430000000  0.5703940000000  0.5325450000000 1.0
C      1  0.5038940000000  0.4550370000000  0.5666840000000 1.0
C      1  0.4763070000000  0.5542280000000  0.5106040000000 1.0
C      1  0.4717420000000  0.4270980000000  0.4779440000000 1.0
C      1  0.5339990000000  0.4460760000000  0.5165340000000 1.0
C      1  0.4665450000000  0.5231810000000  0.5659500000000 1.0
C      1  0.4954080000000  0.4799960000000  0.4296620000000 1.0
C      1  0.5725580000000  0.4700260000000  0.4462420000000 1.0
C      1  0.5357120000000  0.4317010000000  0.4666950000000 1.0
C      1  0.4300970000000  0.5082220000000  0.4630090000000 1.0
C      1  0.4935330000000  0.5001090000000  0.4641140000000 1.0
C      1  0.4768680000000  0.4831670000000  0.5336390000000 1.0
C      1  0.5380420000000  0.4961390000000  0.5656570000000 1.0
C      1  0.5094810000000  0.5461570000000  0.4329970000000 1.0
C      1  0.5155060000000  0.5812710000000  0.5182000000000 1.0
C      1  0.4798250000000  0.4656430000000  0.5060800000000 1.0
C      1  0.5619440000000  0.4803450000000  0.4952300000000 1.0
C      1  0.4298340000000  0.4610070000000  0.4910660000000 1.0
C      1  0.4528930000000  0.5451410000000  0.5529980000000 1.0
C      1  0.4348320000000  0.4579990000000  0.5246420000000 1.0
C      1  0.5656630000000  0.4976440000000  0.4448440000000 1.0
C      1  0.4534690000000  0.5365890000000  0.4475730000000 1.0
C      1  0.5463950000000  0.5464750000000  0.5370510000000 1.0
C      1  0.4815920000000  0.4348000000000  0.5156800000000 1.0
C      1  0.4864870000000  0.5675880000000  0.4827370000000 1.0
C      1  0.4651170000000  0.4748320000000  0.4793000000000 1.0
C      1  0.4374290000000  0.5444940000000  0.4979870000000 1.0
C      1  0.4523400000000  0.4685790000000  0.5481680000000 1.0
C      1  0.5286220000000  0.5027800000000  0.5334980000000 1.0
C      1  0.5376000000000  0.4674730000000  0.5497430000000 1.0
C      1  0.5062470000000  0.4695620000000  0.5362160000000 1.0
C      1  0.5063550000000  0.4716270000000  0.4671940000000 1.0
C      1  0.5368120000000  0.5833490000000  0.4765440000000 1.0
C      1  0.5098660000000  0.5360870000000  0.5221870000000 1.0
C      1  0.4746980000000  0.5201200000000  0.5130100000000 1.0
C      1  0.5608450000000  0.5227290000000  0.5210960000000 1.0
C      1  0.4990250000000  0.5563080000000  0.5558070000000 1.0
C      1  0.5184570000000  0.4750790000000  0.5065990000000 1.0
C      1  0.5563350000000  0.5762650000000  0.4959760000000 1.0
C      1  0.4393560000000  0.4927770000000  0.4871460000000 1.0
C      1  0.5406280000000  0.5054280000000  0.4311270000000 1.0
END
