TITL C-2778425-5191-748 -0.00458726749233154 125000 -927.309152415938 0 0 162 (C1) n - 1
REM
REM in /home/nfs/bkarasulu/CARBON/AIRSS/Generating-Clusters/REBO/Only-C1/SD-CG/HFTN-CG
REM
REM
REM
REM
REM
REM ./C.cell (11c1c37f851c82e70ff6c80c92926a4b)
REM
REM compiler GCC version 9.2.1 20190827 (Red Hat 9.2.1-1)
REM options -cpp -mtune=generic -march=x86-64 -g -O0 -fpre-include=/usr/include/finclude/math-vector-fortran.h
REM seed 677088542 543202333 -264718670 1352164754 678807793 1991637044 -1353738251 335365846 -1102198545 -1301193911 -1239439913 -1257160007 1296765507 -19346240 1737059761 2117212176 923541176 -1867824751 -1446888348 -757770934 1206429067 -2056592932 -320923778 -1716479979 -464731994 -535958704 -899968431 2101335251 103689545 -2089410817 -200082558 14319588 -2083038388
REM
CELL 1.54180   50.00000   50.00000   50.00000   90.00000   90.00000   90.00000
LATT -1
SFAC C  
C      1  0.4606490000000  0.4259500000000  0.4441410000000 1.0
C      1  0.5147210000000  0.4354370000000  0.4281460000000 1.0
C      1  0.5232280000000  0.4124570000000  0.5492670000000 1.0
C      1  0.5677900000000  0.5004960000000  0.5221460000000 1.0
C      1  0.4531390000000  0.5417630000000  0.5397900000000 1.0
C      1  0.5485990000000  0.5538480000000  0.5740480000000 1.0
C      1  0.4430550000000  0.4908820000000  0.5876840000000 1.0
C      1  0.5015540000000  0.5067540000000  0.5774290000000 1.0
C      1  0.4928870000000  0.4046480000000  0.5401710000000 1.0
C      1  0.5707570000000  0.4584990000000  0.5334390000000 1.0
C      1  0.5320120000000  0.5571940000000  0.5965290000000 1.0
C      1  0.5182390000000  0.4713830000000  0.5411810000000 1.0
C      1  0.5177010000000  0.3882520000000  0.4690060000000 1.0
C      1  0.4797600000000  0.4784590000000  0.5597710000000 1.0
C      1  0.5933710000000  0.4541330000000  0.4725210000000 1.0
C      1  0.5151980000000  0.5594420000000  0.4626230000000 1.0
C      1  0.5295320000000  0.4933220000000  0.4664370000000 1.0
C      1  0.4219080000000  0.5139480000000  0.4702990000000 1.0
C      1  0.4228030000000  0.4510600000000  0.5630460000000 1.0
C      1  0.5816280000000  0.5501510000000  0.5320400000000 1.0
C      1  0.5471860000000  0.4784570000000  0.5064270000000 1.0
C      1  0.4626930000000  0.5292100000000  0.5805850000000 1.0
C      1  0.4851600000000  0.4398850000000  0.4802630000000 1.0
C      1  0.5173390000000  0.5991750000000  0.4591220000000 1.0
C      1  0.5371300000000  0.5184040000000  0.5889700000000 1.0
C      1  0.4877230000000  0.4177100000000  0.5145510000000 1.0
C      1  0.5285700000000  0.4314190000000  0.5030040000000 1.0
C      1  0.4696020000000  0.4534760000000  0.4168100000000 1.0
C      1  0.4681480000000  0.5712650000000  0.4575760000000 1.0
C      1  0.4708980000000  0.4970180000000  0.4423860000000 1.0
C      1  0.4484230000000  0.4213390000000  0.5089810000000 1.0
C      1  0.4722850000000  0.4663410000000  0.4456980000000 1.0
C      1  0.4505040000000  0.5813130000000  0.5434930000000 1.0
C      1  0.4419030000000  0.5387980000000  0.4675910000000 1.0
C      1  0.4465580000000  0.5627700000000  0.4326100000000 1.0
C      1  0.4226320000000  0.4653170000000  0.4452650000000 1.0
C      1  0.4483730000000  0.5096710000000  0.4244770000000 1.0
C      1  0.5456640000000  0.4430420000000  0.4291430000000 1.0
C      1  0.4256730000000  0.5450360000000  0.5515320000000 1.0
C      1  0.5723310000000  0.4249530000000  0.5331070000000 1.0
C      1  0.5952290000000  0.5008380000000  0.5421000000000 1.0
C      1  0.5434590000000  0.4090880000000  0.5240280000000 1.0
C      1  0.4815690000000  0.4426120000000  0.5895640000000 1.0
C      1  0.3880800000000  0.5297570000000  0.5098110000000 1.0
C      1  0.5545120000000  0.4190390000000  0.4718180000000 1.0
C      1  0.5729300000000  0.5694870000000  0.5098410000000 1.0
C      1  0.4565520000000  0.5602030000000  0.5153250000000 1.0
C      1  0.4702980000000  0.4045550000000  0.4904490000000 1.0
C      1  0.5490700000000  0.4666710000000  0.4685020000000 1.0
C      1  0.4852710000000  0.5008600000000  0.5072290000000 1.0
C      1  0.5535100000000  0.4734000000000  0.5805210000000 1.0
C      1  0.4231020000000  0.4535200000000  0.5344410000000 1.0
C      1  0.5934210000000  0.5304390000000  0.4847410000000 1.0
C      1  0.5889290000000  0.5314480000000  0.5535570000000 1.0
C      1  0.4680270000000  0.6051370000000  0.5029770000000 1.0
C      1  0.5175020000000  0.4642050000000  0.5018850000000 1.0
C      1  0.4972640000000  0.4678520000000  0.5838000000000 1.0
C      1  0.4697320000000  0.5102320000000  0.4699560000000 1.0
C      1  0.4369250000000  0.4625660000000  0.5857430000000 1.0
C      1  0.4278170000000  0.5109860000000  0.5734300000000 1.0
C      1  0.4000360000000  0.4890620000000  0.4790020000000 1.0
C      1  0.5476050000000  0.5258510000000  0.4184680000000 1.0
C      1  0.5460490000000  0.4900840000000  0.4367180000000 1.0
C      1  0.4013070000000  0.5461880000000  0.5343660000000 1.0
C      1  0.4307350000000  0.5339980000000  0.4369190000000 1.0
C      1  0.4629130000000  0.5064630000000  0.5553580000000 1.0
C      1  0.5561570000000  0.4450460000000  0.5806530000000 1.0
C      1  0.5529810000000  0.4620410000000  0.4092590000000 1.0
C      1  0.5909010000000  0.4622480000000  0.5061550000000 1.0
C      1  0.5502550000000  0.4296840000000  0.5575960000000 1.0
C      1  0.5028040000000  0.4603260000000  0.4599560000000 1.0
C      1  0.5450180000000  0.5736500000000  0.4717930000000 1.0
C      1  0.4281330000000  0.5256690000000  0.5136430000000 1.0
C      1  0.5072150000000  0.5562090000000  0.4316280000000 1.0
C      1  0.5421870000000  0.3918280000000  0.4653900000000 1.0
C      1  0.3972320000000  0.5012390000000  0.5069350000000 1.0
C      1  0.5243110000000  0.4930940000000  0.4035060000000 1.0
C      1  0.4350970000000  0.5850380000000  0.5131970000000 1.0
C      1  0.5403730000000  0.5876230000000  0.4411340000000 1.0
C      1  0.4973030000000  0.4498560000000  0.4074980000000 1.0
C      1  0.4505040000000  0.5880500000000  0.4818080000000 1.0
C      1  0.5025050000000  0.5770370000000  0.5059840000000 1.0
C      1  0.4119540000000  0.4627510000000  0.4775120000000 1.0
C      1  0.5321220000000  0.5560600000000  0.5481600000000 1.0
C      1  0.5289150000000  0.5293460000000  0.5326630000000 1.0
C      1  0.6051390000000  0.4885010000000  0.5143250000000 1.0
C      1  0.5077870000000  0.5366590000000  0.5924170000000 1.0
C      1  0.4831140000000  0.5270910000000  0.5407910000000 1.0
C      1  0.4963080000000  0.4465000000000  0.5190830000000 1.0
C      1  0.4533700000000  0.5664930000000  0.5708190000000 1.0
C      1  0.6007230000000  0.4831200000000  0.4673340000000 1.0
C      1  0.4945010000000  0.4807940000000  0.4019500000000 1.0
C      1  0.5618820000000  0.4514370000000  0.4952790000000 1.0
C      1  0.4614730000000  0.4513610000000  0.5009280000000 1.0
C      1  0.5049150000000  0.4413240000000  0.5499710000000 1.0
C      1  0.5181720000000  0.4747550000000  0.4331170000000 1.0
C      1  0.4728710000000  0.5995610000000  0.5294060000000 1.0
C      1  0.5711840000000  0.4699420000000  0.4438700000000 1.0
C      1  0.5716850000000  0.5561890000000  0.4804130000000 1.0
C      1  0.5028030000000  0.4857340000000  0.4829800000000 1.0
C      1  0.5408190000000  0.5567120000000  0.4315220000000 1.0
C      1  0.5156500000000  0.5271210000000  0.4224690000000 1.0
C      1  0.5672210000000  0.5285860000000  0.5768100000000 1.0
C      1  0.4914150000000  0.5643340000000  0.4811460000000 1.0
C      1  0.4979650000000  0.5539640000000  0.5275470000000 1.0
C      1  0.4304110000000  0.4943570000000  0.5040550000000 1.0
C      1  0.4780790000000  0.5380360000000  0.4516620000000 1.0
C      1  0.5744880000000  0.4974990000000  0.5687370000000 1.0
C      1  0.4986100000000  0.4994380000000  0.4325320000000 1.0
C      1  0.4422550000000  0.4441500000000  0.4277000000000 1.0
C      1  0.5525050000000  0.5893970000000  0.5129920000000 1.0
C      1  0.5499890000000  0.4833960000000  0.5459340000000 1.0
C      1  0.5859450000000  0.4920870000000  0.4312990000000 1.0
C      1  0.5264780000000  0.5933640000000  0.4914370000000 1.0
C      1  0.5562350000000  0.5395280000000  0.4548580000000 1.0
C      1  0.4981200000000  0.5955760000000  0.5410460000000 1.0
C      1  0.5751170000000  0.5295810000000  0.5100030000000 1.0
C      1  0.4597370000000  0.5213250000000  0.5064960000000 1.0
C      1  0.4483320000000  0.4882360000000  0.4802370000000 1.0
C      1  0.5708670000000  0.4378200000000  0.4521690000000 1.0
C      1  0.4202630000000  0.4955570000000  0.4346390000000 1.0
C      1  0.4957700000000  0.4086320000000  0.4713210000000 1.0
C      1  0.4974260000000  0.4960410000000  0.5386090000000 1.0
C      1  0.4915240000000  0.5948860000000  0.4500290000000 1.0
C      1  0.5739030000000  0.5186150000000  0.4372700000000 1.0
C      1  0.4686660000000  0.4748380000000  0.5186750000000 1.0
C      1  0.5561560000000  0.4958010000000  0.4049020000000 1.0
C      1  0.5392480000000  0.4479490000000  0.5309490000000 1.0
C      1  0.4490590000000  0.4581510000000  0.4643800000000 1.0
C      1  0.5053640000000  0.5281860000000  0.5079660000000 1.0
C      1  0.4722620000000  0.4993260000000  0.5930480000000 1.0
C      1  0.5266680000000  0.5818220000000  0.5296670000000 1.0
C      1  0.6106320000000  0.5026020000000  0.4896670000000 1.0
C      1  0.4805310000000  0.4234750000000  0.5651860000000 1.0
C      1  0.4554500000000  0.4463170000000  0.6002860000000 1.0
C      1  0.4976700000000  0.5143530000000  0.3965460000000 1.0
C      1  0.4759220000000  0.5287790000000  0.4186030000000 1.0
C      1  0.4987810000000  0.5255370000000  0.4758090000000 1.0
C      1  0.4841130000000  0.5538240000000  0.5780710000000 1.0
C      1  0.4328580000000  0.5071100000000  0.5417830000000 1.0
C      1  0.5662480000000  0.4191840000000  0.5007300000000 1.0
C      1  0.4321030000000  0.5427240000000  0.5829180000000 1.0
C      1  0.5533860000000  0.5026860000000  0.4850690000000 1.0
C      1  0.4271840000000  0.4534070000000  0.5006200000000 1.0
C      1  0.4175260000000  0.5564160000000  0.5077290000000 1.0
C      1  0.4299570000000  0.5639760000000  0.4802000000000 1.0
C      1  0.5018410000000  0.5670460000000  0.5571130000000 1.0
C      1  0.5315660000000  0.5347110000000  0.4761800000000 1.0
C      1  0.5293980000000  0.4416890000000  0.4710800000000 1.0
C      1  0.5258120000000  0.4857370000000  0.5889440000000 1.0
C      1  0.5447000000000  0.5277810000000  0.5043360000000 1.0
C      1  0.4003100000000  0.5209760000000  0.4455500000000 1.0
C      1  0.4581200000000  0.4273820000000  0.5395470000000 1.0
C      1  0.4484980000000  0.4253080000000  0.4743820000000 1.0
C      1  0.4660280000000  0.5469230000000  0.4889960000000 1.0
C      1  0.4900750000000  0.4237470000000  0.4440170000000 1.0
C      1  0.3918830000000  0.5281510000000  0.4780470000000 1.0
C      1  0.5297060000000  0.5090830000000  0.5569170000000 1.0
C      1  0.4393100000000  0.4789940000000  0.5287020000000 1.0
C      1  0.5782900000000  0.5076340000000  0.4672880000000 1.0
C      1  0.4667100000000  0.4546800000000  0.5445800000000 1.0
C      1  0.4777770000000  0.5619850000000  0.4199930000000 1.0
END
