TITL C-2778431-5191-542 0.00823825064618723 125000 -1017.22372104057 0 0 171 (C1) n - 1
REM
REM in /home/nfs/bkarasulu/CARBON/AIRSS/Generating-Clusters/REBO/Only-C1/SD-CG/HFTN-CG
REM
REM
REM
REM
REM
REM ./C.cell (11c1c37f851c82e70ff6c80c92926a4b)
REM
REM compiler GCC version 9.2.1 20190827 (Red Hat 9.2.1-1)
REM options -cpp -mtune=generic -march=x86-64 -g -O0 -fpre-include=/usr/include/finclude/math-vector-fortran.h
REM seed 871268770 -667028164 -978938279 1951283914 996557795 -2064840950 939762963 851010515 -1346945548 -2036385046 -1009097924 1391156905 -1793871628 78356000 446642977 1487344329 -1790000688 -702193446 -1255286956 -746084495 -1984065132 1612863919 1450052838 223236292 1912956625 -1090660787 -2142174785 -351676360 998177485 1535527245 -2078906169 -1389357287 2020183050
REM
CELL 1.54180   50.00000   50.00000   50.00000   90.00000   90.00000   90.00000
LATT -1
SFAC C  
C      1  0.5357210000000  0.4228370000000  0.4270680000000 1.0
C      1  0.4457510000000  0.5293000000000  0.4148140000000 1.0
C      1  0.5269860000000  0.4678970000000  0.6012210000000 1.0
C      1  0.4419550000000  0.4188690000000  0.5129450000000 1.0
C      1  0.4946370000000  0.5021750000000  0.4537830000000 1.0
C      1  0.4750020000000  0.4580540000000  0.5200390000000 1.0
C      1  0.5012090000000  0.5404290000000  0.5184810000000 1.0
C      1  0.5036550000000  0.5217520000000  0.5770460000000 1.0
C      1  0.4518420000000  0.5317110000000  0.5917880000000 1.0
C      1  0.4917130000000  0.4780700000000  0.5051060000000 1.0
C      1  0.6070790000000  0.5339950000000  0.5475880000000 1.0
C      1  0.4748380000000  0.4451940000000  0.4069040000000 1.0
C      1  0.5248510000000  0.5773810000000  0.5650200000000 1.0
C      1  0.4966700000000  0.4742290000000  0.6025940000000 1.0
C      1  0.4794540000000  0.5460460000000  0.4976980000000 1.0
C      1  0.5006610000000  0.5415610000000  0.3979520000000 1.0
C      1  0.4611320000000  0.3990990000000  0.5031320000000 1.0
C      1  0.4171360000000  0.5804020000000  0.4792220000000 1.0
C      1  0.6075330000000  0.5286350000000  0.4712630000000 1.0
C      1  0.5165880000000  0.4776960000000  0.4873810000000 1.0
C      1  0.4742680000000  0.5111440000000  0.6073840000000 1.0
C      1  0.5795430000000  0.4475900000000  0.4466610000000 1.0
C      1  0.5300500000000  0.5462450000000  0.4111240000000 1.0
C      1  0.5453420000000  0.5993300000000  0.4603350000000 1.0
C      1  0.4437360000000  0.4141490000000  0.4602420000000 1.0
C      1  0.4489710000000  0.4860170000000  0.4191410000000 1.0
C      1  0.5669890000000  0.4943870000000  0.5609640000000 1.0
C      1  0.4511330000000  0.4479220000000  0.5041980000000 1.0
C      1  0.5008900000000  0.5731340000000  0.5846070000000 1.0
C      1  0.4734360000000  0.5744120000000  0.5079690000000 1.0
C      1  0.4576880000000  0.4413600000000  0.5519100000000 1.0
C      1  0.4665170000000  0.4731150000000  0.5481630000000 1.0
C      1  0.4456650000000  0.5518970000000  0.4526910000000 1.0
C      1  0.5094440000000  0.4389410000000  0.4818900000000 1.0
C      1  0.5558400000000  0.5867190000000  0.5545330000000 1.0
C      1  0.4837830000000  0.3944530000000  0.5199380000000 1.0
C      1  0.5792870000000  0.4814800000000  0.4406320000000 1.0
C      1  0.5335820000000  0.4635470000000  0.4616190000000 1.0
C      1  0.4984620000000  0.4473460000000  0.5418980000000 1.0
C      1  0.4668100000000  0.5065380000000  0.5753370000000 1.0
C      1  0.5854640000000  0.4992560000000  0.5144480000000 1.0
C      1  0.5100090000000  0.4445780000000  0.4483480000000 1.0
C      1  0.4525820000000  0.5612450000000  0.4207070000000 1.0
C      1  0.4209510000000  0.4204170000000  0.4739850000000 1.0
C      1  0.4783150000000  0.5693310000000  0.4388130000000 1.0
C      1  0.4129750000000  0.5126850000000  0.5104070000000 1.0
C      1  0.4292190000000  0.5725540000000  0.5290800000000 1.0
C      1  0.5247290000000  0.4176300000000  0.5438250000000 1.0
C      1  0.5432020000000  0.5598410000000  0.4320990000000 1.0
C      1  0.5795660000000  0.4690620000000  0.5199680000000 1.0
C      1  0.4991870000000  0.4912970000000  0.4042460000000 1.0
C      1  0.5046240000000  0.3795060000000  0.5078240000000 1.0
C      1  0.5094730000000  0.5208070000000  0.5433570000000 1.0
C      1  0.4449190000000  0.5946840000000  0.4776920000000 1.0
C      1  0.5601740000000  0.5324320000000  0.5514690000000 1.0
C      1  0.4337680000000  0.4360920000000  0.5379910000000 1.0
C      1  0.4481520000000  0.5652920000000  0.5533990000000 1.0
C      1  0.5280120000000  0.4193860000000  0.4931850000000 1.0
C      1  0.4746890000000  0.5717010000000  0.5477800000000 1.0
C      1  0.4013930000000  0.5404830000000  0.5026000000000 1.0
C      1  0.5363130000000  0.4986610000000  0.5239920000000 1.0
C      1  0.5276360000000  0.4964550000000  0.6138040000000 1.0
C      1  0.5862270000000  0.4536540000000  0.4976840000000 1.0
C      1  0.5925970000000  0.5434290000000  0.4540620000000 1.0
C      1  0.5500490000000  0.4507290000000  0.4365660000000 1.0
C      1  0.4268460000000  0.5034840000000  0.4078630000000 1.0
C      1  0.5308370000000  0.5841360000000  0.4415270000000 1.0
C      1  0.5232690000000  0.5190500000000  0.5055220000000 1.0
C      1  0.4698620000000  0.4511470000000  0.5878590000000 1.0
C      1  0.4173440000000  0.4674440000000  0.4595710000000 1.0
C      1  0.5146730000000  0.3906530000000  0.4591720000000 1.0
C      1  0.5455360000000  0.5514880000000  0.4922510000000 1.0
C      1  0.5360460000000  0.5389680000000  0.5376370000000 1.0
C      1  0.4136100000000  0.5300930000000  0.4621940000000 1.0
C      1  0.4361490000000  0.5473550000000  0.5732410000000 1.0
C      1  0.4976460000000  0.4621230000000  0.5703130000000 1.0
C      1  0.4924870000000  0.4135480000000  0.5416870000000 1.0
C      1  0.4030260000000  0.5087650000000  0.5587120000000 1.0
C      1  0.4473380000000  0.5837070000000  0.5051270000000 1.0
C      1  0.4962200000000  0.5120080000000  0.4858830000000 1.0
C      1  0.6059360000000  0.5197590000000  0.4965310000000 1.0
C      1  0.5634350000000  0.5435040000000  0.5773830000000 1.0
C      1  0.4152100000000  0.5623120000000  0.4575730000000 1.0
C      1  0.5385780000000  0.4716380000000  0.5099850000000 1.0
C      1  0.4805660000000  0.5067160000000  0.5135860000000 1.0
C      1  0.4747650000000  0.5945700000000  0.4613770000000 1.0
C      1  0.4812610000000  0.4258150000000  0.5708570000000 1.0
C      1  0.4181800000000  0.4705210000000  0.5059520000000 1.0
C      1  0.4076470000000  0.5060230000000  0.4310780000000 1.0
C      1  0.4635080000000  0.4800120000000  0.6047960000000 1.0
C      1  0.5646010000000  0.5450190000000  0.4439100000000 1.0
C      1  0.4097750000000  0.5669450000000  0.5038430000000 1.0
C      1  0.4393740000000  0.4930970000000  0.5010410000000 1.0
C      1  0.4388900000000  0.4640110000000  0.4390530000000 1.0
C      1  0.3899050000000  0.5079360000000  0.4546370000000 1.0
C      1  0.5144820000000  0.5144990000000  0.3933740000000 1.0
C      1  0.4835090000000  0.4667030000000  0.4193580000000 1.0
C      1  0.4796390000000  0.4528240000000  0.4729930000000 1.0
C      1  0.5267450000000  0.5010030000000  0.4646080000000 1.0
C      1  0.5865850000000  0.4694700000000  0.4707710000000 1.0
C      1  0.5534740000000  0.4157020000000  0.5340140000000 1.0
C      1  0.4637420000000  0.3974070000000  0.4733820000000 1.0
C      1  0.5711540000000  0.5898280000000  0.4665110000000 1.0
C      1  0.4923300000000  0.5951640000000  0.5078880000000 1.0
C      1  0.5320520000000  0.5655800000000  0.5175130000000 1.0
C      1  0.4855330000000  0.4260750000000  0.4432650000000 1.0
C      1  0.5378380000000  0.4001020000000  0.4434740000000 1.0
C      1  0.4578990000000  0.4405500000000  0.4488500000000 1.0
C      1  0.5962740000000  0.5425190000000  0.5192690000000 1.0
C      1  0.5706310000000  0.5059410000000  0.4839440000000 1.0
C      1  0.5202150000000  0.4664550000000  0.4037790000000 1.0
C      1  0.5270550000000  0.5336900000000  0.4741900000000 1.0
C      1  0.5036660000000  0.5871780000000  0.4441240000000 1.0
C      1  0.4368610000000  0.5418360000000  0.4842010000000 1.0
C      1  0.5289740000000  0.6062070000000  0.4822460000000 1.0
C      1  0.5155130000000  0.4907270000000  0.5685910000000 1.0
C      1  0.5463310000000  0.4716840000000  0.4148590000000 1.0
C      1  0.5305660000000  0.4483620000000  0.5302030000000 1.0
C      1  0.4760530000000  0.5338310000000  0.5602620000000 1.0
C      1  0.4644250000000  0.5266790000000  0.5328380000000 1.0
C      1  0.5641220000000  0.3983920000000  0.4547820000000 1.0
C      1  0.5689630000000  0.5329990000000  0.5013630000000 1.0
C      1  0.5064160000000  0.5656570000000  0.5401770000000 1.0
C      1  0.5151960000000  0.4265910000000  0.5730780000000 1.0
C      1  0.5712360000000  0.4219150000000  0.5538080000000 1.0
C      1  0.4833420000000  0.5555850000000  0.5832260000000 1.0
C      1  0.4802620000000  0.4735950000000  0.4479670000000 1.0
C      1  0.5787740000000  0.4210370000000  0.4638870000000 1.0
C      1  0.4555700000000  0.4952320000000  0.4572980000000 1.0
C      1  0.5128360000000  0.6024160000000  0.5262530000000 1.0
C      1  0.5343380000000  0.4451760000000  0.5856940000000 1.0
C      1  0.4349710000000  0.5128610000000  0.5354100000000 1.0
C      1  0.5542270000000  0.4194780000000  0.5064340000000 1.0
C      1  0.4377640000000  0.5144640000000  0.4445130000000 1.0
C      1  0.6246600000000  0.5403680000000  0.5653350000000 1.0
C      1  0.4868810000000  0.4963620000000  0.5516360000000 1.0
C      1  0.4380320000000  0.5427440000000  0.5183560000000 1.0
C      1  0.5406060000000  0.5978920000000  0.5106050000000 1.0
C      1  0.5835550000000  0.5124380000000  0.5420770000000 1.0
C      1  0.4599750000000  0.4794810000000  0.4815360000000 1.0
C      1  0.4763110000000  0.5058610000000  0.4251180000000 1.0
C      1  0.5066260000000  0.5137420000000  0.6080980000000 1.0
C      1  0.5538510000000  0.5696230000000  0.5804820000000 1.0
C      1  0.4466340000000  0.4730370000000  0.5759320000000 1.0
C      1  0.4940720000000  0.5397110000000  0.4675450000000 1.0
C      1  0.5136750000000  0.4410430000000  0.4154700000000 1.0
C      1  0.4740410000000  0.5354580000000  0.4423250000000 1.0
C      1  0.4874850000000  0.3999330000000  0.4552370000000 1.0
C      1  0.5772540000000  0.4275330000000  0.4918290000000 1.0
C      1  0.5003000000000  0.6024400000000  0.4811680000000 1.0
C      1  0.5641850000000  0.5868090000000  0.5282120000000 1.0
C      1  0.3934320000000  0.4835730000000  0.4692830000000 1.0
C      1  0.5200820000000  0.3917080000000  0.4875310000000 1.0
C      1  0.5812580000000  0.5698720000000  0.5131980000000 1.0
C      1  0.5762110000000  0.4742410000000  0.5762960000000 1.0
C      1  0.5620670000000  0.4466360000000  0.5722450000000 1.0
C      1  0.3958390000000  0.4916460000000  0.5309870000000 1.0
C      1  0.4173810000000  0.4620990000000  0.5351120000000 1.0
C      1  0.5609430000000  0.4579290000000  0.5400530000000 1.0
C      1  0.4275280000000  0.4855610000000  0.5542750000000 1.0
C      1  0.5726380000000  0.5691310000000  0.4851200000000 1.0
C      1  0.5429470000000  0.5186210000000  0.4040660000000 1.0
C      1  0.5561390000000  0.4757960000000  0.4835470000000 1.0
C      1  0.5681470000000  0.5119730000000  0.4510810000000 1.0
C      1  0.4113610000000  0.5336930000000  0.5664000000000 1.0
C      1  0.4579660000000  0.5197230000000  0.4931840000000 1.0
C      1  0.4738350000000  0.5436140000000  0.4020220000000 1.0
C      1  0.4237410000000  0.4488550000000  0.4844550000000 1.0
C      1  0.5581460000000  0.4995040000000  0.4209230000000 1.0
C      1  0.3897780000000  0.4827680000000  0.4985520000000 1.0
C      1  0.5402610000000  0.4950660000000  0.5525370000000 1.0
END
