TITL C-2778427-5640-780 5.43456157775264e-05 125000 -1162.42813918161 0 0 194 (C1) n - 1
REM
REM in /home/nfs/bkarasulu/CARBON/AIRSS/Generating-Clusters/REBO/Only-C1/SD-CG/HFTN-CG
REM
REM
REM
REM
REM
REM ./C.cell (11c1c37f851c82e70ff6c80c92926a4b)
REM
REM compiler GCC version 9.2.1 20190827 (Red Hat 9.2.1-1)
REM options -cpp -mtune=generic -march=x86-64 -g -O0 -fpre-include=/usr/include/finclude/math-vector-fortran.h
REM seed -1867695089 423988356 -110451827 726050046 700915174 -1550411567 -983591676 978381260 -1467765028 1440167406 925149939 -1906523279 -1863001560 1879621090 1004235096 224900924 1619881962 2087263556 2007034577 129450963 -444342687 -808808189 84210908 -1529335886 -93206364 -1257786690 2070367232 700147111 -1083716336 -97475823 645851434 1533059086 -1976664605
REM
CELL 1.54180   50.00000   50.00000   50.00000   90.00000   90.00000   90.00000
LATT -1
SFAC C  
C      1  0.6145400000000  0.5190100000000  0.4558330000000 1.0
C      1  0.5963300000000  0.5077790000000  0.5283720000000 1.0
C      1  0.4310390000000  0.4795270000000  0.5891070000000 1.0
C      1  0.5463520000000  0.4409910000000  0.5298070000000 1.0
C      1  0.4149060000000  0.5003890000000  0.4316890000000 1.0
C      1  0.5980870000000  0.5269450000000  0.4920370000000 1.0
C      1  0.4265190000000  0.5303380000000  0.4237210000000 1.0
C      1  0.4073630000000  0.3954410000000  0.5193210000000 1.0
C      1  0.5353210000000  0.5547730000000  0.5286010000000 1.0
C      1  0.4670560000000  0.4363880000000  0.5866800000000 1.0
C      1  0.4087610000000  0.5601010000000  0.5211990000000 1.0
C      1  0.5421290000000  0.5463800000000  0.3853240000000 1.0
C      1  0.5617910000000  0.4439600000000  0.4885880000000 1.0
C      1  0.4963800000000  0.5961110000000  0.4124430000000 1.0
C      1  0.4876620000000  0.3829480000000  0.5390020000000 1.0
C      1  0.5168910000000  0.4311240000000  0.4741900000000 1.0
C      1  0.5468930000000  0.4427210000000  0.4329090000000 1.0
C      1  0.4955270000000  0.5638400000000  0.5920310000000 1.0
C      1  0.4970500000000  0.5252190000000  0.4676230000000 1.0
C      1  0.4800730000000  0.6094470000000  0.4546530000000 1.0
C      1  0.4338170000000  0.4157740000000  0.4783930000000 1.0
C      1  0.4922040000000  0.6538260000000  0.5792840000000 1.0
C      1  0.5554970000000  0.5520180000000  0.4694860000000 1.0
C      1  0.5501180000000  0.4264950000000  0.5676880000000 1.0
C      1  0.6044770000000  0.5327160000000  0.4382310000000 1.0
C      1  0.5849270000000  0.4726220000000  0.4458850000000 1.0
C      1  0.5557800000000  0.5056240000000  0.4109680000000 1.0
C      1  0.4862410000000  0.4266980000000  0.4805740000000 1.0
C      1  0.4375570000000  0.5169650000000  0.5177910000000 1.0
C      1  0.5391950000000  0.5377550000000  0.5905510000000 1.0
C      1  0.4377140000000  0.4405790000000  0.5710890000000 1.0
C      1  0.4618950000000  0.4828910000000  0.4385630000000 1.0
C      1  0.5648150000000  0.4996660000000  0.5258020000000 1.0
C      1  0.4925990000000  0.5292320000000  0.5601440000000 1.0
C      1  0.4292960000000  0.4989520000000  0.4002970000000 1.0
C      1  0.4704400000000  0.5422730000000  0.4225260000000 1.0
C      1  0.5129530000000  0.5678960000000  0.5117740000000 1.0
C      1  0.5204920000000  0.5870120000000  0.4239560000000 1.0
C      1  0.4910980000000  0.4147530000000  0.5822110000000 1.0
C      1  0.5189590000000  0.4903720000000  0.5215070000000 1.0
C      1  0.5582110000000  0.5874750000000  0.5305270000000 1.0
C      1  0.4739280000000  0.5969660000000  0.4297170000000 1.0
C      1  0.4334620000000  0.4732130000000  0.4221480000000 1.0
C      1  0.5513730000000  0.5235380000000  0.4788160000000 1.0
C      1  0.5416760000000  0.6028430000000  0.4348860000000 1.0
C      1  0.5225610000000  0.4471320000000  0.5478210000000 1.0
C      1  0.4992210000000  0.5332320000000  0.4360450000000 1.0
C      1  0.4018930000000  0.4977110000000  0.4586720000000 1.0
C      1  0.5442720000000  0.5075490000000  0.5907440000000 1.0
C      1  0.4930950000000  0.5109340000000  0.5843650000000 1.0
C      1  0.5263670000000  0.4768210000000  0.4977740000000 1.0
C      1  0.4264860000000  0.4134360000000  0.5352580000000 1.0
C      1  0.5748260000000  0.5348820000000  0.5615430000000 1.0
C      1  0.4245480000000  0.5383140000000  0.5664110000000 1.0
C      1  0.5185880000000  0.4337450000000  0.5792000000000 1.0
C      1  0.4567880000000  0.4836180000000  0.3915260000000 1.0
C      1  0.5357280000000  0.5670420000000  0.4856920000000 1.0
C      1  0.5131910000000  0.4678040000000  0.4002630000000 1.0
C      1  0.5238130000000  0.4794250000000  0.6104600000000 1.0
C      1  0.4662300000000  0.5220940000000  0.5449110000000 1.0
C      1  0.5296290000000  0.4077060000000  0.5512040000000 1.0
C      1  0.5119170000000  0.5438070000000  0.6016530000000 1.0
C      1  0.4041360000000  0.5348420000000  0.5391950000000 1.0
C      1  0.5029540000000  0.4031900000000  0.5081150000000 1.0
C      1  0.3950880000000  0.5118510000000  0.5222670000000 1.0
C      1  0.4489300000000  0.5269060000000  0.4009070000000 1.0
C      1  0.6005520000000  0.4720000000000  0.4701240000000 1.0
C      1  0.5930090000000  0.5782250000000  0.4876330000000 1.0
C      1  0.5149030000000  0.5029680000000  0.4396870000000 1.0
C      1  0.5454970000000  0.5039200000000  0.4552210000000 1.0
C      1  0.5464250000000  0.5492710000000  0.4380320000000 1.0
C      1  0.5751630000000  0.5714080000000  0.4523570000000 1.0
C      1  0.4673020000000  0.4048930000000  0.4541770000000 1.0
C      1  0.4876190000000  0.5530810000000  0.4799490000000 1.0
C      1  0.5000640000000  0.4471040000000  0.4492260000000 1.0
C      1  0.4244670000000  0.5523880000000  0.4654690000000 1.0
C      1  0.4054430000000  0.4461520000000  0.4529460000000 1.0
C      1  0.4115400000000  0.4428190000000  0.5126520000000 1.0
C      1  0.5263180000000  0.4919360000000  0.4124630000000 1.0
C      1  0.6115750000000  0.4992930000000  0.4807000000000 1.0
C      1  0.4185090000000  0.4871360000000  0.4863990000000 1.0
C      1  0.4672760000000  0.4887010000000  0.5518730000000 1.0
C      1  0.3935140000000  0.4836790000000  0.5262170000000 1.0
C      1  0.4962780000000  0.3962400000000  0.4552100000000 1.0
C      1  0.6062460000000  0.5578090000000  0.5396290000000 1.0
C      1  0.4496980000000  0.5829270000000  0.4606270000000 1.0
C      1  0.5736490000000  0.4260460000000  0.5429340000000 1.0
C      1  0.5412180000000  0.4098210000000  0.4649960000000 1.0
C      1  0.4133060000000  0.4165200000000  0.4978040000000 1.0
C      1  0.5607490000000  0.4713550000000  0.5327030000000 1.0
C      1  0.4384450000000  0.5259000000000  0.4772760000000 1.0
C      1  0.6041970000000  0.5532990000000  0.4885030000000 1.0
C      1  0.4645650000000  0.5708270000000  0.4828640000000 1.0
C      1  0.4598860000000  0.4224750000000  0.4295850000000 1.0
C      1  0.4941530000000  0.4784470000000  0.4488900000000 1.0
C      1  0.5166010000000  0.3893650000000  0.5311400000000 1.0
C      1  0.5597880000000  0.4136360000000  0.5142580000000 1.0
C      1  0.5372850000000  0.4148800000000  0.4361880000000 1.0
C      1  0.5835330000000  0.5700830000000  0.5288380000000 1.0
C      1  0.5093490000000  0.3925540000000  0.4811110000000 1.0
C      1  0.5514490000000  0.5983760000000  0.5049330000000 1.0
C      1  0.6076180000000  0.4632750000000  0.5153360000000 1.0
C      1  0.4645850000000  0.5123320000000  0.5952790000000 1.0
C      1  0.5000950000000  0.6013890000000  0.4707360000000 1.0
C      1  0.4297790000000  0.5539920000000  0.4381170000000 1.0
C      1  0.6011790000000  0.4515030000000  0.4904440000000 1.0
C      1  0.4811390000000  0.5008710000000  0.4685990000000 1.0
C      1  0.5193110000000  0.4778510000000  0.5509750000000 1.0
C      1  0.5786800000000  0.4311780000000  0.4644050000000 1.0
C      1  0.4148170000000  0.4415280000000  0.5466080000000 1.0
C      1  0.5626590000000  0.5988400000000  0.4536260000000 1.0
C      1  0.5209280000000  0.5962870000000  0.4953420000000 1.0
C      1  0.4857060000000  0.4563150000000  0.5290140000000 1.0
C      1  0.5107270000000  0.4586410000000  0.5976310000000 1.0
C      1  0.4510710000000  0.5364980000000  0.5881270000000 1.0
C      1  0.5150440000000  0.5102130000000  0.6061660000000 1.0
C      1  0.4538820000000  0.4534550000000  0.4538850000000 1.0
C      1  0.5217030000000  0.5207460000000  0.4824100000000 1.0
C      1  0.5401450000000  0.3994740000000  0.4942680000000 1.0
C      1  0.4988090000000  0.4478420000000  0.4002860000000 1.0
C      1  0.4499950000000  0.4604590000000  0.5463060000000 1.0
C      1  0.4794060000000  0.4640210000000  0.5938440000000 1.0
C      1  0.4499750000000  0.6021800000000  0.5274320000000 1.0
C      1  0.4952160000000  0.5108650000000  0.3963390000000 1.0
C      1  0.4884360000000  0.5312920000000  0.5060440000000 1.0
C      1  0.4365120000000  0.4625450000000  0.5168570000000 1.0
C      1  0.4518810000000  0.4135960000000  0.5249440000000 1.0
C      1  0.5815700000000  0.5499640000000  0.4297200000000 1.0
C      1  0.3994480000000  0.5146510000000  0.4883720000000 1.0
C      1  0.5103380000000  0.5825400000000  0.5680080000000 1.0
C      1  0.5750320000000  0.5069820000000  0.5637020000000 1.0
C      1  0.4847790000000  0.3931010000000  0.5662650000000 1.0
C      1  0.5543010000000  0.5517360000000  0.5715520000000 1.0
C      1  0.5593300000000  0.4566120000000  0.5641860000000 1.0
C      1  0.4317230000000  0.4359490000000  0.4577350000000 1.0
C      1  0.5096320000000  0.4081790000000  0.4322310000000 1.0
C      1  0.5044920000000  0.5142000000000  0.5179040000000 1.0
C      1  0.5412200000000  0.5220080000000  0.5316720000000 1.0
C      1  0.4404690000000  0.4400920000000  0.4189350000000 1.0
C      1  0.5867660000000  0.4217050000000  0.4954420000000 1.0
C      1  0.4565520000000  0.5708940000000  0.4313180000000 1.0
C      1  0.4176030000000  0.5374520000000  0.5017560000000 1.0
C      1  0.4809720000000  0.4797170000000  0.5154570000000 1.0
C      1  0.5707060000000  0.5959260000000  0.4835740000000 1.0
C      1  0.5468080000000  0.4878040000000  0.5663800000000 1.0
C      1  0.4930040000000  0.4828360000000  0.5687500000000 1.0
C      1  0.4343560000000  0.5118220000000  0.5512820000000 1.0
C      1  0.4726000000000  0.4527830000000  0.4779290000000 1.0
C      1  0.4814660000000  0.4247760000000  0.5183960000000 1.0
C      1  0.4254590000000  0.5788080000000  0.4804690000000 1.0
C      1  0.3959830000000  0.4666790000000  0.4997640000000 1.0
C      1  0.4785040000000  0.4900960000000  0.4089400000000 1.0
C      1  0.4871400000000  0.4781300000000  0.4882020000000 1.0
C      1  0.5096790000000  0.5701630000000  0.4674230000000 1.0
C      1  0.5290240000000  0.4590440000000  0.4482720000000 1.0
C      1  0.4247590000000  0.5860290000000  0.5125610000000 1.0
C      1  0.3919870000000  0.4661480000000  0.4660930000000 1.0
C      1  0.4058480000000  0.4715710000000  0.5479790000000 1.0
C      1  0.6120530000000  0.4910330000000  0.5118860000000 1.0
C      1  0.5058630000000  0.5521090000000  0.5553210000000 1.0
C      1  0.4927650000000  0.6300460000000  0.5682840000000 1.0
C      1  0.6078940000000  0.5305440000000  0.5395000000000 1.0
C      1  0.5319210000000  0.4795060000000  0.4672370000000 1.0
C      1  0.4769930000000  0.5961430000000  0.5352070000000 1.0
C      1  0.4574810000000  0.5362890000000  0.5015510000000 1.0
C      1  0.5011350000000  0.4235680000000  0.5447710000000 1.0
C      1  0.4933580000000  0.6049880000000  0.5566930000000 1.0
C      1  0.5696250000000  0.5234110000000  0.5030990000000 1.0
C      1  0.5642590000000  0.5505640000000  0.5166920000000 1.0
C      1  0.5695930000000  0.4948790000000  0.4367660000000 1.0
C      1  0.5393510000000  0.5736860000000  0.5548810000000 1.0
C      1  0.4497020000000  0.5009300000000  0.4654600000000 1.0
C      1  0.4735240000000  0.4381450000000  0.5550530000000 1.0
C      1  0.4528420000000  0.4917830000000  0.5221670000000 1.0
C      1  0.5278010000000  0.5175160000000  0.3925870000000 1.0
C      1  0.5901460000000  0.4548550000000  0.5389210000000 1.0
C      1  0.4669050000000  0.5610890000000  0.5903530000000 1.0
C      1  0.4627900000000  0.4033750000000  0.4878720000000 1.0
C      1  0.5744970000000  0.4461540000000  0.4407900000000 1.0
C      1  0.4675800000000  0.3874410000000  0.5176440000000 1.0
C      1  0.4770670000000  0.5290530000000  0.3855740000000 1.0
C      1  0.4518930000000  0.5835890000000  0.5774690000000 1.0
C      1  0.5349430000000  0.4484410000000  0.4920930000000 1.0
C      1  0.5578590000000  0.5371020000000  0.4101310000000 1.0
C      1  0.5854460000000  0.4783880000000  0.5630880000000 1.0
C      1  0.4898430000000  0.4310690000000  0.4240940000000 1.0
C      1  0.4220720000000  0.4875080000000  0.5637360000000 1.0
C      1  0.4501070000000  0.5665160000000  0.5094290000000 1.0
C      1  0.4565160000000  0.4855760000000  0.5991410000000 1.0
C      1  0.5179150000000  0.5592660000000  0.4381180000000 1.0
C      1  0.4424780000000  0.5636780000000  0.5587990000000 1.0
C      1  0.4474760000000  0.4743470000000  0.4869020000000 1.0
C      1  0.4618200000000  0.5527750000000  0.5375130000000 1.0
C      1  0.4864140000000  0.5698970000000  0.5253080000000 1.0
END
