TITL C-2778424-3986-48 -0.00435716860625375 125000 -1148.65537254923 0 0 198 (C1) n - 1
REM
REM in /home/nfs/bkarasulu/CARBON/AIRSS/Generating-Clusters/REBO/Only-C1/SD-CG/HFTN-CG
REM
REM
REM
REM
REM
REM ./C.cell (11c1c37f851c82e70ff6c80c92926a4b)
REM
REM compiler GCC version 9.2.1 20190827 (Red Hat 9.2.1-1)
REM options -cpp -mtune=generic -march=x86-64 -g -O0 -fpre-include=/usr/include/finclude/math-vector-fortran.h
REM seed 436240402 -546359799 -1069642057 1916267718 -1725193413 461794359 -1587978353 -1198997926 -202520927 -1908187277 -1017547924 1105738102 -1557083952 -252841647 1206764758 1832604711 2006873084 -1125387382 822719449 2007918754 -1125704848 -730216718 720108534 -1509551815 1822069854 -915436642 -1235859960 1095296667 1501290689 -749586051 172223287 -1618945918 1668108525
REM
CELL 1.54180   50.00000   50.00000   50.00000   90.00000   90.00000   90.00000
LATT -1
SFAC C  
C      1  0.4400110000000  0.5435290000000  0.5332030000000 1.0
C      1  0.4634950000000  0.5865850000000  0.5386130000000 1.0
C      1  0.5665340000000  0.5154330000000  0.4648690000000 1.0
C      1  0.4696060000000  0.4996060000000  0.4203520000000 1.0
C      1  0.4880980000000  0.5426330000000  0.5416420000000 1.0
C      1  0.5040650000000  0.4227240000000  0.5861240000000 1.0
C      1  0.5988320000000  0.4961960000000  0.5689720000000 1.0
C      1  0.5372140000000  0.5284450000000  0.6055790000000 1.0
C      1  0.4284400000000  0.4711650000000  0.4173730000000 1.0
C      1  0.4834040000000  0.5592620000000  0.4712500000000 1.0
C      1  0.4930430000000  0.4382660000000  0.4870830000000 1.0
C      1  0.5227660000000  0.4290250000000  0.4284460000000 1.0
C      1  0.5112210000000  0.4621620000000  0.5472630000000 1.0
C      1  0.4177300000000  0.4474310000000  0.4676250000000 1.0
C      1  0.4203930000000  0.4872880000000  0.5116100000000 1.0
C      1  0.5287530000000  0.5733170000000  0.5255250000000 1.0
C      1  0.4571310000000  0.5630990000000  0.4873010000000 1.0
C      1  0.5490660000000  0.3879800000000  0.5342870000000 1.0
C      1  0.5459130000000  0.5090750000000  0.4178840000000 1.0
C      1  0.5234680000000  0.5212250000000  0.4305030000000 1.0
C      1  0.5737240000000  0.5088730000000  0.5828500000000 1.0
C      1  0.6033520000000  0.4587970000000  0.4878110000000 1.0
C      1  0.4991300000000  0.3976550000000  0.4522050000000 1.0
C      1  0.4345750000000  0.5907100000000  0.4438500000000 1.0
C      1  0.3950480000000  0.4894600000000  0.4899980000000 1.0
C      1  0.4835620000000  0.4416050000000  0.5903030000000 1.0
C      1  0.5531050000000  0.5843640000000  0.4823670000000 1.0
C      1  0.4454260000000  0.4547770000000  0.4821780000000 1.0
C      1  0.4956390000000  0.4763560000000  0.6029720000000 1.0
C      1  0.5071180000000  0.4783080000000  0.4694200000000 1.0
C      1  0.4824260000000  0.4691300000000  0.4870630000000 1.0
C      1  0.5213870000000  0.4938020000000  0.5531560000000 1.0
C      1  0.5061010000000  0.4717630000000  0.4365700000000 1.0
C      1  0.5275850000000  0.4667180000000  0.6006090000000 1.0
C      1  0.6053340000000  0.5137940000000  0.5442290000000 1.0
C      1  0.5069650000000  0.5275260000000  0.3607280000000 1.0
C      1  0.4384870000000  0.4992040000000  0.4108030000000 1.0
C      1  0.5618840000000  0.4821870000000  0.4865370000000 1.0
C      1  0.4964120000000  0.4645910000000  0.4044320000000 1.0
C      1  0.5381070000000  0.4456740000000  0.4613340000000 1.0
C      1  0.4324910000000  0.5960280000000  0.5154040000000 1.0
C      1  0.5398270000000  0.5350840000000  0.5275250000000 1.0
C      1  0.5083380000000  0.6080540000000  0.5524320000000 1.0
C      1  0.3923810000000  0.4965360000000  0.5292390000000 1.0
C      1  0.5234500000000  0.5700990000000  0.4740410000000 1.0
C      1  0.5468960000000  0.4135480000000  0.4599310000000 1.0
C      1  0.4532290000000  0.5073330000000  0.5966740000000 1.0
C      1  0.5145490000000  0.4171350000000  0.5282220000000 1.0
C      1  0.4884710000000  0.6175550000000  0.5347260000000 1.0
C      1  0.5074130000000  0.5763830000000  0.5036370000000 1.0
C      1  0.5094510000000  0.4291330000000  0.4602810000000 1.0
C      1  0.4515850000000  0.5098240000000  0.4802490000000 1.0
C      1  0.5110690000000  0.6054890000000  0.4876950000000 1.0
C      1  0.4775320000000  0.5102880000000  0.5417860000000 1.0
C      1  0.5266860000000  0.4540350000000  0.4075100000000 1.0
C      1  0.4141110000000  0.5334780000000  0.5396670000000 1.0
C      1  0.5717170000000  0.4258960000000  0.4698650000000 1.0
C      1  0.4628710000000  0.5299280000000  0.4448750000000 1.0
C      1  0.4927280000000  0.5814680000000  0.4299010000000 1.0
C      1  0.5322000000000  0.4376950000000  0.5856550000000 1.0
C      1  0.5747740000000  0.5756590000000  0.5036700000000 1.0
C      1  0.4589390000000  0.5420100000000  0.5574030000000 1.0
C      1  0.6064540000000  0.5232490000000  0.4854970000000 1.0
C      1  0.5225140000000  0.4551040000000  0.4903030000000 1.0
C      1  0.5020850000000  0.5564260000000  0.5889320000000 1.0
C      1  0.4940250000000  0.5442180000000  0.4444130000000 1.0
C      1  0.4921960000000  0.4178870000000  0.4261750000000 1.0
C      1  0.5242190000000  0.3867940000000  0.4913950000000 1.0
C      1  0.6120150000000  0.4764010000000  0.5131740000000 1.0
C      1  0.5245670000000  0.4730640000000  0.5191680000000 1.0
C      1  0.4870530000000  0.4384020000000  0.5506070000000 1.0
C      1  0.4732060000000  0.4738690000000  0.4354220000000 1.0
C      1  0.5859080000000  0.4670460000000  0.5615680000000 1.0
C      1  0.5899950000000  0.5090910000000  0.4310220000000 1.0
C      1  0.5749400000000  0.5230140000000  0.4932230000000 1.0
C      1  0.4743510000000  0.4758030000000  0.5407510000000 1.0
C      1  0.4179900000000  0.5115860000000  0.5563240000000 1.0
C      1  0.5728010000000  0.3995430000000  0.5456380000000 1.0
C      1  0.5723580000000  0.5401160000000  0.5788780000000 1.0
C      1  0.4545270000000  0.4102040000000  0.4715910000000 1.0
C      1  0.4161850000000  0.5176610000000  0.4195400000000 1.0
C      1  0.5724010000000  0.5199120000000  0.5445940000000 1.0
C      1  0.5885520000000  0.4528110000000  0.4576210000000 1.0
C      1  0.5394610000000  0.6100000000000  0.4873680000000 1.0
C      1  0.4309960000000  0.4659820000000  0.5589330000000 1.0
C      1  0.4684370000000  0.5153370000000  0.3904020000000 1.0
C      1  0.4977430000000  0.5281410000000  0.6003810000000 1.0
C      1  0.5964250000000  0.4549640000000  0.5351740000000 1.0
C      1  0.5245970000000  0.4333990000000  0.5538550000000 1.0
C      1  0.4401050000000  0.4144310000000  0.5604770000000 1.0
C      1  0.4206310000000  0.5437850000000  0.4318720000000 1.0
C      1  0.5960510000000  0.5557750000000  0.4847140000000 1.0
C      1  0.4874130000000  0.4876650000000  0.3870230000000 1.0
C      1  0.5615070000000  0.5755240000000  0.5342130000000 1.0
C      1  0.5434290000000  0.3994880000000  0.5069140000000 1.0
C      1  0.5705950000000  0.4862900000000  0.4220630000000 1.0
C      1  0.5425070000000  0.4953370000000  0.4636070000000 1.0
C      1  0.5169230000000  0.5504830000000  0.5443700000000 1.0
C      1  0.4202570000000  0.5064080000000  0.5884170000000 1.0
C      1  0.5632240000000  0.4906740000000  0.5528260000000 1.0
C      1  0.5378410000000  0.4726280000000  0.4445400000000 1.0
C      1  0.4706550000000  0.5896050000000  0.4609230000000 1.0
C      1  0.4981220000000  0.5339500000000  0.4886280000000 1.0
C      1  0.4583030000000  0.5405670000000  0.3936710000000 1.0
C      1  0.6197500000000  0.5378430000000  0.5278840000000 1.0
C      1  0.5620070000000  0.4409650000000  0.5209110000000 1.0
C      1  0.4013080000000  0.4746400000000  0.4613150000000 1.0
C      1  0.4221870000000  0.3984360000000  0.5224170000000 1.0
C      1  0.4155670000000  0.5464440000000  0.4967820000000 1.0
C      1  0.3932180000000  0.4739670000000  0.5488740000000 1.0
C      1  0.5274370000000  0.3937290000000  0.4642960000000 1.0
C      1  0.4339550000000  0.4404260000000  0.5420950000000 1.0
C      1  0.6179100000000  0.5070940000000  0.5131800000000 1.0
C      1  0.5584870000000  0.5415900000000  0.4512280000000 1.0
C      1  0.5287350000000  0.5741570000000  0.5653760000000 1.0
C      1  0.4394010000000  0.5334560000000  0.5820140000000 1.0
C      1  0.4479590000000  0.5796390000000  0.5642810000000 1.0
C      1  0.3929540000000  0.4375790000000  0.5124700000000 1.0
C      1  0.4292720000000  0.4899170000000  0.5425330000000 1.0
C      1  0.4479570000000  0.5364260000000  0.5019330000000 1.0
C      1  0.4144120000000  0.4909050000000  0.4412640000000 1.0
C      1  0.4685950000000  0.4554910000000  0.4605550000000 1.0
C      1  0.5112860000000  0.5590620000000  0.4189360000000 1.0
C      1  0.5391360000000  0.5990940000000  0.5445550000000 1.0
C      1  0.5468750000000  0.4729170000000  0.4015320000000 1.0
C      1  0.4812790000000  0.5140070000000  0.4680340000000 1.0
C      1  0.5548620000000  0.4578280000000  0.5727960000000 1.0
C      1  0.5406940000000  0.5218540000000  0.5584880000000 1.0
C      1  0.4961600000000  0.4034390000000  0.5676530000000 1.0
C      1  0.5801060000000  0.4405470000000  0.4945510000000 1.0
C      1  0.4809870000000  0.4699850000000  0.5737070000000 1.0
C      1  0.4028080000000  0.4494880000000  0.5359890000000 1.0
C      1  0.4600580000000  0.5789760000000  0.4300990000000 1.0
C      1  0.5606550000000  0.5781180000000  0.4354900000000 1.0
C      1  0.4773230000000  0.5209050000000  0.5100610000000 1.0
C      1  0.5032700000000  0.5917330000000  0.4591590000000 1.0
C      1  0.5547870000000  0.4320710000000  0.4254000000000 1.0
C      1  0.3899200000000  0.5200700000000  0.4831730000000 1.0
C      1  0.4714730000000  0.4262130000000  0.4483450000000 1.0
C      1  0.4634030000000  0.4453500000000  0.5288070000000 1.0
C      1  0.4636610000000  0.6179670000000  0.4783450000000 1.0
C      1  0.4769710000000  0.5673740000000  0.5709600000000 1.0
C      1  0.4942240000000  0.3920810000000  0.5046800000000 1.0
C      1  0.5540310000000  0.4862100000000  0.5913510000000 1.0
C      1  0.5095320000000  0.5105320000000  0.3826550000000 1.0
C      1  0.4117530000000  0.5378800000000  0.4642080000000 1.0
C      1  0.5270790000000  0.5454170000000  0.4530350000000 1.0
C      1  0.5320030000000  0.5044110000000  0.5236610000000 1.0
C      1  0.4789590000000  0.3910940000000  0.4750820000000 1.0
C      1  0.4319490000000  0.5777200000000  0.4731550000000 1.0
C      1  0.5067010000000  0.5489420000000  0.3934000000000 1.0
C      1  0.4829730000000  0.5027330000000  0.6103130000000 1.0
C      1  0.4511970000000  0.4270940000000  0.4977330000000 1.0
C      1  0.6048800000000  0.5066280000000  0.4584430000000 1.0
C      1  0.3945370000000  0.5269910000000  0.5151150000000 1.0
C      1  0.5792040000000  0.4758820000000  0.5144950000000 1.0
C      1  0.4728660000000  0.4879980000000  0.5094240000000 1.0
C      1  0.5699090000000  0.5568970000000  0.5602470000000 1.0
C      1  0.4492710000000  0.4507810000000  0.4260390000000 1.0
C      1  0.4588530000000  0.5918730000000  0.4990650000000 1.0
C      1  0.5829200000000  0.4238210000000  0.5381320000000 1.0
C      1  0.4447290000000  0.4821550000000  0.4952920000000 1.0
C      1  0.5374460000000  0.4998620000000  0.3896390000000 1.0
C      1  0.5735360000000  0.5669060000000  0.4647130000000 1.0
C      1  0.4994930000000  0.5148680000000  0.4148570000000 1.0
C      1  0.4289880000000  0.5629960000000  0.5747930000000 1.0
C      1  0.5600360000000  0.5014650000000  0.5117240000000 1.0
C      1  0.4849970000000  0.6129570000000  0.5035510000000 1.0
C      1  0.4732970000000  0.5008820000000  0.5717450000000 1.0
C      1  0.5503620000000  0.4635980000000  0.5393070000000 1.0
C      1  0.5402750000000  0.5696670000000  0.4240950000000 1.0
C      1  0.5147520000000  0.5091300000000  0.4728160000000 1.0
C      1  0.4763250000000  0.4417510000000  0.4118420000000 1.0
C      1  0.5326040000000  0.5438480000000  0.5804530000000 1.0
C      1  0.5807710000000  0.4841000000000  0.4606500000000 1.0
C      1  0.4705900000000  0.4081030000000  0.5464270000000 1.0
C      1  0.4381630000000  0.4316100000000  0.4504160000000 1.0
C      1  0.4831190000000  0.5703070000000  0.5254700000000 1.0
C      1  0.5055730000000  0.5050970000000  0.5774050000000 1.0
C      1  0.5987140000000  0.5565080000000  0.5180210000000 1.0
C      1  0.4144540000000  0.5765050000000  0.5090940000000 1.0
C      1  0.3991710000000  0.4097760000000  0.5117670000000 1.0
C      1  0.4555560000000  0.6160950000000  0.5303850000000 1.0
C      1  0.4858370000000  0.4242020000000  0.5133280000000 1.0
C      1  0.5270370000000  0.5009790000000  0.6019690000000 1.0
C      1  0.5660280000000  0.4571040000000  0.4351130000000 1.0
C      1  0.4478680000000  0.4088840000000  0.5218870000000 1.0
C      1  0.5154410000000  0.3842220000000  0.5304800000000 1.0
C      1  0.4083010000000  0.4787370000000  0.5766010000000 1.0
C      1  0.5698150000000  0.5394430000000  0.5192920000000 1.0
C      1  0.4345550000000  0.6095100000000  0.4691310000000 1.0
C      1  0.5777350000000  0.5336110000000  0.4273770000000 1.0
C      1  0.4509780000000  0.5510610000000  0.4229300000000 1.0
C      1  0.5010100000000  0.5882440000000  0.5764750000000 1.0
C      1  0.4597060000000  0.4362260000000  0.5722270000000 1.0
C      1  0.5371950000000  0.4299160000000  0.5078780000000 1.0
C      1  0.4339860000000  0.5146960000000  0.4551290000000 1.0
C      1  0.3930690000000  0.4552650000000  0.4884830000000 1.0
END
