TITL C-2778432-5617-1220 0.00550456541771864 125000 -1006.75102625884 0 0 175 (C1) n - 1
REM
REM in /home/nfs/bkarasulu/CARBON/AIRSS/Generating-Clusters/REBO/Only-C1/SD-CG/HFTN-CG
REM
REM
REM
REM
REM
REM ./C.cell (11c1c37f851c82e70ff6c80c92926a4b)
REM
REM compiler GCC version 9.2.1 20190827 (Red Hat 9.2.1-1)
REM options -cpp -mtune=generic -march=x86-64 -g -O0 -fpre-include=/usr/include/finclude/math-vector-fortran.h
REM seed -1042182751 -329276096 -985484904 531714718 -443449396 -2032962513 12661393 -1854988017 -765641076 -1820487211 -1503386907 -843026596 2053242486 1804843280 -2027616839 -1834879084 1797723631 687493122 1205066844 1620107921 1234751319 -470391319 1573821394 -744936760 -972092812 -816932912 -1428436667 -2129549591 1671447167 -1316268941 -1264888001 1319465456 -34624072
REM
CELL 1.54180   50.00000   50.00000   50.00000   90.00000   90.00000   90.00000
LATT -1
SFAC C  
C      1  0.5031870000000  0.4309520000000  0.4864620000000 1.0
C      1  0.4495900000000  0.5626670000000  0.4381920000000 1.0
C      1  0.5708890000000  0.5254840000000  0.4508050000000 1.0
C      1  0.4181330000000  0.5735940000000  0.5188750000000 1.0
C      1  0.5380290000000  0.5317200000000  0.4443030000000 1.0
C      1  0.4664970000000  0.4885580000000  0.5048940000000 1.0
C      1  0.5513160000000  0.4114030000000  0.5167050000000 1.0
C      1  0.5002650000000  0.5626470000000  0.4497560000000 1.0
C      1  0.5887040000000  0.4592150000000  0.4537620000000 1.0
C      1  0.4870290000000  0.5356000000000  0.5286460000000 1.0
C      1  0.5488410000000  0.4578040000000  0.4542030000000 1.0
C      1  0.5912860000000  0.4985520000000  0.5779480000000 1.0
C      1  0.5560320000000  0.4499590000000  0.4834330000000 1.0
C      1  0.4870700000000  0.4497180000000  0.5067930000000 1.0
C      1  0.4419660000000  0.5187420000000  0.4969760000000 1.0
C      1  0.4181500000000  0.4387040000000  0.5536020000000 1.0
C      1  0.5243350000000  0.4752440000000  0.5725690000000 1.0
C      1  0.5455520000000  0.4481700000000  0.5306760000000 1.0
C      1  0.4063770000000  0.4860390000000  0.4708350000000 1.0
C      1  0.4885470000000  0.4457040000000  0.5383940000000 1.0
C      1  0.5678510000000  0.4824820000000  0.5433800000000 1.0
C      1  0.4887480000000  0.4822080000000  0.4326350000000 1.0
C      1  0.5220890000000  0.4428390000000  0.4287790000000 1.0
C      1  0.4385880000000  0.4818490000000  0.4065420000000 1.0
C      1  0.4439450000000  0.4128120000000  0.4513850000000 1.0
C      1  0.4487670000000  0.4466950000000  0.5418880000000 1.0
C      1  0.5682410000000  0.4415960000000  0.4342370000000 1.0
C      1  0.4164020000000  0.5524630000000  0.4574480000000 1.0
C      1  0.4564290000000  0.4834220000000  0.4419160000000 1.0
C      1  0.5231380000000  0.5954550000000  0.4949130000000 1.0
C      1  0.4888210000000  0.5522600000000  0.4865580000000 1.0
C      1  0.5413240000000  0.5824350000000  0.4736920000000 1.0
C      1  0.5001470000000  0.5115840000000  0.4330820000000 1.0
C      1  0.5241480000000  0.5583450000000  0.5679960000000 1.0
C      1  0.4513150000000  0.4596590000000  0.5878340000000 1.0
C      1  0.5433880000000  0.4824330000000  0.5979290000000 1.0
C      1  0.4873970000000  0.5225870000000  0.5564960000000 1.0
C      1  0.4913720000000  0.4477100000000  0.4041390000000 1.0
C      1  0.4693560000000  0.5242200000000  0.4826900000000 1.0
C      1  0.5229100000000  0.5947280000000  0.5441510000000 1.0
C      1  0.5080170000000  0.4737370000000  0.5070020000000 1.0
C      1  0.5557970000000  0.4852370000000  0.4075530000000 1.0
C      1  0.4880900000000  0.5479330000000  0.5979350000000 1.0
C      1  0.4201810000000  0.5705370000000  0.4846900000000 1.0
C      1  0.5259180000000  0.4852310000000  0.4712560000000 1.0
C      1  0.4976290000000  0.4078930000000  0.5296390000000 1.0
C      1  0.4577550000000  0.5956810000000  0.4947320000000 1.0
C      1  0.4721530000000  0.4377120000000  0.5813930000000 1.0
C      1  0.4469470000000  0.4534830000000  0.4665210000000 1.0
C      1  0.5150470000000  0.5521420000000  0.5355070000000 1.0
C      1  0.4704440000000  0.4468450000000  0.4309490000000 1.0
C      1  0.5659780000000  0.5505400000000  0.5605260000000 1.0
C      1  0.4279810000000  0.5380110000000  0.4287350000000 1.0
C      1  0.5278610000000  0.5126310000000  0.5947220000000 1.0
C      1  0.5168110000000  0.5250950000000  0.5648600000000 1.0
C      1  0.4863210000000  0.4814160000000  0.5826670000000 1.0
C      1  0.4326020000000  0.4377450000000  0.4399420000000 1.0
C      1  0.5172220000000  0.5447230000000  0.4903710000000 1.0
C      1  0.4583000000000  0.5615430000000  0.4922590000000 1.0
C      1  0.4790890000000  0.4550340000000  0.4628700000000 1.0
C      1  0.5341340000000  0.4369990000000  0.5671860000000 1.0
C      1  0.4341830000000  0.5119410000000  0.4583930000000 1.0
C      1  0.5424020000000  0.5605280000000  0.4979150000000 1.0
C      1  0.5882710000000  0.4485330000000  0.4835920000000 1.0
C      1  0.4327880000000  0.5689970000000  0.5497970000000 1.0
C      1  0.3940130000000  0.5136420000000  0.5284170000000 1.0
C      1  0.4888130000000  0.5390480000000  0.4444920000000 1.0
C      1  0.4772620000000  0.5021260000000  0.6019960000000 1.0
C      1  0.5687250000000  0.4743550000000  0.5766230000000 1.0
C      1  0.5117370000000  0.4678960000000  0.4437240000000 1.0
C      1  0.4642430000000  0.5694130000000  0.5605640000000 1.0
C      1  0.4343650000000  0.4671160000000  0.5180540000000 1.0
C      1  0.4140820000000  0.4545930000000  0.4702570000000 1.0
C      1  0.4974840000000  0.5220070000000  0.6061660000000 1.0
C      1  0.5120930000000  0.4568070000000  0.5503570000000 1.0
C      1  0.5949640000000  0.5477420000000  0.5334590000000 1.0
C      1  0.4564970000000  0.4475150000000  0.5031290000000 1.0
C      1  0.4600880000000  0.4209200000000  0.5256170000000 1.0
C      1  0.4488090000000  0.4922860000000  0.5910990000000 1.0
C      1  0.5631670000000  0.5746700000000  0.4508000000000 1.0
C      1  0.5610230000000  0.5132090000000  0.5724740000000 1.0
C      1  0.5537400000000  0.5061770000000  0.4729230000000 1.0
C      1  0.4943180000000  0.4550810000000  0.5896250000000 1.0
C      1  0.5894090000000  0.4855770000000  0.4971270000000 1.0
C      1  0.4721580000000  0.4759800000000  0.4036870000000 1.0
C      1  0.4793260000000  0.5086890000000  0.3988630000000 1.0
C      1  0.4063200000000  0.4834720000000  0.5181830000000 1.0
C      1  0.5532530000000  0.4564620000000  0.4078020000000 1.0
C      1  0.5290480000000  0.5007010000000  0.4208270000000 1.0
C      1  0.4699700000000  0.4725410000000  0.5347110000000 1.0
C      1  0.5706350000000  0.5710900000000  0.5375110000000 1.0
C      1  0.5447020000000  0.5767150000000  0.5247440000000 1.0
C      1  0.5195310000000  0.4477970000000  0.4686750000000 1.0
C      1  0.5406990000000  0.6092010000000  0.5187560000000 1.0
C      1  0.4255430000000  0.4356470000000  0.4952210000000 1.0
C      1  0.5062720000000  0.5743330000000  0.5146610000000 1.0
C      1  0.4788930000000  0.4112650000000  0.5009610000000 1.0
C      1  0.5551220000000  0.4176900000000  0.4845360000000 1.0
C      1  0.4876570000000  0.5968130000000  0.5259210000000 1.0
C      1  0.4228370000000  0.5045210000000  0.4265160000000 1.0
C      1  0.4231130000000  0.4762440000000  0.4446310000000 1.0
C      1  0.4069560000000  0.4386240000000  0.5214660000000 1.0
C      1  0.5220640000000  0.5305370000000  0.4058870000000 1.0
C      1  0.5249840000000  0.4472460000000  0.3987390000000 1.0
C      1  0.5415780000000  0.4952330000000  0.5559600000000 1.0
C      1  0.4124420000000  0.5018630000000  0.4949390000000 1.0
C      1  0.5911230000000  0.5537600000000  0.4872280000000 1.0
C      1  0.5763900000000  0.5046540000000  0.4244770000000 1.0
C      1  0.4736470000000  0.4214690000000  0.4616880000000 1.0
C      1  0.5748700000000  0.4326810000000  0.5299410000000 1.0
C      1  0.5195410000000  0.5245310000000  0.4653840000000 1.0
C      1  0.5732710000000  0.6018110000000  0.5123770000000 1.0
C      1  0.4938920000000  0.5349690000000  0.4013570000000 1.0
C      1  0.4581480000000  0.5347330000000  0.4541470000000 1.0
C      1  0.5687310000000  0.5267200000000  0.5264270000000 1.0
C      1  0.5390290000000  0.4624070000000  0.5055380000000 1.0
C      1  0.5403700000000  0.4959800000000  0.5072920000000 1.0
C      1  0.4465040000000  0.5039300000000  0.5271970000000 1.0
C      1  0.5643330000000  0.4466080000000  0.5593680000000 1.0
C      1  0.4613450000000  0.5095540000000  0.4237650000000 1.0
C      1  0.6053540000000  0.4774310000000  0.5241560000000 1.0
C      1  0.4338340000000  0.4839760000000  0.5469320000000 1.0
C      1  0.5952760000000  0.4491050000000  0.5122680000000 1.0
C      1  0.5188190000000  0.5134760000000  0.4981110000000 1.0
C      1  0.5926930000000  0.5738950000000  0.5115950000000 1.0
C      1  0.5989760000000  0.5103730000000  0.5266550000000 1.0
C      1  0.5553380000000  0.5295060000000  0.4143220000000 1.0
C      1  0.5464810000000  0.5400420000000  0.5862430000000 1.0
C      1  0.4934920000000  0.4766270000000  0.4779340000000 1.0
C      1  0.4773340000000  0.4201170000000  0.5544800000000 1.0
C      1  0.5004630000000  0.4059610000000  0.4537880000000 1.0
C      1  0.5675420000000  0.4879750000000  0.5166880000000 1.0
C      1  0.5901150000000  0.4878010000000  0.4493920000000 1.0
C      1  0.5269350000000  0.5723020000000  0.4465610000000 1.0
C      1  0.5266920000000  0.4187350000000  0.4422180000000 1.0
C      1  0.4502300000000  0.4865270000000  0.4750860000000 1.0
C      1  0.5593980000000  0.5310390000000  0.4955450000000 1.0
C      1  0.5903520000000  0.5267640000000  0.5599870000000 1.0
C      1  0.5421400000000  0.5330540000000  0.5434190000000 1.0
C      1  0.5261990000000  0.4215670000000  0.5379130000000 1.0
C      1  0.4861730000000  0.4915510000000  0.5541950000000 1.0
C      1  0.3991890000000  0.4643860000000  0.5432350000000 1.0
C      1  0.4921270000000  0.5874690000000  0.5569310000000 1.0
C      1  0.4611800000000  0.5514400000000  0.5231430000000 1.0
C      1  0.4907710000000  0.6035950000000  0.4926360000000 1.0
C      1  0.5529230000000  0.4180900000000  0.4535700000000 1.0
C      1  0.4496920000000  0.5837310000000  0.5239040000000 1.0
C      1  0.5799560000000  0.5532310000000  0.4623400000000 1.0
C      1  0.5478320000000  0.5593480000000  0.4256600000000 1.0
C      1  0.4900340000000  0.5128980000000  0.5081620000000 1.0
C      1  0.4389030000000  0.5388970000000  0.5656160000000 1.0
C      1  0.4208610000000  0.5408580000000  0.4967800000000 1.0
C      1  0.4280670000000  0.4643190000000  0.5707540000000 1.0
C      1  0.4398490000000  0.5331530000000  0.5341860000000 1.0
C      1  0.5458580000000  0.4885430000000  0.4456800000000 1.0
C      1  0.4697480000000  0.5410940000000  0.5741140000000 1.0
C      1  0.4417630000000  0.4539380000000  0.4172180000000 1.0
C      1  0.4491250000000  0.4134200000000  0.4844310000000 1.0
C      1  0.4623140000000  0.5410860000000  0.4148780000000 1.0
C      1  0.4509790000000  0.5803110000000  0.4644780000000 1.0
C      1  0.4034590000000  0.5255590000000  0.4646260000000 1.0
C      1  0.5226070000000  0.3937920000000  0.5105730000000 1.0
C      1  0.4841140000000  0.5810780000000  0.4690460000000 1.0
C      1  0.5124130000000  0.3993610000000  0.4835510000000 1.0
C      1  0.3903750000000  0.5257940000000  0.4962630000000 1.0
C      1  0.4919170000000  0.5053500000000  0.4656790000000 1.0
C      1  0.4094750000000  0.5417250000000  0.5274450000000 1.0
C      1  0.4045340000000  0.4960670000000  0.5557890000000 1.0
C      1  0.5941500000000  0.5017720000000  0.4730060000000 1.0
C      1  0.5948370000000  0.5249960000000  0.4964700000000 1.0
C      1  0.5146120000000  0.4878880000000  0.5363260000000 1.0
C      1  0.4280710000000  0.5096470000000  0.5765880000000 1.0
C      1  0.5263330000000  0.4525340000000  0.5965400000000 1.0
C      1  0.4892910000000  0.4205390000000  0.4250620000000 1.0
C      1  0.5015800000000  0.5711830000000  0.5850140000000 1.0
END
