TITL C-2778425-5191-1060 -0.00080385676416073 125000 -847.111342579601 0 0 147 (C1) n - 1
REM
REM in /home/nfs/bkarasulu/CARBON/AIRSS/Generating-Clusters/REBO/Only-C1/SD-CG/HFTN-CG
REM
REM
REM
REM
REM
REM ./C.cell (11c1c37f851c82e70ff6c80c92926a4b)
REM
REM compiler GCC version 9.2.1 20190827 (Red Hat 9.2.1-1)
REM options -cpp -mtune=generic -march=x86-64 -g -O0 -fpre-include=/usr/include/finclude/math-vector-fortran.h
REM seed -402838479 960065227 -1777521004 883289721 1579251942 830685931 -635753316 1662762527 -1473243844 41353476 2130663110 150125447 -135387865 635668860 857392455 665759627 1572054037 371720350 -1518173594 1023518803 -699322709 -1957078982 -1722618315 -172934154 1602172646 1102801113 -17480855 313845197 -657930270 973398361 529576087 104469454 283572261
REM
CELL 1.54180   50.00000   50.00000   50.00000   90.00000   90.00000   90.00000
LATT -1
SFAC C  
C      1  0.4716300000000  0.4778610000000  0.5433480000000 1.0
C      1  0.4600560000000  0.5239850000000  0.4729890000000 1.0
C      1  0.5627720000000  0.4710900000000  0.5175110000000 1.0
C      1  0.4843750000000  0.4487280000000  0.5310260000000 1.0
C      1  0.5206460000000  0.4757250000000  0.4862150000000 1.0
C      1  0.4367530000000  0.5344170000000  0.5643070000000 1.0
C      1  0.5609380000000  0.5039830000000  0.5635230000000 1.0
C      1  0.4906070000000  0.5670910000000  0.5633230000000 1.0
C      1  0.4073610000000  0.4648700000000  0.5382520000000 1.0
C      1  0.4736690000000  0.5155970000000  0.5845350000000 1.0
C      1  0.5788790000000  0.5412960000000  0.5933190000000 1.0
C      1  0.4641900000000  0.5359600000000  0.4979620000000 1.0
C      1  0.4356660000000  0.4460670000000  0.4777740000000 1.0
C      1  0.5537220000000  0.5038120000000  0.4773790000000 1.0
C      1  0.4405980000000  0.4734920000000  0.5345880000000 1.0
C      1  0.4673780000000  0.4701260000000  0.4009200000000 1.0
C      1  0.5046800000000  0.5229490000000  0.4798070000000 1.0
C      1  0.5103090000000  0.4515710000000  0.5852340000000 1.0
C      1  0.5382650000000  0.4321100000000  0.4592010000000 1.0
C      1  0.4537770000000  0.4951490000000  0.4769910000000 1.0
C      1  0.5822380000000  0.5303190000000  0.4864240000000 1.0
C      1  0.5055820000000  0.5989000000000  0.5268980000000 1.0
C      1  0.5154710000000  0.4274060000000  0.4350320000000 1.0
C      1  0.4572100000000  0.5770350000000  0.5349930000000 1.0
C      1  0.5264530000000  0.5395930000000  0.5428950000000 1.0
C      1  0.5185550000000  0.5775660000000  0.4806520000000 1.0
C      1  0.5109120000000  0.5026460000000  0.5005760000000 1.0
C      1  0.4924670000000  0.4296290000000  0.5580180000000 1.0
C      1  0.4484680000000  0.5085710000000  0.4287890000000 1.0
C      1  0.5006000000000  0.4772380000000  0.3989770000000 1.0
C      1  0.5576350000000  0.4685070000000  0.5462360000000 1.0
C      1  0.5117130000000  0.5228300000000  0.5944450000000 1.0
C      1  0.4873960000000  0.5432040000000  0.5104330000000 1.0
C      1  0.4818460000000  0.5162250000000  0.4276430000000 1.0
C      1  0.4953050000000  0.4082350000000  0.4529100000000 1.0
C      1  0.4524480000000  0.5245940000000  0.4005540000000 1.0
C      1  0.4704940000000  0.4870220000000  0.5044990000000 1.0
C      1  0.4686640000000  0.4386300000000  0.4741930000000 1.0
C      1  0.4206980000000  0.4151480000000  0.5165390000000 1.0
C      1  0.4757330000000  0.4849240000000  0.5903530000000 1.0
C      1  0.5798040000000  0.5459330000000  0.5142390000000 1.0
C      1  0.5192820000000  0.4583530000000  0.5500530000000 1.0
C      1  0.5132300000000  0.4537080000000  0.5187760000000 1.0
C      1  0.4328520000000  0.4924830000000  0.5006580000000 1.0
C      1  0.4426660000000  0.4498270000000  0.5662850000000 1.0
C      1  0.4690460000000  0.5450830000000  0.5581080000000 1.0
C      1  0.4745550000000  0.4284360000000  0.4479360000000 1.0
C      1  0.5536590000000  0.4673930000000  0.5802800000000 1.0
C      1  0.4671990000000  0.5113000000000  0.5530350000000 1.0
C      1  0.5110690000000  0.5449090000000  0.4457160000000 1.0
C      1  0.5238440000000  0.5944060000000  0.5057560000000 1.0
C      1  0.5675490000000  0.5518600000000  0.5455400000000 1.0
C      1  0.5722110000000  0.5007170000000  0.4291650000000 1.0
C      1  0.5140450000000  0.5441030000000  0.5124120000000 1.0
C      1  0.5623310000000  0.4810210000000  0.4624530000000 1.0
C      1  0.4358780000000  0.5556560000000  0.5377130000000 1.0
C      1  0.4151590000000  0.4732410000000  0.4783810000000 1.0
C      1  0.5102370000000  0.5800630000000  0.5482830000000 1.0
C      1  0.5261440000000  0.4037240000000  0.5173100000000 1.0
C      1  0.4964310000000  0.4486830000000  0.4172550000000 1.0
C      1  0.5935280000000  0.4483260000000  0.5275530000000 1.0
C      1  0.5415250000000  0.5702570000000  0.5434340000000 1.0
C      1  0.5448690000000  0.4701630000000  0.4430430000000 1.0
C      1  0.4952530000000  0.4377860000000  0.4942020000000 1.0
C      1  0.5281770000000  0.5474830000000  0.4828420000000 1.0
C      1  0.4136700000000  0.5047490000000  0.4679480000000 1.0
C      1  0.4599280000000  0.4271590000000  0.5539200000000 1.0
C      1  0.5640540000000  0.5380720000000  0.4399250000000 1.0
C      1  0.4395750000000  0.5329390000000  0.5160820000000 1.0
C      1  0.4996720000000  0.5069770000000  0.4535660000000 1.0
C      1  0.4745860000000  0.4167400000000  0.5249280000000 1.0
C      1  0.4909250000000  0.5602600000000  0.4229490000000 1.0
C      1  0.5573330000000  0.5763010000000  0.4712260000000 1.0
C      1  0.5110950000000  0.5094110000000  0.5467230000000 1.0
C      1  0.4726400000000  0.5799610000000  0.5159370000000 1.0
C      1  0.5186940000000  0.4600310000000  0.4577880000000 1.0
C      1  0.5078610000000  0.5845350000000  0.4497710000000 1.0
C      1  0.5142570000000  0.5417900000000  0.4062380000000 1.0
C      1  0.5625130000000  0.5349400000000  0.5715350000000 1.0
C      1  0.5287900000000  0.4620960000000  0.3983720000000 1.0
C      1  0.5278810000000  0.4745820000000  0.5921830000000 1.0
C      1  0.5364060000000  0.5654460000000  0.4471500000000 1.0
C      1  0.4644890000000  0.4424430000000  0.4206680000000 1.0
C      1  0.5687740000000  0.4327960000000  0.5321900000000 1.0
C      1  0.4415330000000  0.4507290000000  0.4444420000000 1.0
C      1  0.4870740000000  0.5403430000000  0.6039080000000 1.0
C      1  0.4926220000000  0.4778760000000  0.4577770000000 1.0
C      1  0.5302420000000  0.5355960000000  0.5768880000000 1.0
C      1  0.5477110000000  0.5051870000000  0.4240970000000 1.0
C      1  0.5316140000000  0.4888190000000  0.5550580000000 1.0
C      1  0.5413910000000  0.5031480000000  0.5070470000000 1.0
C      1  0.4625870000000  0.4059110000000  0.4962360000000 1.0
C      1  0.4288540000000  0.5192170000000  0.4484280000000 1.0
C      1  0.4814260000000  0.4598000000000  0.5707930000000 1.0
C      1  0.4007740000000  0.5106350000000  0.5158170000000 1.0
C      1  0.5917840000000  0.4661290000000  0.4986460000000 1.0
C      1  0.5479270000000  0.5842370000000  0.5165730000000 1.0
C      1  0.5646160000000  0.5706430000000  0.4982760000000 1.0
C      1  0.5222260000000  0.5156160000000  0.4324830000000 1.0
C      1  0.5789130000000  0.4598060000000  0.4712060000000 1.0
C      1  0.4032420000000  0.4779760000000  0.5096140000000 1.0
C      1  0.5355450000000  0.6009680000000  0.4622340000000 1.0
C      1  0.4900460000000  0.5504750000000  0.4712090000000 1.0
C      1  0.5925770000000  0.4975140000000  0.4838410000000 1.0
C      1  0.4467110000000  0.5052220000000  0.5281880000000 1.0
C      1  0.5839730000000  0.5190920000000  0.5348660000000 1.0
C      1  0.4307170000000  0.5463770000000  0.4564650000000 1.0
C      1  0.4558520000000  0.5435580000000  0.5904740000000 1.0
C      1  0.4100750000000  0.4974840000000  0.5436690000000 1.0
C      1  0.4791380000000  0.5754460000000  0.4867610000000 1.0
C      1  0.5695180000000  0.4357930000000  0.4611150000000 1.0
C      1  0.4243060000000  0.4375220000000  0.5403950000000 1.0
C      1  0.4512250000000  0.5674290000000  0.4703420000000 1.0
C      1  0.5013050000000  0.5110000000000  0.4008870000000 1.0
C      1  0.4066380000000  0.5234330000000  0.4906320000000 1.0
C      1  0.4781750000000  0.6036830000000  0.4679830000000 1.0
C      1  0.4462450000000  0.4784480000000  0.5742570000000 1.0
C      1  0.5850700000000  0.5155400000000  0.4556430000000 1.0
C      1  0.5900320000000  0.4920300000000  0.5546630000000 1.0
C      1  0.4357940000000  0.4153220000000  0.4930950000000 1.0
C      1  0.5996640000000  0.4675510000000  0.5484990000000 1.0
C      1  0.5495710000000  0.4222700000000  0.5141850000000 1.0
C      1  0.5552700000000  0.4388060000000  0.5614430000000 1.0
C      1  0.4897370000000  0.3982780000000  0.4796580000000 1.0
C      1  0.5283770000000  0.4318990000000  0.4891010000000 1.0
C      1  0.4608320000000  0.5482740000000  0.4168190000000 1.0
C      1  0.4709580000000  0.5025880000000  0.3916920000000 1.0
C      1  0.5750330000000  0.4997350000000  0.5107310000000 1.0
C      1  0.4995020000000  0.4011170000000  0.5093770000000 1.0
C      1  0.4745320000000  0.5781470000000  0.4471980000000 1.0
C      1  0.5359700000000  0.4508970000000  0.4224160000000 1.0
C      1  0.4359070000000  0.4516670000000  0.5113640000000 1.0
C      1  0.4616210000000  0.4759050000000  0.4556500000000 1.0
C      1  0.4375230000000  0.5648780000000  0.5023920000000 1.0
C      1  0.4933040000000  0.5685360000000  0.5910250000000 1.0
C      1  0.4183650000000  0.5488500000000  0.4836140000000 1.0
C      1  0.4480090000000  0.4782560000000  0.4254810000000 1.0
C      1  0.5406900000000  0.4597450000000  0.5035390000000 1.0
C      1  0.5250390000000  0.4286500000000  0.5658990000000 1.0
C      1  0.4689640000000  0.5386130000000  0.4480220000000 1.0
C      1  0.4890580000000  0.4690290000000  0.4890500000000 1.0
C      1  0.5416310000000  0.5477850000000  0.4197940000000 1.0
C      1  0.5495340000000  0.5182220000000  0.5347370000000 1.0
C      1  0.5077720000000  0.4952720000000  0.5959320000000 1.0
C      1  0.4926790000000  0.4985210000000  0.5252400000000 1.0
C      1  0.4296400000000  0.5031730000000  0.5641240000000 1.0
C      1  0.5534910000000  0.5350950000000  0.4702190000000 1.0
END
