TITL C-2778425-5191-1271 0.00194075948399779 125000 -996.121552314782 0 0 172 (C1) n - 1
REM
REM in /home/nfs/bkarasulu/CARBON/AIRSS/Generating-Clusters/REBO/Only-C1/SD-CG/HFTN-CG
REM
REM
REM
REM
REM
REM ./C.cell (11c1c37f851c82e70ff6c80c92926a4b)
REM
REM compiler GCC version 9.2.1 20190827 (Red Hat 9.2.1-1)
REM options -cpp -mtune=generic -march=x86-64 -g -O0 -fpre-include=/usr/include/finclude/math-vector-fortran.h
REM seed -1313999095 -1662487937 -1515994358 -648268122 705842388 657775490 -1296143876 1376894863 -1931036202 833957890 1797260745 1913221248 -1007586817 1732487861 1892895542 -811583941 -1494185086 1017112729 -1158431031 -1000098811 -210556858 737812462 -1618062593 -302668283 816307419 1331540730 -1803346762 1881536867 1752711587 -1261134566 265252019 -2042069580 101386994
REM
CELL 1.54180   50.00000   50.00000   50.00000   90.00000   90.00000   90.00000
LATT -1
SFAC C  
C      1  0.5732750000000  0.5155280000000  0.5801280000000 1.0
C      1  0.5002860000000  0.5824270000000  0.4416200000000 1.0
C      1  0.4868180000000  0.5228430000000  0.4694090000000 1.0
C      1  0.5513530000000  0.5277550000000  0.5268650000000 1.0
C      1  0.4965260000000  0.4180430000000  0.4275470000000 1.0
C      1  0.4218100000000  0.5846400000000  0.4770150000000 1.0
C      1  0.5236690000000  0.4964360000000  0.5508510000000 1.0
C      1  0.5729220000000  0.5535990000000  0.6138830000000 1.0
C      1  0.4127750000000  0.5158950000000  0.5733540000000 1.0
C      1  0.5182750000000  0.4543350000000  0.5912760000000 1.0
C      1  0.5397750000000  0.4394200000000  0.4440280000000 1.0
C      1  0.5429390000000  0.5037830000000  0.4763270000000 1.0
C      1  0.4701700000000  0.4917510000000  0.4880300000000 1.0
C      1  0.4479660000000  0.4124840000000  0.5219280000000 1.0
C      1  0.5911870000000  0.4623830000000  0.5256060000000 1.0
C      1  0.4675810000000  0.5138980000000  0.3847220000000 1.0
C      1  0.5846920000000  0.4289970000000  0.5051950000000 1.0
C      1  0.4993710000000  0.6045550000000  0.5429640000000 1.0
C      1  0.4516450000000  0.5776040000000  0.4744800000000 1.0
C      1  0.4294220000000  0.4937130000000  0.5805570000000 1.0
C      1  0.5689290000000  0.4463200000000  0.4731580000000 1.0
C      1  0.5353050000000  0.4592750000000  0.5426760000000 1.0
C      1  0.4532380000000  0.5438060000000  0.4750470000000 1.0
C      1  0.3907650000000  0.4709280000000  0.4896030000000 1.0
C      1  0.5755700000000  0.5244000000000  0.4419620000000 1.0
C      1  0.5229660000000  0.5549770000000  0.5200030000000 1.0
C      1  0.4900690000000  0.5579520000000  0.5169330000000 1.0
C      1  0.4500770000000  0.4637680000000  0.4113510000000 1.0
C      1  0.5013440000000  0.5288170000000  0.5568080000000 1.0
C      1  0.5272910000000  0.6118460000000  0.5414920000000 1.0
C      1  0.5673140000000  0.5012080000000  0.4183760000000 1.0
C      1  0.5564420000000  0.4188730000000  0.4624740000000 1.0
C      1  0.4827240000000  0.3951660000000  0.4698590000000 1.0
C      1  0.4770980000000  0.4765880000000  0.5922750000000 1.0
C      1  0.4773990000000  0.4538160000000  0.5686530000000 1.0
C      1  0.5493770000000  0.5670890000000  0.5073150000000 1.0
C      1  0.4975950000000  0.5794080000000  0.5598200000000 1.0
C      1  0.5280340000000  0.5724030000000  0.5687120000000 1.0
C      1  0.5637020000000  0.5774810000000  0.5343080000000 1.0
C      1  0.5776250000000  0.4987340000000  0.5345700000000 1.0
C      1  0.5204840000000  0.5549240000000  0.4446840000000 1.0
C      1  0.5173810000000  0.5183910000000  0.4604650000000 1.0
C      1  0.4175510000000  0.4752230000000  0.4309610000000 1.0
C      1  0.5013360000000  0.4747320000000  0.5570260000000 1.0
C      1  0.4951170000000  0.5069180000000  0.5349260000000 1.0
C      1  0.4532370000000  0.5539740000000  0.4243890000000 1.0
C      1  0.4898390000000  0.4436320000000  0.4470140000000 1.0
C      1  0.5270970000000  0.4880390000000  0.3889800000000 1.0
C      1  0.4497680000000  0.4251780000000  0.4425050000000 1.0
C      1  0.4135360000000  0.5264680000000  0.5410220000000 1.0
C      1  0.4398310000000  0.4415380000000  0.5741660000000 1.0
C      1  0.4165490000000  0.5083180000000  0.4392020000000 1.0
C      1  0.5613420000000  0.4520290000000  0.5135900000000 1.0
C      1  0.5158370000000  0.4714860000000  0.5018260000000 1.0
C      1  0.4430610000000  0.5212190000000  0.4579020000000 1.0
C      1  0.4573820000000  0.4788450000000  0.4608110000000 1.0
C      1  0.4093930000000  0.4722030000000  0.5339400000000 1.0
C      1  0.5536220000000  0.5748500000000  0.4546510000000 1.0
C      1  0.4021250000000  0.5443310000000  0.4719010000000 1.0
C      1  0.5747620000000  0.4711880000000  0.5541680000000 1.0
C      1  0.5001150000000  0.4766360000000  0.4002610000000 1.0
C      1  0.4044740000000  0.5455130000000  0.4469460000000 1.0
C      1  0.5878200000000  0.4750170000000  0.4222140000000 1.0
C      1  0.5958100000000  0.5101440000000  0.5084610000000 1.0
C      1  0.4777190000000  0.5583420000000  0.5449180000000 1.0
C      1  0.4525650000000  0.5890560000000  0.5405150000000 1.0
C      1  0.4370300000000  0.4089750000000  0.4903500000000 1.0
C      1  0.5498050000000  0.4983030000000  0.3902620000000 1.0
C      1  0.5116930000000  0.4117830000000  0.5563020000000 1.0
C      1  0.5273630000000  0.4611670000000  0.4249600000000 1.0
C      1  0.4288790000000  0.4242390000000  0.5466350000000 1.0
C      1  0.4830560000000  0.4381760000000  0.4798090000000 1.0
C      1  0.5691340000000  0.4396280000000  0.5505660000000 1.0
C      1  0.4872810000000  0.5626350000000  0.4653400000000 1.0
C      1  0.4475250000000  0.4992230000000  0.5073460000000 1.0
C      1  0.5672000000000  0.5728290000000  0.4802680000000 1.0
C      1  0.4180390000000  0.4467680000000  0.5277600000000 1.0
C      1  0.4749710000000  0.6058850000000  0.5291480000000 1.0
C      1  0.4816400000000  0.4972280000000  0.4500320000000 1.0
C      1  0.5030160000000  0.4522120000000  0.5343260000000 1.0
C      1  0.4584020000000  0.5355940000000  0.5609810000000 1.0
C      1  0.5282720000000  0.5008420000000  0.5903020000000 1.0
C      1  0.5230960000000  0.4594230000000  0.4646890000000 1.0
C      1  0.5966920000000  0.5402920000000  0.5086950000000 1.0
C      1  0.4973780000000  0.4742780000000  0.4342730000000 1.0
C      1  0.5264080000000  0.4110480000000  0.4348510000000 1.0
C      1  0.5403330000000  0.5216110000000  0.5583880000000 1.0
C      1  0.5777880000000  0.5480600000000  0.5323020000000 1.0
C      1  0.4764290000000  0.4384920000000  0.5317920000000 1.0
C      1  0.4394430000000  0.4921190000000  0.4110930000000 1.0
C      1  0.4493780000000  0.5739300000000  0.5679430000000 1.0
C      1  0.4602950000000  0.5341200000000  0.5275230000000 1.0
C      1  0.5723990000000  0.5159020000000  0.4747400000000 1.0
C      1  0.4281360000000  0.4431900000000  0.4254110000000 1.0
C      1  0.4539140000000  0.5137220000000  0.4265030000000 1.0
C      1  0.5133640000000  0.5277130000000  0.5039250000000 1.0
C      1  0.5935100000000  0.4959250000000  0.4480410000000 1.0
C      1  0.4162370000000  0.5067300000000  0.4732430000000 1.0
C      1  0.5802300000000  0.5231870000000  0.5537200000000 1.0
C      1  0.4465220000000  0.4699430000000  0.5881410000000 1.0
C      1  0.5090700000000  0.5531210000000  0.4828370000000 1.0
C      1  0.5574630000000  0.4206520000000  0.5245560000000 1.0
C      1  0.5450930000000  0.4627190000000  0.4907560000000 1.0
C      1  0.4763400000000  0.5707560000000  0.5828400000000 1.0
C      1  0.4717100000000  0.4903430000000  0.5504300000000 1.0
C      1  0.5576320000000  0.4872140000000  0.5791650000000 1.0
C      1  0.4623280000000  0.4371900000000  0.5022250000000 1.0
C      1  0.6219120000000  0.5536400000000  0.4900330000000 1.0
C      1  0.4930560000000  0.4038270000000  0.5207960000000 1.0
C      1  0.4932840000000  0.4689070000000  0.4776920000000 1.0
C      1  0.5038330000000  0.4193420000000  0.4934020000000 1.0
C      1  0.4482190000000  0.4808660000000  0.5305130000000 1.0
C      1  0.5137950000000  0.3965470000000  0.4736200000000 1.0
C      1  0.4750270000000  0.5354260000000  0.4969040000000 1.0
C      1  0.4289360000000  0.5425310000000  0.5739910000000 1.0
C      1  0.4286320000000  0.4407550000000  0.4992050000000 1.0
C      1  0.5384070000000  0.4291000000000  0.5586360000000 1.0
C      1  0.4871950000000  0.5110730000000  0.4193900000000 1.0
C      1  0.5372000000000  0.4917390000000  0.4274850000000 1.0
C      1  0.4258530000000  0.5532600000000  0.4928650000000 1.0
C      1  0.4685770000000  0.3981580000000  0.4976640000000 1.0
C      1  0.4919890000000  0.5342340000000  0.5826690000000 1.0
C      1  0.4621070000000  0.4566210000000  0.4405420000000 1.0
C      1  0.5927900000000  0.5636300000000  0.4842700000000 1.0
C      1  0.4724730000000  0.4076720000000  0.4462700000000 1.0
C      1  0.5208200000000  0.4392170000000  0.5113880000000 1.0
C      1  0.5580020000000  0.5367530000000  0.4944370000000 1.0
C      1  0.5338340000000  0.5419380000000  0.4169970000000 1.0
C      1  0.4573730000000  0.5047750000000  0.5719600000000 1.0
C      1  0.5367890000000  0.5429460000000  0.4716380000000 1.0
C      1  0.4784630000000  0.5414010000000  0.4430150000000 1.0
C      1  0.4736940000000  0.5185830000000  0.5937870000000 1.0
C      1  0.4273630000000  0.4775350000000  0.4618710000000 1.0
C      1  0.5249520000000  0.5484300000000  0.5490210000000 1.0
C      1  0.4397510000000  0.5714260000000  0.5164180000000 1.0
C      1  0.5180050000000  0.5145810000000  0.4293230000000 1.0
C      1  0.4293700000000  0.5569570000000  0.5439030000000 1.0
C      1  0.5007510000000  0.4347610000000  0.5778830000000 1.0
C      1  0.4739980000000  0.5390810000000  0.4034480000000 1.0
C      1  0.5615630000000  0.5355740000000  0.5966380000000 1.0
C      1  0.5212920000000  0.6006730000000  0.4822030000000 1.0
C      1  0.5075840000000  0.5593870000000  0.5926900000000 1.0
C      1  0.5367910000000  0.5050900000000  0.5058980000000 1.0
C      1  0.5289220000000  0.5918190000000  0.4565390000000 1.0
C      1  0.4765480000000  0.4907610000000  0.3866290000000 1.0
C      1  0.5940730000000  0.4904330000000  0.4816330000000 1.0
C      1  0.4052990000000  0.4991940000000  0.5241790000000 1.0
C      1  0.5416130000000  0.3969660000000  0.4690270000000 1.0
C      1  0.5437500000000  0.4580830000000  0.5752750000000 1.0
C      1  0.4793450000000  0.4114250000000  0.5491860000000 1.0
C      1  0.5002730000000  0.5828330000000  0.4972290000000 1.0
C      1  0.6105660000000  0.4841330000000  0.5175130000000 1.0
C      1  0.4668640000000  0.5869480000000  0.5021850000000 1.0
C      1  0.5266260000000  0.4099370000000  0.5257300000000 1.0
C      1  0.5933990000000  0.4594170000000  0.4913280000000 1.0
C      1  0.4265530000000  0.5381800000000  0.4260430000000 1.0
C      1  0.5440590000000  0.4810250000000  0.4553890000000 1.0
C      1  0.4319780000000  0.5270220000000  0.5136780000000 1.0
C      1  0.5024820000000  0.4441670000000  0.4091080000000 1.0
C      1  0.5724600000000  0.4693060000000  0.4520910000000 1.0
C      1  0.5006510000000  0.5486170000000  0.4180020000000 1.0
C      1  0.4975370000000  0.4981420000000  0.5045120000000 1.0
C      1  0.5470680000000  0.4865630000000  0.5298260000000 1.0
C      1  0.5591760000000  0.5513540000000  0.4364180000000 1.0
C      1  0.4131010000000  0.4572740000000  0.4796240000000 1.0
C      1  0.5312070000000  0.5347550000000  0.5888580000000 1.0
C      1  0.4661700000000  0.5790180000000  0.4437210000000 1.0
C      1  0.5457970000000  0.5915850000000  0.5519140000000 1.0
C      1  0.5067430000000  0.4811680000000  0.5961040000000 1.0
C      1  0.4541700000000  0.4118520000000  0.5654030000000 1.0
C      1  0.3981240000000  0.4984040000000  0.4967330000000 1.0
C      1  0.4541960000000  0.4548870000000  0.5465590000000 1.0
END
