TITL C-2778437-8639-1152 0.00573900668555579 125000 -905.855828053158 0 0 156 (C1) n - 1
REM
REM in /home/nfs/bkarasulu/CARBON/AIRSS/Generating-Clusters/REBO/Only-C1/SD-CG/HFTN-CG
REM
REM
REM
REM
REM
REM ./C.cell (11c1c37f851c82e70ff6c80c92926a4b)
REM
REM compiler GCC version 9.2.1 20190827 (Red Hat 9.2.1-1)
REM options -cpp -mtune=generic -march=x86-64 -g -O0 -fpre-include=/usr/include/finclude/math-vector-fortran.h
REM seed -234721760 -654876440 358871308 442529169 -1643824327 1890761679 -249948782 -68301997 -1358496365 -2059769127 -2029663699 911990112 411741448 -124656496 -1772562034 -1064743740 -1774121581 -1032797519 773396123 -534835219 442739786 -958399701 -1982348422 -135462904 1094427450 -977256542 -712562506 -584784578 -475073358 -1533862479 2087171468 -2063845756 1997427938
REM
CELL 1.54180   50.00000   50.00000   50.00000   90.00000   90.00000   90.00000
LATT -1
SFAC C  
C      1  0.4503200000000  0.4435120000000  0.5126840000000 1.0
C      1  0.5101020000000  0.4760650000000  0.6049280000000 1.0
C      1  0.5022940000000  0.5893660000000  0.5268150000000 1.0
C      1  0.5066960000000  0.5009460000000  0.4600400000000 1.0
C      1  0.4126750000000  0.4638740000000  0.4847230000000 1.0
C      1  0.5838880000000  0.4383540000000  0.5206180000000 1.0
C      1  0.5625430000000  0.4778280000000  0.5876640000000 1.0
C      1  0.4051820000000  0.5287230000000  0.5239570000000 1.0
C      1  0.4824080000000  0.5723250000000  0.4454080000000 1.0
C      1  0.4209530000000  0.4435940000000  0.4383230000000 1.0
C      1  0.5170990000000  0.4186780000000  0.4794050000000 1.0
C      1  0.4994050000000  0.5643900000000  0.4225870000000 1.0
C      1  0.5163770000000  0.5269190000000  0.3967450000000 1.0
C      1  0.4198380000000  0.4775330000000  0.5725230000000 1.0
C      1  0.4665280000000  0.5463250000000  0.5827920000000 1.0
C      1  0.4203070000000  0.4704200000000  0.5448050000000 1.0
C      1  0.4691420000000  0.3944640000000  0.5090910000000 1.0
C      1  0.5532330000000  0.5763730000000  0.5340970000000 1.0
C      1  0.5497730000000  0.4583880000000  0.4138300000000 1.0
C      1  0.4918970000000  0.4688650000000  0.5322620000000 1.0
C      1  0.5187630000000  0.5272180000000  0.5189250000000 1.0
C      1  0.3904980000000  0.4818150000000  0.5028410000000 1.0
C      1  0.5142220000000  0.4593890000000  0.5753580000000 1.0
C      1  0.4707520000000  0.5601450000000  0.5050800000000 1.0
C      1  0.4601480000000  0.5139210000000  0.5038880000000 1.0
C      1  0.5964620000000  0.5443190000000  0.5040900000000 1.0
C      1  0.5515020000000  0.4994480000000  0.5420670000000 1.0
C      1  0.5757930000000  0.4655120000000  0.5399960000000 1.0
C      1  0.6026720000000  0.4901030000000  0.5031310000000 1.0
C      1  0.4090880000000  0.5000670000000  0.4436670000000 1.0
C      1  0.5287640000000  0.5641050000000  0.4319070000000 1.0
C      1  0.4909850000000  0.4108950000000  0.4621460000000 1.0
C      1  0.4549260000000  0.4917970000000  0.5940320000000 1.0
C      1  0.4680760000000  0.4173000000000  0.5646740000000 1.0
C      1  0.4144480000000  0.5166490000000  0.4796000000000 1.0
C      1  0.5971380000000  0.5066420000000  0.4665740000000 1.0
C      1  0.5477920000000  0.5241650000000  0.4085390000000 1.0
C      1  0.4521390000000  0.4711590000000  0.5329410000000 1.0
C      1  0.4858640000000  0.4647540000000  0.5619030000000 1.0
C      1  0.5477210000000  0.4899570000000  0.4119800000000 1.0
C      1  0.4654760000000  0.4023840000000  0.4815750000000 1.0
C      1  0.5335180000000  0.5410110000000  0.4639730000000 1.0
C      1  0.5191280000000  0.5275020000000  0.4871600000000 1.0
C      1  0.5169150000000  0.4881250000000  0.5261650000000 1.0
C      1  0.5690140000000  0.5499250000000  0.5972710000000 1.0
C      1  0.5012120000000  0.4694070000000  0.4172550000000 1.0
C      1  0.4992720000000  0.3850360000000  0.5120060000000 1.0
C      1  0.5420680000000  0.4008120000000  0.5409900000000 1.0
C      1  0.4412940000000  0.5308250000000  0.4875660000000 1.0
C      1  0.5888190000000  0.5364090000000  0.5352180000000 1.0
C      1  0.5711120000000  0.5583610000000  0.4571380000000 1.0
C      1  0.4444180000000  0.5242720000000  0.5941790000000 1.0
C      1  0.4295860000000  0.5672560000000  0.4421510000000 1.0
C      1  0.5621000000000  0.4443080000000  0.4422330000000 1.0
C      1  0.4275550000000  0.5040610000000  0.5247680000000 1.0
C      1  0.5117930000000  0.4045330000000  0.5444230000000 1.0
C      1  0.5321720000000  0.5745280000000  0.4618140000000 1.0
C      1  0.4782420000000  0.4360600000000  0.4431050000000 1.0
C      1  0.5933820000000  0.4885340000000  0.4472210000000 1.0
C      1  0.3982280000000  0.4843470000000  0.4625140000000 1.0
C      1  0.3944930000000  0.5089860000000  0.5028240000000 1.0
C      1  0.4532920000000  0.5739780000000  0.4377770000000 1.0
C      1  0.5232550000000  0.4582890000000  0.4333030000000 1.0
C      1  0.5610470000000  0.5094530000000  0.4365810000000 1.0
C      1  0.4398050000000  0.5224960000000  0.4118310000000 1.0
C      1  0.4725290000000  0.5094400000000  0.5702070000000 1.0
C      1  0.5943050000000  0.4636870000000  0.5037070000000 1.0
C      1  0.5677810000000  0.4291740000000  0.4721630000000 1.0
C      1  0.5591920000000  0.5839040000000  0.5059130000000 1.0
C      1  0.5486230000000  0.4489910000000  0.5361030000000 1.0
C      1  0.4680000000000  0.5008910000000  0.5315510000000 1.0
C      1  0.5248250000000  0.3962890000000  0.4979870000000 1.0
C      1  0.4934580000000  0.5267290000000  0.5907250000000 1.0
C      1  0.4222160000000  0.5664680000000  0.4863080000000 1.0
C      1  0.5072880000000  0.5627370000000  0.5560990000000 1.0
C      1  0.4793560000000  0.4350150000000  0.4998170000000 1.0
C      1  0.4399640000000  0.4623390000000  0.5889250000000 1.0
C      1  0.4747310000000  0.5906530000000  0.4898650000000 1.0
C      1  0.4979270000000  0.4119570000000  0.5697390000000 1.0
C      1  0.4446880000000  0.5335400000000  0.5273430000000 1.0
C      1  0.4982460000000  0.5914930000000  0.4661950000000 1.0
C      1  0.4488110000000  0.5779580000000  0.4772310000000 1.0
C      1  0.4783060000000  0.5908160000000  0.5462550000000 1.0
C      1  0.6089300000000  0.5213190000000  0.4913620000000 1.0
C      1  0.5053430000000  0.4966870000000  0.3980380000000 1.0
C      1  0.5173360000000  0.5320490000000  0.4374010000000 1.0
C      1  0.4823190000000  0.4769450000000  0.5909860000000 1.0
C      1  0.5613480000000  0.4848320000000  0.5158640000000 1.0
C      1  0.4939580000000  0.5443260000000  0.4034340000000 1.0
C      1  0.5638870000000  0.4767180000000  0.4459500000000 1.0
C      1  0.5311940000000  0.4810460000000  0.5564760000000 1.0
C      1  0.5268200000000  0.5219400000000  0.5860010000000 1.0
C      1  0.5112500000000  0.4466470000000  0.4958010000000 1.0
C      1  0.4433080000000  0.5039330000000  0.5539580000000 1.0
C      1  0.4132760000000  0.5468440000000  0.4639640000000 1.0
C      1  0.5340090000000  0.5956210000000  0.4874370000000 1.0
C      1  0.4991960000000  0.4177170000000  0.5198870000000 1.0
C      1  0.5414520000000  0.5289570000000  0.5411370000000 1.0
C      1  0.4646320000000  0.4457180000000  0.5494620000000 1.0
C      1  0.5793180000000  0.4833910000000  0.5654410000000 1.0
C      1  0.5509460000000  0.4827040000000  0.4835510000000 1.0
C      1  0.5212850000000  0.4311430000000  0.5727220000000 1.0
C      1  0.4687400000000  0.5307140000000  0.4051770000000 1.0
C      1  0.5705370000000  0.5096580000000  0.4860660000000 1.0
C      1  0.4457790000000  0.5740190000000  0.5173460000000 1.0
C      1  0.5617850000000  0.5269070000000  0.4607700000000 1.0
C      1  0.5143290000000  0.5324330000000  0.5579440000000 1.0
C      1  0.5110320000000  0.4971120000000  0.4937720000000 1.0
C      1  0.4286220000000  0.5273880000000  0.4437740000000 1.0
C      1  0.4194010000000  0.4525530000000  0.5205450000000 1.0
C      1  0.4608960000000  0.4167750000000  0.5311070000000 1.0
C      1  0.4960840000000  0.5115020000000  0.5381120000000 1.0
C      1  0.5394480000000  0.4245430000000  0.4568400000000 1.0
C      1  0.5621790000000  0.5884290000000  0.4696000000000 1.0
C      1  0.4800410000000  0.4873690000000  0.4485320000000 1.0
C      1  0.4909930000000  0.5563870000000  0.4774870000000 1.0
C      1  0.5699650000000  0.4185660000000  0.5041430000000 1.0
C      1  0.5491230000000  0.4006080000000  0.5129600000000 1.0
C      1  0.4918580000000  0.5321010000000  0.4583590000000 1.0
C      1  0.4500220000000  0.4372510000000  0.5855340000000 1.0
C      1  0.4801880000000  0.5721460000000  0.5700600000000 1.0
C      1  0.5582090000000  0.5311880000000  0.5820850000000 1.0
C      1  0.4903380000000  0.4732690000000  0.5004060000000 1.0
C      1  0.5204790000000  0.5027180000000  0.4279110000000 1.0
C      1  0.4423610000000  0.4683020000000  0.4323950000000 1.0
C      1  0.4570570000000  0.4730010000000  0.4628890000000 1.0
C      1  0.4529710000000  0.5483100000000  0.4683790000000 1.0
C      1  0.5619470000000  0.5507350000000  0.5417020000000 1.0
C      1  0.4756170000000  0.4800310000000  0.3978880000000 1.0
C      1  0.4894870000000  0.5517070000000  0.5305530000000 1.0
C      1  0.5708950000000  0.5563970000000  0.4910980000000 1.0
C      1  0.4703800000000  0.4577970000000  0.4234210000000 1.0
C      1  0.4669480000000  0.5364850000000  0.5497670000000 1.0
C      1  0.4291320000000  0.4901400000000  0.4966740000000 1.0
C      1  0.4220400000000  0.5077170000000  0.5780910000000 1.0
C      1  0.5396370000000  0.4516850000000  0.5089530000000 1.0
C      1  0.5748560000000  0.5162410000000  0.5589070000000 1.0
C      1  0.5812910000000  0.5105680000000  0.5180120000000 1.0
C      1  0.5565030000000  0.5489650000000  0.4278900000000 1.0
C      1  0.5330930000000  0.4916050000000  0.5887510000000 1.0
C      1  0.5658440000000  0.4553890000000  0.4894820000000 1.0
C      1  0.4720110000000  0.5020760000000  0.4224510000000 1.0
C      1  0.4622060000000  0.4834060000000  0.4916110000000 1.0
C      1  0.5404150000000  0.5488930000000  0.5025740000000 1.0
C      1  0.5286160000000  0.5835820000000  0.5445230000000 1.0
C      1  0.5321650000000  0.4784100000000  0.4581120000000 1.0
C      1  0.5428470000000  0.4275730000000  0.5544090000000 1.0
C      1  0.5109680000000  0.4305350000000  0.4420770000000 1.0
C      1  0.4527290000000  0.5935580000000  0.5347390000000 1.0
C      1  0.5099680000000  0.5633960000000  0.5052890000000 1.0
C      1  0.4627580000000  0.5267950000000  0.4442480000000 1.0
C      1  0.5057620000000  0.6023140000000  0.4976290000000 1.0
C      1  0.4297680000000  0.4942250000000  0.4220870000000 1.0
C      1  0.4330570000000  0.4493810000000  0.4663350000000 1.0
C      1  0.4206760000000  0.5551350000000  0.5163380000000 1.0
C      1  0.4602820000000  0.4341880000000  0.4715110000000 1.0
END
