TITL C-2778423-5760-1456 -0.000478614583109619 125000 -686.300343705389 0 0 117 (C1) n - 1
REM
REM in /home/nfs/bkarasulu/CARBON/AIRSS/Generating-Clusters/REBO/Only-C1/SD-CG/HFTN-CG
REM
REM
REM
REM
REM
REM ./C.cell (11c1c37f851c82e70ff6c80c92926a4b)
REM
REM compiler GCC version 9.2.1 20190827 (Red Hat 9.2.1-1)
REM options -cpp -mtune=generic -march=x86-64 -g -O0 -fpre-include=/usr/include/finclude/math-vector-fortran.h
REM seed -397099606 -316119268 145957970 1451119410 -699834938 636943462 1173361612 -758613895 -144094414 776170316 -2071005459 779245318 1027088680 1932480504 -492968839 -555063439 -2084777181 1107803527 -973450692 -1338183424 -2059377626 -1390157010 367041261 198999505 1615253607 994679460 -1866257276 -236126853 -1573958804 -1889923695 1304962392 -1516930526 -1598540362
REM
CELL 1.54180   50.00000   50.00000   50.00000   90.00000   90.00000   90.00000
LATT -1
SFAC C  
C      1  0.4409310000000  0.5115050000000  0.4270790000000 1.0
C      1  0.5527530000000  0.5200680000000  0.4940930000000 1.0
C      1  0.5228990000000  0.4853410000000  0.5883240000000 1.0
C      1  0.5673590000000  0.5158280000000  0.5506750000000 1.0
C      1  0.5487100000000  0.4235340000000  0.5146080000000 1.0
C      1  0.4519870000000  0.5749760000000  0.4970960000000 1.0
C      1  0.5291960000000  0.5179220000000  0.4708220000000 1.0
C      1  0.4746660000000  0.5465930000000  0.4257000000000 1.0
C      1  0.5495370000000  0.4902870000000  0.4913780000000 1.0
C      1  0.4889040000000  0.4438040000000  0.4173630000000 1.0
C      1  0.5380660000000  0.4408150000000  0.5648850000000 1.0
C      1  0.4606780000000  0.4434890000000  0.5631650000000 1.0
C      1  0.5225500000000  0.4828970000000  0.4882380000000 1.0
C      1  0.4718300000000  0.4607390000000  0.4752600000000 1.0
C      1  0.5205230000000  0.5392210000000  0.5080130000000 1.0
C      1  0.4917310000000  0.5434180000000  0.4993970000000 1.0
C      1  0.4027490000000  0.5633990000000  0.5468480000000 1.0
C      1  0.4217120000000  0.4584960000000  0.4761790000000 1.0
C      1  0.4251580000000  0.5478080000000  0.5348420000000 1.0
C      1  0.4676330000000  0.5908910000000  0.5121300000000 1.0
C      1  0.4164120000000  0.4736410000000  0.5004160000000 1.0
C      1  0.4544330000000  0.5333070000000  0.4696060000000 1.0
C      1  0.4430660000000  0.4914220000000  0.5464080000000 1.0
C      1  0.4387240000000  0.4531810000000  0.4273560000000 1.0
C      1  0.5185360000000  0.5446140000000  0.4560300000000 1.0
C      1  0.5722020000000  0.5656550000000  0.5391750000000 1.0
C      1  0.4636000000000  0.4393980000000  0.4313530000000 1.0
C      1  0.5496240000000  0.4929250000000  0.5686780000000 1.0
C      1  0.5455640000000  0.5513700000000  0.5753390000000 1.0
C      1  0.5595160000000  0.5358440000000  0.5160390000000 1.0
C      1  0.5382280000000  0.5196140000000  0.4107800000000 1.0
C      1  0.4218830000000  0.5372080000000  0.5047200000000 1.0
C      1  0.4201590000000  0.4631560000000  0.5300630000000 1.0
C      1  0.4257980000000  0.4681240000000  0.4483980000000 1.0
C      1  0.5734440000000  0.4703080000000  0.4613490000000 1.0
C      1  0.4081690000000  0.4931990000000  0.5341680000000 1.0
C      1  0.5667940000000  0.5453860000000  0.5589610000000 1.0
C      1  0.5020020000000  0.5068840000000  0.4833560000000 1.0
C      1  0.4788380000000  0.4304650000000  0.5452470000000 1.0
C      1  0.5481610000000  0.5467120000000  0.4507030000000 1.0
C      1  0.5904380000000  0.4567630000000  0.5159890000000 1.0
C      1  0.4981430000000  0.4745720000000  0.4137020000000 1.0
C      1  0.5054350000000  0.4338170000000  0.4638570000000 1.0
C      1  0.5174180000000  0.5458920000000  0.5607070000000 1.0
C      1  0.5397770000000  0.5626920000000  0.4943240000000 1.0
C      1  0.4898040000000  0.5179980000000  0.5668890000000 1.0
C      1  0.5771830000000  0.5029580000000  0.4576260000000 1.0
C      1  0.4361530000000  0.4512120000000  0.5501070000000 1.0
C      1  0.4939840000000  0.4635080000000  0.4515170000000 1.0
C      1  0.5144520000000  0.4526190000000  0.4889990000000 1.0
C      1  0.5486150000000  0.4731120000000  0.5289250000000 1.0
C      1  0.5598980000000  0.5555160000000  0.4747050000000 1.0
C      1  0.4795690000000  0.5064180000000  0.5405490000000 1.0
C      1  0.5709140000000  0.4653490000000  0.4934350000000 1.0
C      1  0.5956210000000  0.5050510000000  0.5069430000000 1.0
C      1  0.5352850000000  0.5513880000000  0.5342280000000 1.0
C      1  0.5002150000000  0.4897970000000  0.5223520000000 1.0
C      1  0.5444560000000  0.5820250000000  0.5302070000000 1.0
C      1  0.5430690000000  0.4531760000000  0.5053080000000 1.0
C      1  0.5244480000000  0.4135880000000  0.5265750000000 1.0
C      1  0.4658370000000  0.4346070000000  0.4595890000000 1.0
C      1  0.5886520000000  0.4988300000000  0.5339970000000 1.0
C      1  0.4943200000000  0.5020330000000  0.5948150000000 1.0
C      1  0.5160470000000  0.5998150000000  0.5268310000000 1.0
C      1  0.4845760000000  0.5495870000000  0.5628740000000 1.0
C      1  0.5460590000000  0.5009260000000  0.5297290000000 1.0
C      1  0.4800700000000  0.4096420000000  0.5013230000000 1.0
C      1  0.5190940000000  0.4541010000000  0.4312450000000 1.0
C      1  0.4546280000000  0.5493280000000  0.5503730000000 1.0
C      1  0.4131570000000  0.5088480000000  0.4705010000000 1.0
C      1  0.4329300000000  0.5328960000000  0.5708720000000 1.0
C      1  0.4384910000000  0.5173990000000  0.5257270000000 1.0
C      1  0.4749120000000  0.4561690000000  0.5848640000000 1.0
C      1  0.5440000000000  0.4628900000000  0.4448830000000 1.0
C      1  0.5018240000000  0.5872190000000  0.4606660000000 1.0
C      1  0.5115320000000  0.4330240000000  0.5470510000000 1.0
C      1  0.4075230000000  0.5064050000000  0.5031250000000 1.0
C      1  0.5333350000000  0.5929440000000  0.4996590000000 1.0
C      1  0.4994540000000  0.4668110000000  0.5772390000000 1.0
C      1  0.5440740000000  0.4951670000000  0.4520750000000 1.0
C      1  0.4446040000000  0.5032310000000  0.4778640000000 1.0
C      1  0.5497430000000  0.4204950000000  0.4833060000000 1.0
C      1  0.5120500000000  0.5217350000000  0.4039950000000 1.0
C      1  0.4936670000000  0.5568540000000  0.4732910000000 1.0
C      1  0.5234080000000  0.5145220000000  0.5708470000000 1.0
C      1  0.4735050000000  0.5360010000000  0.5271480000000 1.0
C      1  0.4993100000000  0.4647990000000  0.5456630000000 1.0
C      1  0.4798260000000  0.5126880000000  0.4619130000000 1.0
C      1  0.5585480000000  0.4399170000000  0.4653420000000 1.0
C      1  0.4894670000000  0.6000580000000  0.5251080000000 1.0
C      1  0.4839180000000  0.4922920000000  0.4357990000000 1.0
C      1  0.4233180000000  0.4964230000000  0.4447300000000 1.0
C      1  0.5085630000000  0.4040110000000  0.5047720000000 1.0
C      1  0.4613290000000  0.5064370000000  0.4059830000000 1.0
C      1  0.4246710000000  0.4313400000000  0.4796120000000 1.0
C      1  0.5863000000000  0.5534450000000  0.5152050000000 1.0
C      1  0.4674160000000  0.4747580000000  0.5391590000000 1.0
C      1  0.4750460000000  0.5137230000000  0.5015920000000 1.0
C      1  0.4685080000000  0.4291640000000  0.5184990000000 1.0
C      1  0.5869390000000  0.4708380000000  0.5395510000000 1.0
C      1  0.4579490000000  0.4592120000000  0.5123960000000 1.0
C      1  0.5592390000000  0.4632050000000  0.5574380000000 1.0
C      1  0.5840620000000  0.5451790000000  0.4858820000000 1.0
C      1  0.4886960000000  0.5653590000000  0.4407570000000 1.0
C      1  0.4841200000000  0.5255920000000  0.4071460000000 1.0
C      1  0.5224710000000  0.5097040000000  0.5178880000000 1.0
C      1  0.4409190000000  0.5525050000000  0.4872350000000 1.0
C      1  0.5222130000000  0.4111590000000  0.4795680000000 1.0
C      1  0.5575220000000  0.5213060000000  0.4364460000000 1.0
C      1  0.4511860000000  0.4922330000000  0.5071060000000 1.0
C      1  0.4610630000000  0.4847230000000  0.4592610000000 1.0
C      1  0.4210000000000  0.5101890000000  0.5607840000000 1.0
C      1  0.4799090000000  0.4128290000000  0.4724430000000 1.0
C      1  0.4886340000000  0.4679080000000  0.5026730000000 1.0
C      1  0.5905800000000  0.5174960000000  0.4816510000000 1.0
C      1  0.4513310000000  0.5361200000000  0.4390330000000 1.0
C      1  0.5188530000000  0.6030170000000  0.4742880000000 1.0
END
