TITL C-2778434-4341-249 0.132596495890798 125000 -471.73385470941 0 0 79 (C1) n - 1
REM
REM in /home/nfs/bkarasulu/CARBON/AIRSS/Generating-Clusters/REBO/Only-C1/SD-CG/HFTN-CG
REM
REM
REM
REM
REM
REM ./C.cell (11c1c37f851c82e70ff6c80c92926a4b)
REM
REM compiler GCC version 9.2.1 20190827 (Red Hat 9.2.1-1)
REM options -cpp -mtune=generic -march=x86-64 -g -O0 -fpre-include=/usr/include/finclude/math-vector-fortran.h
REM seed 1533017455 1048676600 358281342 -1501746820 -64037348 893194104 -1489602791 -384884465 -1704097529 575616097 -630490591 1966924575 -135496799 1781097477 -690618532 1965054144 1854077719 -790946758 -1388627863 225868734 -658946073 -1558743927 635059001 1836535040 -1523937445 -1438240280 -373433968 187138082 -447958270 -1923427582 -1042513519 -923444387 -2012208439
REM
CELL 1.54180   50.00000   50.00000   50.00000   90.00000   90.00000   90.00000
LATT -1
SFAC C  
C      1  0.5320650000000  0.5515450000000  0.4837270000000 1.0
C      1  0.4793410000000  0.5588780000000  0.5358360000000 1.0
C      1  0.5295840000000  0.5099240000000  0.4258740000000 1.0
C      1  0.5685980000000  0.5014250000000  0.4555210000000 1.0
C      1  0.5199960000000  0.5085130000000  0.4688040000000 1.0
C      1  0.4251500000000  0.4653110000000  0.5103220000000 1.0
C      1  0.5264100000000  0.5574190000000  0.5620730000000 1.0
C      1  0.4901630000000  0.4743600000000  0.4267280000000 1.0
C      1  0.4522000000000  0.4586430000000  0.5263620000000 1.0
C      1  0.4325080000000  0.5354390000000  0.4806750000000 1.0
C      1  0.4409550000000  0.5392560000000  0.5437370000000 1.0
C      1  0.5296690000000  0.5363470000000  0.4359300000000 1.0
C      1  0.5183980000000  0.4780400000000  0.5714430000000 1.0
C      1  0.4881890000000  0.5539230000000  0.4582260000000 1.0
C      1  0.5682290000000  0.5279340000000  0.5105370000000 1.0
C      1  0.4760390000000  0.5812570000000  0.5104150000000 1.0
C      1  0.5047090000000  0.4975700000000  0.4182180000000 1.0
C      1  0.4913300000000  0.4687560000000  0.5686770000000 1.0
C      1  0.5199860000000  0.5509840000000  0.4570660000000 1.0
C      1  0.4375390000000  0.5095730000000  0.4876420000000 1.0
C      1  0.5236500000000  0.5817200000000  0.5502600000000 1.0
C      1  0.5574570000000  0.5099770000000  0.5618330000000 1.0
C      1  0.5258190000000  0.5108730000000  0.5747330000000 1.0
C      1  0.5379100000000  0.4625180000000  0.4396850000000 1.0
C      1  0.5318690000000  0.5329700000000  0.5419750000000 1.0
C      1  0.4802550000000  0.5379150000000  0.5018870000000 1.0
C      1  0.5608700000000  0.4985330000000  0.5026150000000 1.0
C      1  0.4751710000000  0.5709300000000  0.4807510000000 1.0
C      1  0.5627120000000  0.5295210000000  0.5384260000000 1.0
C      1  0.5500220000000  0.4415340000000  0.5004650000000 1.0
C      1  0.5044330000000  0.5808830000000  0.5271650000000 1.0
C      1  0.5261280000000  0.4315280000000  0.4793840000000 1.0
C      1  0.4669160000000  0.4845670000000  0.5668200000000 1.0
C      1  0.4531010000000  0.5031850000000  0.4433280000000 1.0
C      1  0.4805390000000  0.4253170000000  0.5044040000000 1.0
C      1  0.5498490000000  0.4921320000000  0.4356560000000 1.0
C      1  0.4945990000000  0.5212230000000  0.4650930000000 1.0
C      1  0.5013660000000  0.4770120000000  0.5309640000000 1.0
C      1  0.4601650000000  0.5155250000000  0.5597830000000 1.0
C      1  0.5421450000000  0.4411380000000  0.5275850000000 1.0
C      1  0.5076670000000  0.5580460000000  0.5038350000000 1.0
C      1  0.5197550000000  0.4493730000000  0.5423580000000 1.0
C      1  0.4453870000000  0.4685970000000  0.5559880000000 1.0
C      1  0.5213730000000  0.4810950000000  0.4612880000000 1.0
C      1  0.4218830000000  0.4871030000000  0.4860220000000 1.0
C      1  0.4632710000000  0.4745860000000  0.4383810000000 1.0
C      1  0.5711550000000  0.5296620000000  0.4618600000000 1.0
C      1  0.5174470000000  0.5299870000000  0.5141080000000 1.0
C      1  0.5097830000000  0.5066770000000  0.5453230000000 1.0
C      1  0.5343170000000  0.5154640000000  0.4933920000000 1.0
C      1  0.4509420000000  0.5541360000000  0.4960930000000 1.0
C      1  0.4735560000000  0.4369990000000  0.5289750000000 1.0
C      1  0.4376050000000  0.5212640000000  0.4313690000000 1.0
C      1  0.4237470000000  0.4830620000000  0.5393680000000 1.0
C      1  0.5618160000000  0.5432370000000  0.4859510000000 1.0
C      1  0.5501520000000  0.4437380000000  0.4607490000000 1.0
C      1  0.5187660000000  0.4051450000000  0.4774650000000 1.0
C      1  0.4745740000000  0.4777200000000  0.5144680000000 1.0
C      1  0.4954580000000  0.4352690000000  0.4540340000000 1.0
C      1  0.5111680000000  0.4618480000000  0.4830240000000 1.0
C      1  0.4909160000000  0.4438640000000  0.5506670000000 1.0
C      1  0.5069470000000  0.4536570000000  0.4361070000000 1.0
C      1  0.5053560000000  0.5371500000000  0.5712370000000 1.0
C      1  0.5467260000000  0.4805580000000  0.5227760000000 1.0
C      1  0.5722670000000  0.4846310000000  0.4788270000000 1.0
C      1  0.4894860000000  0.5139700000000  0.5221260000000 1.0
C      1  0.4810690000000  0.5394610000000  0.5563020000000 1.0
C      1  0.4344220000000  0.4594410000000  0.4778810000000 1.0
C      1  0.4743280000000  0.5016890000000  0.4654770000000 1.0
C      1  0.4759920000000  0.5583380000000  0.4331950000000 1.0
C      1  0.5439710000000  0.4840010000000  0.5516250000000 1.0
C      1  0.4298870000000  0.5100110000000  0.5448840000000 1.0
C      1  0.4633690000000  0.5077970000000  0.5033200000000 1.0
C      1  0.5230890000000  0.4712550000000  0.5095390000000 1.0
C      1  0.4593210000000  0.4610440000000  0.4644780000000 1.0
C      1  0.4814100000000  0.4734790000000  0.4833090000000 1.0
C      1  0.5691140000000  0.4565810000000  0.4803880000000 1.0
C      1  0.4856800000000  0.4275230000000  0.4779810000000 1.0
C      1  0.4407980000000  0.5584460000000  0.5252030000000 1.0
END
