TITL C-2778425-5191-1011 0.000828479982676942 125000 -988.441009976873 0 0 172 (C1) n - 1
REM
REM in /home/nfs/bkarasulu/CARBON/AIRSS/Generating-Clusters/REBO/Only-C1/SD-CG/HFTN-CG
REM
REM
REM
REM
REM
REM ./C.cell (11c1c37f851c82e70ff6c80c92926a4b)
REM
REM compiler GCC version 9.2.1 20190827 (Red Hat 9.2.1-1)
REM options -cpp -mtune=generic -march=x86-64 -g -O0 -fpre-include=/usr/include/finclude/math-vector-fortran.h
REM seed 1334471421 1536045452 -1475829862 -1374764800 -1164278311 1229640304 -1909396206 45643126 -690992417 -1110476364 2015168131 -1047536430 1926914141 -998248493 705012160 -446309911 1300073984 1905162996 -1895703642 -1719732787 -343951458 -1884334547 -1531622883 644891905 -585962409 749920821 -1729990822 -1460702645 -1231083963 -1507866302 1572349331 1839947301 452800441
REM
CELL 1.54180   50.00000   50.00000   50.00000   90.00000   90.00000   90.00000
LATT -1
SFAC C  
C      1  0.5401900000000  0.5399080000000  0.5451560000000 1.0
C      1  0.5416400000000  0.4434870000000  0.5420190000000 1.0
C      1  0.4835980000000  0.4845980000000  0.4813990000000 1.0
C      1  0.4878980000000  0.4073560000000  0.4835630000000 1.0
C      1  0.4346040000000  0.5716110000000  0.5275890000000 1.0
C      1  0.3951900000000  0.5146210000000  0.5054500000000 1.0
C      1  0.4578610000000  0.5708240000000  0.5479330000000 1.0
C      1  0.4202670000000  0.4483510000000  0.4783340000000 1.0
C      1  0.4726650000000  0.4819990000000  0.6046650000000 1.0
C      1  0.5985690000000  0.5524410000000  0.5418180000000 1.0
C      1  0.5242520000000  0.5325440000000  0.5167670000000 1.0
C      1  0.5761510000000  0.5156000000000  0.5717650000000 1.0
C      1  0.4379330000000  0.4933450000000  0.5204040000000 1.0
C      1  0.5163200000000  0.5955180000000  0.4321670000000 1.0
C      1  0.4886480000000  0.4809080000000  0.4287960000000 1.0
C      1  0.4050770000000  0.4772360000000  0.5363740000000 1.0
C      1  0.4801180000000  0.5655840000000  0.4368550000000 1.0
C      1  0.4017240000000  0.4618810000000  0.4529480000000 1.0
C      1  0.4958330000000  0.5332660000000  0.5308700000000 1.0
C      1  0.4539130000000  0.4831910000000  0.4946520000000 1.0
C      1  0.5952740000000  0.5127750000000  0.5437710000000 1.0
C      1  0.5086400000000  0.4938970000000  0.3967840000000 1.0
C      1  0.4996660000000  0.4339550000000  0.4561660000000 1.0
C      1  0.5235140000000  0.5355350000000  0.5831670000000 1.0
C      1  0.4926690000000  0.5590150000000  0.4610330000000 1.0
C      1  0.4295020000000  0.5640550000000  0.4439350000000 1.0
C      1  0.4857320000000  0.5701980000000  0.5676480000000 1.0
C      1  0.4502510000000  0.4444580000000  0.5279230000000 1.0
C      1  0.5441130000000  0.5015940000000  0.4370600000000 1.0
C      1  0.4641750000000  0.5393160000000  0.5553470000000 1.0
C      1  0.5054790000000  0.4334970000000  0.5082050000000 1.0
C      1  0.6058940000000  0.4705230000000  0.5098800000000 1.0
C      1  0.5106510000000  0.4951500000000  0.5686410000000 1.0
C      1  0.4406560000000  0.4228160000000  0.4742650000000 1.0
C      1  0.4760000000000  0.5485000000000  0.5920820000000 1.0
C      1  0.5312700000000  0.4180970000000  0.5820660000000 1.0
C      1  0.4900170000000  0.5118080000000  0.4335000000000 1.0
C      1  0.5334120000000  0.5626270000000  0.5841910000000 1.0
C      1  0.5355640000000  0.4590130000000  0.4145810000000 1.0
C      1  0.4737280000000  0.5157260000000  0.5130120000000 1.0
C      1  0.4779440000000  0.6031370000000  0.4763830000000 1.0
C      1  0.4845800000000  0.4046010000000  0.4509700000000 1.0
C      1  0.5203910000000  0.4341920000000  0.4791560000000 1.0
C      1  0.5055600000000  0.5996990000000  0.4642280000000 1.0
C      1  0.4649110000000  0.5196010000000  0.4804710000000 1.0
C      1  0.4583400000000  0.6141460000000  0.4599990000000 1.0
C      1  0.5696010000000  0.5414810000000  0.5558970000000 1.0
C      1  0.5789310000000  0.4209320000000  0.5644780000000 1.0
C      1  0.5466350000000  0.5015900000000  0.4902970000000 1.0
C      1  0.5381100000000  0.4901280000000  0.4069940000000 1.0
C      1  0.3956840000000  0.5062990000000  0.5325090000000 1.0
C      1  0.5535370000000  0.5931640000000  0.4783500000000 1.0
C      1  0.4008930000000  0.4953300000000  0.4510670000000 1.0
C      1  0.5576760000000  0.4123850000000  0.5793680000000 1.0
C      1  0.4100170000000  0.5265200000000  0.5480970000000 1.0
C      1  0.4520610000000  0.5000960000000  0.5434840000000 1.0
C      1  0.5731990000000  0.4396080000000  0.5409400000000 1.0
C      1  0.4672290000000  0.4113760000000  0.5584750000000 1.0
C      1  0.5425400000000  0.5728240000000  0.5544340000000 1.0
C      1  0.5699580000000  0.4922530000000  0.5400230000000 1.0
C      1  0.4172940000000  0.5434400000000  0.4756760000000 1.0
C      1  0.5309620000000  0.5325750000000  0.4316750000000 1.0
C      1  0.4040550000000  0.5220800000000  0.4524040000000 1.0
C      1  0.4181560000000  0.4689840000000  0.5055470000000 1.0
C      1  0.5166150000000  0.4636390000000  0.5799790000000 1.0
C      1  0.4468740000000  0.4569300000000  0.5587420000000 1.0
C      1  0.4669080000000  0.4839080000000  0.4039330000000 1.0
C      1  0.5494960000000  0.5097610000000  0.5212520000000 1.0
C      1  0.4661420000000  0.5271300000000  0.4156360000000 1.0
C      1  0.4446480000000  0.5809590000000  0.5022780000000 1.0
C      1  0.4832790000000  0.5841350000000  0.5302990000000 1.0
C      1  0.5561630000000  0.5190550000000  0.4037650000000 1.0
C      1  0.5461420000000  0.5266690000000  0.4680220000000 1.0
C      1  0.4495300000000  0.5292480000000  0.5811770000000 1.0
C      1  0.5208930000000  0.4018840000000  0.4897780000000 1.0
C      1  0.4697890000000  0.5158690000000  0.6032310000000 1.0
C      1  0.4555430000000  0.5493690000000  0.4332990000000 1.0
C      1  0.4493130000000  0.4892980000000  0.5817680000000 1.0
C      1  0.5381790000000  0.4157790000000  0.5229210000000 1.0
C      1  0.5581570000000  0.4871880000000  0.5712940000000 1.0
C      1  0.4598480000000  0.4253230000000  0.4459590000000 1.0
C      1  0.4962550000000  0.4660230000000  0.5456400000000 1.0
C      1  0.5459500000000  0.4552920000000  0.4789790000000 1.0
C      1  0.5238230000000  0.6043590000000  0.4903560000000 1.0
C      1  0.4980570000000  0.5245050000000  0.4039270000000 1.0
C      1  0.4461940000000  0.5020030000000  0.4119590000000 1.0
C      1  0.5015940000000  0.4634800000000  0.4986330000000 1.0
C      1  0.4738270000000  0.4703710000000  0.5666420000000 1.0
C      1  0.5092830000000  0.4025660000000  0.5219430000000 1.0
C      1  0.4950290000000  0.4925850000000  0.5251660000000 1.0
C      1  0.4236360000000  0.4789230000000  0.5618480000000 1.0
C      1  0.5470470000000  0.5951890000000  0.5299200000000 1.0
C      1  0.4695170000000  0.4835420000000  0.4530030000000 1.0
C      1  0.5739160000000  0.5665030000000  0.5250410000000 1.0
C      1  0.4438000000000  0.4301380000000  0.5708820000000 1.0
C      1  0.5575060000000  0.4121240000000  0.5020610000000 1.0
C      1  0.4570690000000  0.4139870000000  0.5260520000000 1.0
C      1  0.5981390000000  0.4747900000000  0.4821880000000 1.0
C      1  0.5097170000000  0.4383940000000  0.5395110000000 1.0
C      1  0.4170510000000  0.4453910000000  0.5353700000000 1.0
C      1  0.4144810000000  0.4973240000000  0.4884450000000 1.0
C      1  0.4744370000000  0.5577820000000  0.4854870000000 1.0
C      1  0.5360450000000  0.4847340000000  0.5972250000000 1.0
C      1  0.5776390000000  0.4314120000000  0.5094930000000 1.0
C      1  0.5034530000000  0.4945190000000  0.6015930000000 1.0
C      1  0.5760720000000  0.5165400000000  0.4921660000000 1.0
C      1  0.5313730000000  0.4567830000000  0.4480990000000 1.0
C      1  0.5165400000000  0.5499830000000  0.4077070000000 1.0
C      1  0.4966810000000  0.5320580000000  0.5623900000000 1.0
C      1  0.4810070000000  0.5018330000000  0.5546150000000 1.0
C      1  0.3762890000000  0.4500970000000  0.4504090000000 1.0
C      1  0.5102660000000  0.5832600000000  0.5476800000000 1.0
C      1  0.5451320000000  0.5152100000000  0.5858180000000 1.0
C      1  0.4765830000000  0.5554730000000  0.5162490000000 1.0
C      1  0.4258430000000  0.5118230000000  0.5710020000000 1.0
C      1  0.4039800000000  0.5415720000000  0.5027220000000 1.0
C      1  0.5686380000000  0.5912640000000  0.5057610000000 1.0
C      1  0.4367730000000  0.5189500000000  0.4997430000000 1.0
C      1  0.5823460000000  0.5668790000000  0.4864120000000 1.0
C      1  0.5797020000000  0.4672340000000  0.5267650000000 1.0
C      1  0.5595320000000  0.5732670000000  0.4512160000000 1.0
C      1  0.5211230000000  0.5461450000000  0.4591230000000 1.0
C      1  0.5720000000000  0.5432760000000  0.4558220000000 1.0
C      1  0.4146510000000  0.5504930000000  0.5289740000000 1.0
C      1  0.4457700000000  0.5021280000000  0.4430740000000 1.0
C      1  0.5315090000000  0.5070320000000  0.5491870000000 1.0
C      1  0.5003680000000  0.5280910000000  0.6020210000000 1.0
C      1  0.4911620000000  0.4647270000000  0.3956600000000 1.0
C      1  0.4424990000000  0.5651500000000  0.4755080000000 1.0
C      1  0.6106070000000  0.5290870000000  0.5234700000000 1.0
C      1  0.5386590000000  0.5709750000000  0.4242580000000 1.0
C      1  0.5199460000000  0.5999950000000  0.5187060000000 1.0
C      1  0.4976630000000  0.4104160000000  0.5513990000000 1.0
C      1  0.4764010000000  0.4394020000000  0.4794510000000 1.0
C      1  0.5206060000000  0.5058210000000  0.4592450000000 1.0
C      1  0.4701760000000  0.4491840000000  0.6001510000000 1.0
C      1  0.5722760000000  0.4572200000000  0.4931050000000 1.0
C      1  0.5619730000000  0.4314010000000  0.4498980000000 1.0
C      1  0.6137130000000  0.5300490000000  0.4950240000000 1.0
C      1  0.5010150000000  0.5356070000000  0.4916940000000 1.0
C      1  0.5606740000000  0.5444450000000  0.4236660000000 1.0
C      1  0.4575570000000  0.4090410000000  0.4968830000000 1.0
C      1  0.4922130000000  0.5190840000000  0.4632110000000 1.0
C      1  0.4683400000000  0.4569840000000  0.5058030000000 1.0
C      1  0.4226150000000  0.4553070000000  0.4300980000000 1.0
C      1  0.4444510000000  0.4515000000000  0.4200830000000 1.0
C      1  0.5288670000000  0.5755620000000  0.4638050000000 1.0
C      1  0.5996810000000  0.5433930000000  0.4734790000000 1.0
C      1  0.5712940000000  0.4588190000000  0.4483600000000 1.0
C      1  0.5284560000000  0.4746900000000  0.5384390000000 1.0
C      1  0.5101180000000  0.4365410000000  0.5797430000000 1.0
C      1  0.4339040000000  0.4778900000000  0.4700690000000 1.0
C      1  0.5449450000000  0.4278120000000  0.4243210000000 1.0
C      1  0.4065870000000  0.5492910000000  0.4378240000000 1.0
C      1  0.5686190000000  0.4876790000000  0.4496250000000 1.0
C      1  0.5221290000000  0.4778930000000  0.4699490000000 1.0
C      1  0.5102630000000  0.3924280000000  0.4375590000000 1.0
C      1  0.5490310000000  0.4078370000000  0.4710780000000 1.0
C      1  0.4429580000000  0.5293760000000  0.4581400000000 1.0
C      1  0.5071490000000  0.5028730000000  0.4964470000000 1.0
C      1  0.5064290000000  0.4470940000000  0.4279740000000 1.0
C      1  0.5765660000000  0.5402650000000  0.5056660000000 1.0
C      1  0.4566910000000  0.4556520000000  0.4590530000000 1.0
C      1  0.5282450000000  0.4789810000000  0.5076460000000 1.0
C      1  0.5768480000000  0.5738610000000  0.5582080000000 1.0
C      1  0.4515160000000  0.5356260000000  0.5256070000000 1.0
C      1  0.4704400000000  0.5940180000000  0.5022150000000 1.0
C      1  0.4820160000000  0.4312610000000  0.5822600000000 1.0
C      1  0.4746660000000  0.4443350000000  0.4206310000000 1.0
C      1  0.5347840000000  0.4040990000000  0.4405180000000 1.0
C      1  0.5858330000000  0.4980930000000  0.4703780000000 1.0
C      1  0.4993360000000  0.5745030000000  0.4183370000000 1.0
END
