TITL C-2778431-5191-1284 0.0018812429434734 125000 -519.594983463973 0 0 91 (C1) n - 1
REM
REM in /home/nfs/bkarasulu/CARBON/AIRSS/Generating-Clusters/REBO/Only-C1/SD-CG/HFTN-CG
REM
REM
REM
REM
REM
REM ./C.cell (11c1c37f851c82e70ff6c80c92926a4b)
REM
REM compiler GCC version 9.2.1 20190827 (Red Hat 9.2.1-1)
REM options -cpp -mtune=generic -march=x86-64 -g -O0 -fpre-include=/usr/include/finclude/math-vector-fortran.h
REM seed -2079830946 -1535324931 845820512 1874384866 -1798317713 279047826 1086291305 1500265358 928709684 -1305127115 1845815658 -1377447832 -1759293540 -61723389 -609751443 -1053034698 1462719316 -2076208638 515990489 858555886 700981219 1616716839 -2083119692 1884561040 -1520878622 488501214 -37255656 -225184941 -971471807 -1298977844 1755531181 -1465164197 -1213132235
REM
CELL 1.54180   50.00000   50.00000   50.00000   90.00000   90.00000   90.00000
LATT -1
SFAC C  
C      1  0.4618610000000  0.5215500000000  0.5160960000000 1.0
C      1  0.5230660000000  0.5219740000000  0.4743740000000 1.0
C      1  0.5466460000000  0.4622110000000  0.4461630000000 1.0
C      1  0.4563650000000  0.5684030000000  0.5424740000000 1.0
C      1  0.5076810000000  0.4798120000000  0.5202260000000 1.0
C      1  0.5583320000000  0.4248260000000  0.4819860000000 1.0
C      1  0.5394170000000  0.5203090000000  0.5174200000000 1.0
C      1  0.5672050000000  0.4525070000000  0.4648840000000 1.0
C      1  0.5785420000000  0.4817550000000  0.5327340000000 1.0
C      1  0.4842590000000  0.4114470000000  0.4775900000000 1.0
C      1  0.5591370000000  0.4002330000000  0.4687290000000 1.0
C      1  0.4640700000000  0.5112110000000  0.4870630000000 1.0
C      1  0.5339930000000  0.4989360000000  0.4436900000000 1.0
C      1  0.5104800000000  0.5354050000000  0.5797430000000 1.0
C      1  0.5110390000000  0.5740160000000  0.5090790000000 1.0
C      1  0.5309990000000  0.4746120000000  0.5693670000000 1.0
C      1  0.4416680000000  0.5470070000000  0.5209710000000 1.0
C      1  0.5033560000000  0.4496610000000  0.4167690000000 1.0
C      1  0.4746660000000  0.5358720000000  0.4359470000000 1.0
C      1  0.4396950000000  0.5324930000000  0.5517470000000 1.0
C      1  0.5611920000000  0.5529550000000  0.5251170000000 1.0
C      1  0.5342550000000  0.4681570000000  0.5179760000000 1.0
C      1  0.4330350000000  0.5358180000000  0.4717890000000 1.0
C      1  0.5118410000000  0.5081010000000  0.5299060000000 1.0
C      1  0.4792290000000  0.4912640000000  0.4640000000000 1.0
C      1  0.4234780000000  0.5498140000000  0.4968660000000 1.0
C      1  0.4378410000000  0.5918150000000  0.5494720000000 1.0
C      1  0.4786750000000  0.5769310000000  0.5192650000000 1.0
C      1  0.5792190000000  0.4944840000000  0.5084880000000 1.0
C      1  0.4686590000000  0.4592560000000  0.4689720000000 1.0
C      1  0.5490520000000  0.4722660000000  0.4944980000000 1.0
C      1  0.5349860000000  0.4296980000000  0.5288860000000 1.0
C      1  0.6096580000000  0.4393850000000  0.5015540000000 1.0
C      1  0.4789690000000  0.4310580000000  0.4208910000000 1.0
C      1  0.4411880000000  0.5322960000000  0.4387450000000 1.0
C      1  0.5634100000000  0.5177870000000  0.5051620000000 1.0
C      1  0.5017870000000  0.4804190000000  0.5830800000000 1.0
C      1  0.5242450000000  0.5376580000000  0.4457430000000 1.0
C      1  0.4810110000000  0.4463590000000  0.4962620000000 1.0
C      1  0.5265570000000  0.5681190000000  0.4551270000000 1.0
C      1  0.4658230000000  0.5391050000000  0.4688020000000 1.0
C      1  0.4274280000000  0.5050700000000  0.4645450000000 1.0
C      1  0.4899840000000  0.4144210000000  0.5353770000000 1.0
C      1  0.5876700000000  0.4389350000000  0.4884710000000 1.0
C      1  0.4749530000000  0.5679520000000  0.4428420000000 1.0
C      1  0.5775900000000  0.5050860000000  0.4636630000000 1.0
C      1  0.4464290000000  0.4902050000000  0.4579760000000 1.0
C      1  0.5347270000000  0.5727480000000  0.4863270000000 1.0
C      1  0.4800000000000  0.4691140000000  0.5179050000000 1.0
C      1  0.5122400000000  0.4289230000000  0.5460800000000 1.0
C      1  0.5178080000000  0.5442320000000  0.4937420000000 1.0
C      1  0.5545380000000  0.5252730000000  0.4485640000000 1.0
C      1  0.5462810000000  0.4971680000000  0.4754820000000 1.0
C      1  0.4616770000000  0.4712980000000  0.5432410000000 1.0
C      1  0.5096110000000  0.4290580000000  0.4892580000000 1.0
C      1  0.5197410000000  0.4654860000000  0.4602730000000 1.0
C      1  0.5195220000000  0.5675540000000  0.5404970000000 1.0
C      1  0.5011680000000  0.4490050000000  0.4480880000000 1.0
C      1  0.5348730000000  0.4284770000000  0.5005860000000 1.0
C      1  0.4681530000000  0.5550960000000  0.5681840000000 1.0
C      1  0.5081410000000  0.4504310000000  0.5662480000000 1.0
C      1  0.4944440000000  0.5592690000000  0.5767470000000 1.0
C      1  0.3873500000000  0.4485150000000  0.4805570000000 1.0
C      1  0.5345250000000  0.5311050000000  0.5650990000000 1.0
C      1  0.5346150000000  0.5036190000000  0.5533370000000 1.0
C      1  0.5079300000000  0.4939280000000  0.4650100000000 1.0
C      1  0.5804210000000  0.4775310000000  0.4813060000000 1.0
C      1  0.4771270000000  0.4604580000000  0.5705470000000 1.0
C      1  0.4610920000000  0.5242220000000  0.5728670000000 1.0
C      1  0.5688340000000  0.5344480000000  0.4780590000000 1.0
C      1  0.5423200000000  0.5520190000000  0.5467690000000 1.0
C      1  0.4349280000000  0.4812210000000  0.5315380000000 1.0
C      1  0.4352730000000  0.5091850000000  0.5318890000000 1.0
C      1  0.5019570000000  0.5256380000000  0.4281010000000 1.0
C      1  0.5598050000000  0.5569230000000  0.4978050000000 1.0
C      1  0.4294720000000  0.4707090000000  0.5049470000000 1.0
C      1  0.4576240000000  0.4785620000000  0.4945580000000 1.0
C      1  0.4243460000000  0.5276540000000  0.4191480000000 1.0
C      1  0.5255140000000  0.4742420000000  0.4218060000000 1.0
C      1  0.4913760000000  0.5112870000000  0.5823680000000 1.0
C      1  0.5505680000000  0.4758260000000  0.5433320000000 1.0
C      1  0.4654310000000  0.5859340000000  0.4933360000000 1.0
C      1  0.4881310000000  0.5261480000000  0.5302440000000 1.0
C      1  0.5081340000000  0.5023990000000  0.4137580000000 1.0
C      1  0.4928650000000  0.5528880000000  0.5371730000000 1.0
C      1  0.4782530000000  0.4159340000000  0.5096850000000 1.0
C      1  0.4683820000000  0.5723030000000  0.4707960000000 1.0
C      1  0.4664730000000  0.4921840000000  0.5692600000000 1.0
C      1  0.4079860000000  0.4593880000000  0.4925050000000 1.0
C      1  0.4009180000000  0.5634970000000  0.4977180000000 1.0
C      1  0.4747840000000  0.4304420000000  0.4547330000000 1.0
END
