TITL C-2778430-5657-1189 0.00480773077722543 125000 -204.258278275859 0 0 35 (C1) n - 1
REM
REM in /home/nfs/bkarasulu/CARBON/AIRSS/Generating-Clusters/REBO/Only-C1/SD-CG/HFTN-CG
REM
REM
REM
REM
REM
REM ./C.cell (11c1c37f851c82e70ff6c80c92926a4b)
REM
REM compiler GCC version 9.2.1 20190827 (Red Hat 9.2.1-1)
REM options -cpp -mtune=generic -march=x86-64 -g -O0 -fpre-include=/usr/include/finclude/math-vector-fortran.h
REM seed -706785057 -855039973 -827728402 -1519293374 -570477189 573390956 -684012227 -592263301 1980940415 -141228865 -1930455762 1462912060 -204752807 187576036 -1289067762 375617463 1512643240 979283793 204855407 141260271 -1940272476 1599930698 809434355 1989623025 -666087176 522205949 977331855 1531780054 -142520870 329516001 -684310943 -190044399 1794683297
REM
CELL 1.54180   50.00000   50.00000   50.00000   90.00000   90.00000   90.00000
LATT -1
SFAC C  
C      1  0.4709510000000  0.4540270000000  0.5067560000000 1.0
C      1  0.4668040000000  0.5004790000000  0.5654410000000 1.0
C      1  0.5287390000000  0.4664600000000  0.4675600000000 1.0
C      1  0.5340750000000  0.5492420000000  0.4516870000000 1.0
C      1  0.4926580000000  0.5290030000000  0.5337220000000 1.0
C      1  0.4516220000000  0.5288420000000  0.5063620000000 1.0
C      1  0.5252590000000  0.4939400000000  0.5199460000000 1.0
C      1  0.4567400000000  0.4744910000000  0.5199830000000 1.0
C      1  0.4636590000000  0.4862270000000  0.4411060000000 1.0
C      1  0.4707410000000  0.4973640000000  0.5921140000000 1.0
C      1  0.5342740000000  0.4967770000000  0.4677070000000 1.0
C      1  0.4465150000000  0.5355500000000  0.5369920000000 1.0
C      1  0.5407760000000  0.5078220000000  0.4957210000000 1.0
C      1  0.4599240000000  0.4793940000000  0.5477110000000 1.0
C      1  0.5548170000000  0.4244040000000  0.5239660000000 1.0
C      1  0.5441080000000  0.4458860000000  0.5113130000000 1.0
C      1  0.4880490000000  0.4479920000000  0.4866720000000 1.0
C      1  0.4697130000000  0.5261380000000  0.5519760000000 1.0
C      1  0.4869100000000  0.5227230000000  0.4600010000000 1.0
C      1  0.5308240000000  0.4669630000000  0.5246170000000 1.0
C      1  0.5220290000000  0.5520550000000  0.4778270000000 1.0
C      1  0.4615690000000  0.5100470000000  0.4565950000000 1.0
C      1  0.5564840000000  0.5286310000000  0.5190300000000 1.0
C      1  0.4841160000000  0.4680690000000  0.4435040000000 1.0
C      1  0.5171970000000  0.5144800000000  0.5395060000000 1.0
C      1  0.4827470000000  0.5362550000000  0.5068470000000 1.0
C      1  0.5450330000000  0.4496310000000  0.4832430000000 1.0
C      1  0.5013530000000  0.4584010000000  0.4638330000000 1.0
C      1  0.5086200000000  0.5083290000000  0.4489320000000 1.0
C      1  0.4473850000000  0.4954790000000  0.5044300000000 1.0
C      1  0.5363820000000  0.5216460000000  0.4442380000000 1.0
C      1  0.4946820000000  0.5412620000000  0.4810750000000 1.0
C      1  0.5388740000000  0.5411180000000  0.4970130000000 1.0
C      1  0.5426530000000  0.5281200000000  0.5443810000000 1.0
C      1  0.4437190000000  0.5127540000000  0.4781910000000 1.0
END
