TITL C-2778422-5617-273 -0.0013765926114761 125000 -208.860272032075 0 0 36 (C1) n - 1
REM
REM in /home/nfs/bkarasulu/CARBON/AIRSS/Generating-Clusters/REBO/Only-C1/SD-CG/HFTN-CG
REM
REM
REM
REM
REM
REM ./C.cell (11c1c37f851c82e70ff6c80c92926a4b)
REM
REM compiler GCC version 9.2.1 20190827 (Red Hat 9.2.1-1)
REM options -cpp -mtune=generic -march=x86-64 -g -O0 -fpre-include=/usr/include/finclude/math-vector-fortran.h
REM seed 44526653 -323114712 799502557 1301069014 -1578810457 458590220 -23488554 938275631 1599426716 1369351525 443822916 -960644740 1264963688 -371717300 1523451820 -314911495 -714927566 -1230074781 -1392579879 1041952513 339827203 -1043579677 925211229 -1004658356 -1686938302 559140641 -1355104050 -2061414484 -874962083 626327623 -1538459074 601251253 1683360900
REM
CELL 1.54180   50.00000   50.00000   50.00000   90.00000   90.00000   90.00000
LATT -1
SFAC C  
C      1  0.5474780000000  0.5072860000000  0.4570620000000 1.0
C      1  0.4609170000000  0.5225160000000  0.5404160000000 1.0
C      1  0.4629220000000  0.4930380000000  0.5389850000000 1.0
C      1  0.5000910000000  0.4640060000000  0.5032260000000 1.0
C      1  0.5326980000000  0.4708090000000  0.5429040000000 1.0
C      1  0.5347280000000  0.5327860000000  0.4979910000000 1.0
C      1  0.4437380000000  0.5084880000000  0.4990000000000 1.0
C      1  0.4859230000000  0.4808390000000  0.5500650000000 1.0
C      1  0.4808420000000  0.5423020000000  0.4653150000000 1.0
C      1  0.5485760000000  0.5569150000000  0.4913340000000 1.0
C      1  0.5229480000000  0.4981800000000  0.4485940000000 1.0
C      1  0.5009030000000  0.5160040000000  0.4570890000000 1.0
C      1  0.4533870000000  0.4842920000000  0.5128700000000 1.0
C      1  0.5341260000000  0.5292070000000  0.5277580000000 1.0
C      1  0.4741210000000  0.4846330000000  0.4388480000000 1.0
C      1  0.5221390000000  0.4683950000000  0.4863820000000 1.0
C      1  0.4446470000000  0.5050440000000  0.4711440000000 1.0
C      1  0.5526860000000  0.4758400000000  0.5237480000000 1.0
C      1  0.5036000000000  0.4395720000000  0.4658000000000 1.0
C      1  0.5495860000000  0.5083930000000  0.4853380000000 1.0
C      1  0.4560240000000  0.5314520000000  0.5128050000000 1.0
C      1  0.4595610000000  0.4799310000000  0.4646230000000 1.0
C      1  0.4820540000000  0.4381520000000  0.4787880000000 1.0
C      1  0.5528440000000  0.5315320000000  0.5535900000000 1.0
C      1  0.4995130000000  0.5376500000000  0.5689820000000 1.0
C      1  0.5145980000000  0.4904180000000  0.5591000000000 1.0
C      1  0.5447990000000  0.4827860000000  0.4973720000000 1.0
C      1  0.4674710000000  0.5161280000000  0.4499210000000 1.0
C      1  0.5067170000000  0.5333750000000  0.4859780000000 1.0
C      1  0.5212990000000  0.5195180000000  0.5577270000000 1.0
C      1  0.4738080000000  0.5372070000000  0.5604860000000 1.0
C      1  0.5182630000000  0.4663390000000  0.4541310000000 1.0
C      1  0.4971360000000  0.4733890000000  0.4309700000000 1.0
C      1  0.5042520000000  0.4641650000000  0.5312050000000 1.0
C      1  0.4767710000000  0.5441180000000  0.4983680000000 1.0
C      1  0.4688320000000  0.4652940000000  0.4920870000000 1.0
END
