TITL C-2778427-5640-1044 -0.00333818644265318 125000 -903.342276969644 0 0 155 (C1) n - 1
REM
REM in /home/nfs/bkarasulu/CARBON/AIRSS/Generating-Clusters/REBO/Only-C1/SD-CG/HFTN-CG
REM
REM
REM
REM
REM
REM ./C.cell (11c1c37f851c82e70ff6c80c92926a4b)
REM
REM compiler GCC version 9.2.1 20190827 (Red Hat 9.2.1-1)
REM options -cpp -mtune=generic -march=x86-64 -g -O0 -fpre-include=/usr/include/finclude/math-vector-fortran.h
REM seed -1660172435 -1381016404 294298194 -1207385309 -1748674016 6732121 162873164 555644862 815852528 1109795951 -1716178100 1756303998 -519356198 873910456 1164253798 -1514074477 -978845776 -24417610 -1419490054 -1065983596 -1743221577 1511163699 -297142858 -17047664 1015902907 581133326 1626033360 -1822059678 2089643183 87223324 1580603588 -1473779671 2050969870
REM
CELL 1.54180   50.00000   50.00000   50.00000   90.00000   90.00000   90.00000
LATT -1
SFAC C  
C      1  0.4780230000000  0.4915840000000  0.6106720000000 1.0
C      1  0.4249000000000  0.4376830000000  0.4919530000000 1.0
C      1  0.5262840000000  0.5644880000000  0.4287870000000 1.0
C      1  0.5282030000000  0.4051240000000  0.5135060000000 1.0
C      1  0.5668060000000  0.5247560000000  0.5797730000000 1.0
C      1  0.5524570000000  0.4596130000000  0.4774840000000 1.0
C      1  0.4328770000000  0.4862080000000  0.5487110000000 1.0
C      1  0.4820660000000  0.4012340000000  0.5414100000000 1.0
C      1  0.4576560000000  0.5441040000000  0.4203220000000 1.0
C      1  0.4888650000000  0.4347330000000  0.5202980000000 1.0
C      1  0.4580080000000  0.5062510000000  0.4503170000000 1.0
C      1  0.4754950000000  0.4637340000000  0.5125960000000 1.0
C      1  0.4969060000000  0.5583950000000  0.5865700000000 1.0
C      1  0.4764140000000  0.5449760000000  0.4827650000000 1.0
C      1  0.4927310000000  0.5878860000000  0.5289180000000 1.0
C      1  0.4777390000000  0.4447600000000  0.5476560000000 1.0
C      1  0.5450830000000  0.4904010000000  0.5181330000000 1.0
C      1  0.5417830000000  0.5052330000000  0.5922190000000 1.0
C      1  0.5448940000000  0.5286790000000  0.4578980000000 1.0
C      1  0.4371820000000  0.4739330000000  0.5109620000000 1.0
C      1  0.5399510000000  0.5441780000000  0.5878110000000 1.0
C      1  0.5560440000000  0.5508550000000  0.5518480000000 1.0
C      1  0.4978280000000  0.5681630000000  0.4815270000000 1.0
C      1  0.4777480000000  0.5420930000000  0.5363290000000 1.0
C      1  0.5045650000000  0.5312300000000  0.4311920000000 1.0
C      1  0.5164600000000  0.4919180000000  0.4905920000000 1.0
C      1  0.4530560000000  0.4160520000000  0.5348320000000 1.0
C      1  0.5075170000000  0.5414120000000  0.5228080000000 1.0
C      1  0.4709800000000  0.4707070000000  0.5880680000000 1.0
C      1  0.4127190000000  0.4733440000000  0.4550680000000 1.0
C      1  0.5020860000000  0.6039250000000  0.4660190000000 1.0
C      1  0.3913310000000  0.5095860000000  0.5363760000000 1.0
C      1  0.4630310000000  0.4751550000000  0.5428310000000 1.0
C      1  0.5293860000000  0.5448490000000  0.4753440000000 1.0
C      1  0.5348040000000  0.5342310000000  0.4153550000000 1.0
C      1  0.4217390000000  0.5647590000000  0.4906620000000 1.0
C      1  0.4056850000000  0.4765320000000  0.5052660000000 1.0
C      1  0.5291920000000  0.4495450000000  0.5482860000000 1.0
C      1  0.4861620000000  0.5061790000000  0.4401530000000 1.0
C      1  0.4713620000000  0.4415970000000  0.4166560000000 1.0
C      1  0.5483840000000  0.4745450000000  0.5762070000000 1.0
C      1  0.5310740000000  0.4547840000000  0.4547100000000 1.0
C      1  0.4440020000000  0.4570190000000  0.5798970000000 1.0
C      1  0.5862590000000  0.5374560000000  0.5545390000000 1.0
C      1  0.4761820000000  0.3931340000000  0.4137120000000 1.0
C      1  0.4598800000000  0.5150810000000  0.6096120000000 1.0
C      1  0.5114070000000  0.5308110000000  0.6007170000000 1.0
C      1  0.4394290000000  0.4246580000000  0.4582980000000 1.0
C      1  0.5051910000000  0.5001190000000  0.6114380000000 1.0
C      1  0.4417910000000  0.5569190000000  0.5708160000000 1.0
C      1  0.4099950000000  0.5610550000000  0.5150540000000 1.0
C      1  0.5336140000000  0.4401620000000  0.4082450000000 1.0
C      1  0.5235900000000  0.5964870000000  0.5170280000000 1.0
C      1  0.4013710000000  0.5189040000000  0.4845280000000 1.0
C      1  0.5414510000000  0.4589740000000  0.4260640000000 1.0
C      1  0.4339240000000  0.5231900000000  0.4195550000000 1.0
C      1  0.5680700000000  0.4259940000000  0.4924430000000 1.0
C      1  0.4513880000000  0.5998210000000  0.4684060000000 1.0
C      1  0.5017110000000  0.5102510000000  0.5140150000000 1.0
C      1  0.5234660000000  0.5077630000000  0.5655960000000 1.0
C      1  0.5187790000000  0.4348870000000  0.5210220000000 1.0
C      1  0.4026380000000  0.5409840000000  0.5395930000000 1.0
C      1  0.4775030000000  0.4243810000000  0.4908970000000 1.0
C      1  0.5538500000000  0.4124300000000  0.4728780000000 1.0
C      1  0.4018230000000  0.4908900000000  0.4804220000000 1.0
C      1  0.4945020000000  0.4560590000000  0.5720360000000 1.0
C      1  0.5608180000000  0.5201050000000  0.4288600000000 1.0
C      1  0.5710980000000  0.4954240000000  0.5357220000000 1.0
C      1  0.5259450000000  0.5077320000000  0.4435770000000 1.0
C      1  0.6055860000000  0.4936480000000  0.4555630000000 1.0
C      1  0.5028980000000  0.5571320000000  0.4085770000000 1.0
C      1  0.5296560000000  0.5245060000000  0.5385960000000 1.0
C      1  0.6007460000000  0.5576510000000  0.4704510000000 1.0
C      1  0.4679860000000  0.4921150000000  0.3999490000000 1.0
C      1  0.4750280000000  0.5892770000000  0.4556850000000 1.0
C      1  0.4969540000000  0.3985300000000  0.5015230000000 1.0
C      1  0.5099910000000  0.4343830000000  0.4699130000000 1.0
C      1  0.5139270000000  0.4785890000000  0.5567410000000 1.0
C      1  0.4692100000000  0.5631010000000  0.4459180000000 1.0
C      1  0.4711520000000  0.5467430000000  0.5673300000000 1.0
C      1  0.4800650000000  0.5393450000000  0.4008990000000 1.0
C      1  0.4346720000000  0.4682050000000  0.4792490000000 1.0
C      1  0.5038440000000  0.5054290000000  0.4662250000000 1.0
C      1  0.6117520000000  0.5068140000000  0.5189430000000 1.0
C      1  0.5838870000000  0.5765650000000  0.4704720000000 1.0
C      1  0.5269070000000  0.4797020000000  0.6077940000000 1.0
C      1  0.4823570000000  0.5215920000000  0.5848630000000 1.0
C      1  0.5196020000000  0.4255600000000  0.5683540000000 1.0
C      1  0.6048570000000  0.5175520000000  0.5399760000000 1.0
C      1  0.5246880000000  0.4532690000000  0.5876060000000 1.0
C      1  0.5029280000000  0.4696330000000  0.4529320000000 1.0
C      1  0.4070310000000  0.4855590000000  0.5344160000000 1.0
C      1  0.5028890000000  0.5289270000000  0.4853620000000 1.0
C      1  0.5734820000000  0.5165110000000  0.4597940000000 1.0
C      1  0.5746550000000  0.4646160000000  0.5240540000000 1.0
C      1  0.4195670000000  0.5405420000000  0.4692040000000 1.0
C      1  0.5217950000000  0.5589110000000  0.5038800000000 1.0
C      1  0.5683170000000  0.4859630000000  0.4676320000000 1.0
C      1  0.4860890000000  0.4182080000000  0.4103730000000 1.0
C      1  0.4354290000000  0.5134130000000  0.5615740000000 1.0
C      1  0.4828740000000  0.4728270000000  0.4806470000000 1.0
C      1  0.5130290000000  0.4232160000000  0.4030180000000 1.0
C      1  0.5002010000000  0.5708770000000  0.5551140000000 1.0
C      1  0.5592710000000  0.5263250000000  0.5273060000000 1.0
C      1  0.6004240000000  0.4614270000000  0.4472050000000 1.0
C      1  0.5804530000000  0.4564930000000  0.4944440000000 1.0
C      1  0.5560760000000  0.4209820000000  0.5179750000000 1.0
C      1  0.5257960000000  0.4518650000000  0.4942120000000 1.0
C      1  0.4478470000000  0.4129440000000  0.4894180000000 1.0
C      1  0.4228950000000  0.5387180000000  0.5623610000000 1.0
C      1  0.4649010000000  0.3940060000000  0.5125810000000 1.0
C      1  0.4864780000000  0.4975850000000  0.5350030000000 1.0
C      1  0.6072500000000  0.5027700000000  0.4885110000000 1.0
C      1  0.4859110000000  0.4948080000000  0.5690640000000 1.0
C      1  0.3918920000000  0.5262910000000  0.5098330000000 1.0
C      1  0.4474550000000  0.4456320000000  0.5217400000000 1.0
C      1  0.4992940000000  0.4827060000000  0.4228650000000 1.0
C      1  0.5781430000000  0.5610230000000  0.5304140000000 1.0
C      1  0.4454490000000  0.4416750000000  0.5557520000000 1.0
C      1  0.4572660000000  0.4909700000000  0.4779590000000 1.0
C      1  0.5019130000000  0.4079190000000  0.5578800000000 1.0
C      1  0.4136880000000  0.5305290000000  0.4371800000000 1.0
C      1  0.4419700000000  0.4772910000000  0.4410730000000 1.0
C      1  0.5785370000000  0.4851100000000  0.4356710000000 1.0
C      1  0.5221460000000  0.4064970000000  0.4798980000000 1.0
C      1  0.5567680000000  0.4440830000000  0.5345650000000 1.0
C      1  0.4493790000000  0.5365140000000  0.4538080000000 1.0
C      1  0.5907520000000  0.5293300000000  0.4804010000000 1.0
C      1  0.4499980000000  0.5012060000000  0.5158330000000 1.0
C      1  0.4800230000000  0.4652910000000  0.4048570000000 1.0
C      1  0.5688950000000  0.4938860000000  0.5658150000000 1.0
C      1  0.5187550000000  0.4744910000000  0.5191140000000 1.0
C      1  0.5291910000000  0.5926030000000  0.4836760000000 1.0
C      1  0.5485710000000  0.4975700000000  0.4891110000000 1.0
C      1  0.4599230000000  0.5149300000000  0.5427680000000 1.0
C      1  0.4789600000000  0.4434300000000  0.4669820000000 1.0
C      1  0.4546540000000  0.5217240000000  0.4924960000000 1.0
C      1  0.4434670000000  0.4966960000000  0.4145000000000 1.0
C      1  0.4893920000000  0.5952750000000  0.4963850000000 1.0
C      1  0.5378050000000  0.5679790000000  0.5680240000000 1.0
C      1  0.4881300000000  0.5122830000000  0.3974830000000 1.0
C      1  0.6025840000000  0.4699310000000  0.4802610000000 1.0
C      1  0.4633680000000  0.5818690000000  0.5124790000000 1.0
C      1  0.5101100000000  0.5389470000000  0.5620000000000 1.0
C      1  0.4411920000000  0.5852040000000  0.4903850000000 1.0
C      1  0.4608120000000  0.5500340000000  0.5109180000000 1.0
C      1  0.5201420000000  0.5042110000000  0.4062740000000 1.0
C      1  0.4113210000000  0.4411620000000  0.4618060000000 1.0
C      1  0.5261150000000  0.5899380000000  0.5503090000000 1.0
C      1  0.5222400000000  0.5709980000000  0.4578620000000 1.0
C      1  0.5490540000000  0.5738110000000  0.5178020000000 1.0
C      1  0.4576600000000  0.4471230000000  0.4432020000000 1.0
C      1  0.5489140000000  0.4897010000000  0.4192420000000 1.0
C      1  0.5709790000000  0.5449790000000  0.5012000000000 1.0
C      1  0.5565830000000  0.5722150000000  0.4856060000000 1.0
END
