TITL C-2778429-3646-1009 -0.000547431223241799 125000 -451.150908154041 0 0 80 (C1) n - 1
REM
REM in /home/nfs/bkarasulu/CARBON/AIRSS/Generating-Clusters/REBO/Only-C1/SD-CG/HFTN-CG
REM
REM
REM
REM
REM
REM ./C.cell (11c1c37f851c82e70ff6c80c92926a4b)
REM
REM compiler GCC version 9.2.1 20190827 (Red Hat 9.2.1-1)
REM options -cpp -mtune=generic -march=x86-64 -g -O0 -fpre-include=/usr/include/finclude/math-vector-fortran.h
REM seed 782137101 1982738200 260731548 1751638264 355303732 -336555844 37223860 1611862630 810416894 -454673038 1747250450 -1793101728 101579733 -223913357 190929508 -633590165 86691008 1454620029 -1828521470 -1897693257 66063671 -934157743 -797045780 -676863917 -1713185128 1519488394 1409585199 1886053853 -733547380 44545447 -152074216 1702747974 1226476019
REM
CELL 1.54180   50.00000   50.00000   50.00000   90.00000   90.00000   90.00000
LATT -1
SFAC C  
C      1  0.4981740000000  0.4205210000000  0.4837980000000 1.0
C      1  0.4756830000000  0.5548910000000  0.5126300000000 1.0
C      1  0.5409100000000  0.5588790000000  0.5319730000000 1.0
C      1  0.4189690000000  0.4608410000000  0.4763310000000 1.0
C      1  0.4584990000000  0.5860320000000  0.4943560000000 1.0
C      1  0.4367530000000  0.4812010000000  0.4701360000000 1.0
C      1  0.5613440000000  0.4736510000000  0.5389480000000 1.0
C      1  0.4332600000000  0.5236760000000  0.5246200000000 1.0
C      1  0.4164290000000  0.5369840000000  0.4803480000000 1.0
C      1  0.5277140000000  0.4939790000000  0.5733470000000 1.0
C      1  0.4468050000000  0.5523610000000  0.4597970000000 1.0
C      1  0.5110890000000  0.4691220000000  0.4660090000000 1.0
C      1  0.5431780000000  0.4705950000000  0.4422610000000 1.0
C      1  0.5412460000000  0.4934720000000  0.5204060000000 1.0
C      1  0.5480770000000  0.5661390000000  0.5057090000000 1.0
C      1  0.5393420000000  0.5178660000000  0.4450210000000 1.0
C      1  0.5700330000000  0.5525080000000  0.4951440000000 1.0
C      1  0.5741380000000  0.4688540000000  0.4912710000000 1.0
C      1  0.5236360000000  0.4415420000000  0.4809180000000 1.0
C      1  0.5117600000000  0.5541030000000  0.4666510000000 1.0
C      1  0.4984330000000  0.5428320000000  0.5508460000000 1.0
C      1  0.4739570000000  0.5294600000000  0.4967610000000 1.0
C      1  0.5140670000000  0.5650480000000  0.5365080000000 1.0
C      1  0.4944690000000  0.5296500000000  0.4719150000000 1.0
C      1  0.5218800000000  0.6005800000000  0.4790360000000 1.0
C      1  0.5148730000000  0.4771250000000  0.4270980000000 1.0
C      1  0.5011880000000  0.4490410000000  0.4401880000000 1.0
C      1  0.5166880000000  0.5093290000000  0.4273980000000 1.0
C      1  0.5870660000000  0.4936140000000  0.5447800000000 1.0
C      1  0.5201350000000  0.4325880000000  0.5344700000000 1.0
C      1  0.5398630000000  0.4377890000000  0.5083090000000 1.0
C      1  0.5162330000000  0.4128640000000  0.5075460000000 1.0
C      1  0.4999950000000  0.5701060000000  0.5120140000000 1.0
C      1  0.4309440000000  0.5007760000000  0.4502600000000 1.0
C      1  0.4661500000000  0.5168040000000  0.4601720000000 1.0
C      1  0.4693700000000  0.4603780000000  0.4609820000000 1.0
C      1  0.5789410000000  0.5195210000000  0.4993170000000 1.0
C      1  0.4951060000000  0.4967460000000  0.5745820000000 1.0
C      1  0.4402230000000  0.4729290000000  0.5493920000000 1.0
C      1  0.4309700000000  0.4981140000000  0.5082370000000 1.0
C      1  0.4780670000000  0.5256620000000  0.5710900000000 1.0
C      1  0.4699740000000  0.5008650000000  0.5147330000000 1.0
C      1  0.5162280000000  0.5218910000000  0.5325170000000 1.0
C      1  0.5092320000000  0.5266960000000  0.5849880000000 1.0
C      1  0.5205780000000  0.5739880000000  0.4887410000000 1.0
C      1  0.5429940000000  0.4471400000000  0.4560930000000 1.0
C      1  0.4968670000000  0.4902540000000  0.4873860000000 1.0
C      1  0.4821470000000  0.4628110000000  0.5495120000000 1.0
C      1  0.5188930000000  0.5092630000000  0.5007080000000 1.0
C      1  0.4442000000000  0.5171780000000  0.4857580000000 1.0
C      1  0.5125750000000  0.4570060000000  0.5473050000000 1.0
C      1  0.4537840000000  0.5209780000000  0.5475850000000 1.0
C      1  0.4824190000000  0.4289420000000  0.4562690000000 1.0
C      1  0.5564720000000  0.4940280000000  0.4535530000000 1.0
C      1  0.5686210000000  0.5110180000000  0.5268790000000 1.0
C      1  0.5195660000000  0.5589310000000  0.4416910000000 1.0
C      1  0.4460890000000  0.5629630000000  0.4869580000000 1.0
C      1  0.4690980000000  0.4379700000000  0.4864300000000 1.0
C      1  0.4743520000000  0.4936800000000  0.5477120000000 1.0
C      1  0.5726200000000  0.4938400000000  0.4777990000000 1.0
C      1  0.5113990000000  0.4881680000000  0.5337280000000 1.0
C      1  0.5372780000000  0.4718540000000  0.5592190000000 1.0
C      1  0.5106080000000  0.4004990000000  0.5379630000000 1.0
C      1  0.4278570000000  0.5291880000000  0.4514450000000 1.0
C      1  0.4660360000000  0.4439760000000  0.5379450000000 1.0
C      1  0.4649350000000  0.4821590000000  0.4867620000000 1.0
C      1  0.4677870000000  0.5032520000000  0.4349310000000 1.0
C      1  0.4817450000000  0.4770310000000  0.4359550000000 1.0
C      1  0.5622230000000  0.4566850000000  0.5124360000000 1.0
C      1  0.5049940000000  0.5015810000000  0.4571420000000 1.0
C      1  0.5477210000000  0.5298430000000  0.5418950000000 1.0
C      1  0.5039280000000  0.3809290000000  0.5530370000000 1.0
C      1  0.4473650000000  0.4755400000000  0.5220770000000 1.0
C      1  0.4567410000000  0.4473690000000  0.5107310000000 1.0
C      1  0.5613950000000  0.5319000000000  0.4744990000000 1.0
C      1  0.4562560000000  0.5126280000000  0.4116770000000 1.0
C      1  0.5334620000000  0.5222120000000  0.4761100000000 1.0
C      1  0.4290320000000  0.5467260000000  0.5078490000000 1.0
C      1  0.4686990000000  0.5483900000000  0.5401930000000 1.0
C      1  0.5381730000000  0.5224560000000  0.5712120000000 1.0
END
