TITL C-2778437-8639-208 0.00117875327701264 125000 -310.009386914834 0 0 54 (C1) n - 1
REM
REM in /home/nfs/bkarasulu/CARBON/AIRSS/Generating-Clusters/REBO/Only-C1/SD-CG/HFTN-CG
REM
REM
REM
REM
REM
REM ./C.cell (11c1c37f851c82e70ff6c80c92926a4b)
REM
REM compiler GCC version 9.2.1 20190827 (Red Hat 9.2.1-1)
REM options -cpp -mtune=generic -march=x86-64 -g -O0 -fpre-include=/usr/include/finclude/math-vector-fortran.h
REM seed 375396912 -108967441 -888056729 -1024859548 -2145316879 947914740 -850731531 -1792987550 935898427 -1673729124 -475659343 82355397 -1134307393 754947151 2066450303 -144979757 -1409081359 471338838 -408021439 -1494262361 584195502 -1236276771 -2023492485 -1992057207 2044462982 -1203788346 -1581601793 923943381 -183667272 909299134 -1347437813 -267681414 -824165663
REM
CELL 1.54180   50.00000   50.00000   50.00000   90.00000   90.00000   90.00000
LATT -1
SFAC C  
C      1  0.4833650000000  0.4324050000000  0.5232410000000 1.0
C      1  0.4883830000000  0.4954580000000  0.4835920000000 1.0
C      1  0.5373660000000  0.5600370000000  0.5137310000000 1.0
C      1  0.4796940000000  0.5560760000000  0.4869840000000 1.0
C      1  0.4622600000000  0.5161180000000  0.5700200000000 1.0
C      1  0.4794800000000  0.5437320000000  0.5250240000000 1.0
C      1  0.5353460000000  0.4483680000000  0.4455450000000 1.0
C      1  0.4784340000000  0.5248370000000  0.4965040000000 1.0
C      1  0.4842590000000  0.5294140000000  0.5543030000000 1.0
C      1  0.4692820000000  0.4873700000000  0.4592950000000 1.0
C      1  0.4320380000000  0.4671190000000  0.5077150000000 1.0
C      1  0.5189130000000  0.4673880000000  0.5224460000000 1.0
C      1  0.5663060000000  0.5190780000000  0.5019000000000 1.0
C      1  0.5316370000000  0.4798940000000  0.4496410000000 1.0
C      1  0.5796510000000  0.4689410000000  0.4844920000000 1.0
C      1  0.5513150000000  0.4349710000000  0.4643370000000 1.0
C      1  0.5076440000000  0.4634260000000  0.4368580000000 1.0
C      1  0.4636260000000  0.5149290000000  0.4476080000000 1.0
C      1  0.5708630000000  0.4946160000000  0.4809800000000 1.0
C      1  0.4803700000000  0.4645600000000  0.4415240000000 1.0
C      1  0.4983320000000  0.5630040000000  0.4714930000000 1.0
C      1  0.5417500000000  0.4516350000000  0.5090950000000 1.0
C      1  0.4975870000000  0.4510500000000  0.5399080000000 1.0
C      1  0.5065540000000  0.5401260000000  0.5730170000000 1.0
C      1  0.5317350000000  0.5295420000000  0.5740700000000 1.0
C      1  0.4438060000000  0.4762020000000  0.4770100000000 1.0
C      1  0.5605550000000  0.4478130000000  0.4881930000000 1.0
C      1  0.5273490000000  0.4961090000000  0.5342400000000 1.0
C      1  0.5174360000000  0.5407460000000  0.4612590000000 1.0
C      1  0.5468390000000  0.5499550000000  0.4659010000000 1.0
C      1  0.4785990000000  0.4847080000000  0.5296100000000 1.0
C      1  0.5462240000000  0.5302440000000  0.5257950000000 1.0
C      1  0.5388150000000  0.4966930000000  0.4721780000000 1.0
C      1  0.4809030000000  0.4679630000000  0.5578900000000 1.0
C      1  0.4405230000000  0.4968190000000  0.5570450000000 1.0
C      1  0.4473110000000  0.4888710000000  0.5286130000000 1.0
C      1  0.4566370000000  0.4463030000000  0.4771860000000 1.0
C      1  0.5152600000000  0.5269160000000  0.5119710000000 1.0
C      1  0.4664810000000  0.4410870000000  0.4506690000000 1.0
C      1  0.4907160000000  0.4717000000000  0.5038080000000 1.0
C      1  0.5559590000000  0.5483450000000  0.4917760000000 1.0
C      1  0.5068100000000  0.5597770000000  0.5160540000000 1.0
C      1  0.4756160000000  0.4444980000000  0.4978890000000 1.0
C      1  0.5078710000000  0.5324600000000  0.4329500000000 1.0
C      1  0.4972140000000  0.5090220000000  0.5331880000000 1.0
C      1  0.4821670000000  0.5242280000000  0.4285020000000 1.0
C      1  0.5437870000000  0.5159180000000  0.5539210000000 1.0
C      1  0.4483720000000  0.5439790000000  0.5146160000000 1.0
C      1  0.5147330000000  0.5160620000000  0.4822690000000 1.0
C      1  0.4344080000000  0.4999750000000  0.4995980000000 1.0
C      1  0.5410040000000  0.4964010000000  0.5060310000000 1.0
C      1  0.4641110000000  0.4836850000000  0.5753680000000 1.0
C      1  0.4388870000000  0.5284370000000  0.4937890000000 1.0
C      1  0.4554150000000  0.5309870000000  0.4693620000000 1.0
END
