TITL C-2778422-5617-1430 8.95180450267815e-05 125000 -693.122983114497 0 0 120 (C1) n - 1
REM
REM in /home/nfs/bkarasulu/CARBON/AIRSS/Generating-Clusters/REBO/Only-C1/SD-CG/HFTN-CG
REM
REM
REM
REM
REM
REM ./C.cell (11c1c37f851c82e70ff6c80c92926a4b)
REM
REM compiler GCC version 9.2.1 20190827 (Red Hat 9.2.1-1)
REM options -cpp -mtune=generic -march=x86-64 -g -O0 -fpre-include=/usr/include/finclude/math-vector-fortran.h
REM seed 1456073806 -1310697964 -921098142 1952383561 -494563606 -618847427 -523792893 1656730320 1880368189 -1277665255 -415467691 1634080507 1424160736 -935467186 616864110 -36755136 377958304 1931949618 -1758194193 -1587891508 -1517337927 1186302070 -2017417172 2096489180 -1329904784 2137841027 -11353872 -1058099637 1978536978 889033091 313893661 -1992382579 -389865583
REM
CELL 1.54180   50.00000   50.00000   50.00000   90.00000   90.00000   90.00000
LATT -1
SFAC C  
C      1  0.5488860000000  0.4834400000000  0.4441820000000 1.0
C      1  0.4857060000000  0.4688480000000  0.4864330000000 1.0
C      1  0.5193010000000  0.5129900000000  0.4861480000000 1.0
C      1  0.4644180000000  0.5964260000000  0.5208570000000 1.0
C      1  0.6008730000000  0.4878050000000  0.4778740000000 1.0
C      1  0.4558920000000  0.4722420000000  0.5381510000000 1.0
C      1  0.4151170000000  0.4496180000000  0.4941200000000 1.0
C      1  0.4914820000000  0.4266520000000  0.4314330000000 1.0
C      1  0.5101490000000  0.4093530000000  0.5364780000000 1.0
C      1  0.4852850000000  0.4590380000000  0.5388360000000 1.0
C      1  0.5399680000000  0.5294230000000  0.4262470000000 1.0
C      1  0.5422990000000  0.4638630000000  0.4158820000000 1.0
C      1  0.4993860000000  0.4772940000000  0.5166710000000 1.0
C      1  0.5291590000000  0.5293760000000  0.6068910000000 1.0
C      1  0.5706780000000  0.5599620000000  0.5162930000000 1.0
C      1  0.5464380000000  0.4610250000000  0.5080970000000 1.0
C      1  0.4946960000000  0.5547420000000  0.4069530000000 1.0
C      1  0.5605880000000  0.5486460000000  0.4296150000000 1.0
C      1  0.5942320000000  0.5410310000000  0.4675360000000 1.0
C      1  0.4241050000000  0.4369830000000  0.5583490000000 1.0
C      1  0.4312160000000  0.4880350000000  0.4436680000000 1.0
C      1  0.4523670000000  0.4765110000000  0.4878780000000 1.0
C      1  0.5911160000000  0.4624740000000  0.5295480000000 1.0
C      1  0.4973410000000  0.4087150000000  0.5066170000000 1.0
C      1  0.5508240000000  0.5243340000000  0.4784060000000 1.0
C      1  0.4289070000000  0.4407790000000  0.4650500000000 1.0
C      1  0.4458690000000  0.5468570000000  0.4479880000000 1.0
C      1  0.4899290000000  0.4410160000000  0.5037210000000 1.0
C      1  0.4725420000000  0.4942760000000  0.4529580000000 1.0
C      1  0.5312430000000  0.4882660000000  0.3983650000000 1.0
C      1  0.4334510000000  0.5261970000000  0.5484100000000 1.0
C      1  0.5290870000000  0.5760740000000  0.5458880000000 1.0
C      1  0.5131750000000  0.5071530000000  0.3879210000000 1.0
C      1  0.5459370000000  0.5267520000000  0.5829290000000 1.0
C      1  0.4282060000000  0.4996910000000  0.4816360000000 1.0
C      1  0.5272890000000  0.5680180000000  0.4991140000000 1.0
C      1  0.4148010000000  0.4362100000000  0.5316200000000 1.0
C      1  0.4792570000000  0.4520130000000  0.4260010000000 1.0
C      1  0.5021340000000  0.5170090000000  0.5481550000000 1.0
C      1  0.4823470000000  0.4249300000000  0.5395270000000 1.0
C      1  0.5813740000000  0.5142850000000  0.4733480000000 1.0
C      1  0.4562980000000  0.5044010000000  0.5383260000000 1.0
C      1  0.5195310000000  0.4700410000000  0.4474290000000 1.0
C      1  0.5335480000000  0.4327150000000  0.5448120000000 1.0
C      1  0.4773030000000  0.5496520000000  0.5644570000000 1.0
C      1  0.4180620000000  0.4712690000000  0.4680650000000 1.0
C      1  0.4588510000000  0.5779430000000  0.4931540000000 1.0
C      1  0.5145540000000  0.5681960000000  0.4290640000000 1.0
C      1  0.4731050000000  0.5282670000000  0.5907760000000 1.0
C      1  0.5517020000000  0.5023980000000  0.4188420000000 1.0
C      1  0.5846400000000  0.5514150000000  0.4426250000000 1.0
C      1  0.5145950000000  0.5792780000000  0.5229420000000 1.0
C      1  0.4517900000000  0.5303860000000  0.4916290000000 1.0
C      1  0.4801020000000  0.4445720000000  0.4652860000000 1.0
C      1  0.4560790000000  0.4719010000000  0.4313420000000 1.0
C      1  0.5197410000000  0.4838790000000  0.5617820000000 1.0
C      1  0.5328520000000  0.5786040000000  0.4477250000000 1.0
C      1  0.4588360000000  0.5540370000000  0.4740840000000 1.0
C      1  0.5470040000000  0.5541610000000  0.4667840000000 1.0
C      1  0.4889820000000  0.5635700000000  0.4447970000000 1.0
C      1  0.4845890000000  0.4642270000000  0.5891990000000 1.0
C      1  0.4145470000000  0.4894920000000  0.5328590000000 1.0
C      1  0.4370250000000  0.4284550000000  0.5097120000000 1.0
C      1  0.4542530000000  0.4371580000000  0.4581830000000 1.0
C      1  0.5844460000000  0.4631800000000  0.4760700000000 1.0
C      1  0.4917030000000  0.5622390000000  0.4769950000000 1.0
C      1  0.5642130000000  0.5756920000000  0.4867580000000 1.0
C      1  0.4943150000000  0.5052800000000  0.5003570000000 1.0
C      1  0.5419240000000  0.4886080000000  0.4934870000000 1.0
C      1  0.4999240000000  0.5202820000000  0.6010800000000 1.0
C      1  0.4584390000000  0.4527320000000  0.5102430000000 1.0
C      1  0.5628450000000  0.4460740000000  0.4858480000000 1.0
C      1  0.5543930000000  0.5014830000000  0.5711840000000 1.0
C      1  0.4937680000000  0.4741250000000  0.4420800000000 1.0
C      1  0.5581500000000  0.4986410000000  0.5420480000000 1.0
C      1  0.4833370000000  0.4399520000000  0.5672730000000 1.0
C      1  0.5619850000000  0.4870970000000  0.4697660000000 1.0
C      1  0.5346380000000  0.5898330000000  0.4774930000000 1.0
C      1  0.5599840000000  0.5657610000000  0.5439760000000 1.0
C      1  0.4459710000000  0.5403130000000  0.5752850000000 1.0
C      1  0.4793090000000  0.5044670000000  0.5592730000000 1.0
C      1  0.5923140000000  0.5591530000000  0.4899530000000 1.0
C      1  0.4384650000000  0.4606060000000  0.5634840000000 1.0
C      1  0.4185120000000  0.5106340000000  0.5073670000000 1.0
C      1  0.5033230000000  0.5324600000000  0.3914260000000 1.0
C      1  0.4593140000000  0.5442460000000  0.5379830000000 1.0
C      1  0.5343980000000  0.4003020000000  0.5553280000000 1.0
C      1  0.4908440000000  0.5837570000000  0.5033930000000 1.0
C      1  0.5101460000000  0.4590730000000  0.5701630000000 1.0
C      1  0.5145660000000  0.5015290000000  0.5827540000000 1.0
C      1  0.5074490000000  0.5443180000000  0.5566470000000 1.0
C      1  0.5454720000000  0.5428180000000  0.5050960000000 1.0
C      1  0.5536820000000  0.4724900000000  0.5793420000000 1.0
C      1  0.4059700000000  0.4640580000000  0.5222560000000 1.0
C      1  0.5138150000000  0.5293700000000  0.4383970000000 1.0
C      1  0.5441040000000  0.5128620000000  0.5172290000000 1.0
C      1  0.5194620000000  0.4212110000000  0.4844490000000 1.0
C      1  0.4679510000000  0.5041430000000  0.4813150000000 1.0
C      1  0.5383150000000  0.5486530000000  0.5637200000000 1.0
C      1  0.5451230000000  0.4318810000000  0.4686760000000 1.0
C      1  0.5505690000000  0.4546070000000  0.5575930000000 1.0
C      1  0.4058210000000  0.5288400000000  0.5332190000000 1.0
C      1  0.5195350000000  0.4969500000000  0.5320390000000 1.0
C      1  0.4873110000000  0.5225080000000  0.4292190000000 1.0
C      1  0.4269900000000  0.4887680000000  0.5602660000000 1.0
C      1  0.5780630000000  0.5039080000000  0.4088940000000 1.0
C      1  0.4665650000000  0.5492270000000  0.4256090000000 1.0
C      1  0.5392150000000  0.4447470000000  0.4436500000000 1.0
C      1  0.5637720000000  0.4683300000000  0.5329460000000 1.0
C      1  0.4449290000000  0.5686130000000  0.5224950000000 1.0
C      1  0.4643290000000  0.4131060000000  0.5151350000000 1.0
C      1  0.4307040000000  0.5196760000000  0.4541580000000 1.0
C      1  0.4458920000000  0.5069150000000  0.5809270000000 1.0
C      1  0.4550980000000  0.5114920000000  0.4317910000000 1.0
C      1  0.4729360000000  0.4888980000000  0.5847430000000 1.0
C      1  0.5158520000000  0.5403420000000  0.4679290000000 1.0
C      1  0.5225920000000  0.4394440000000  0.5133050000000 1.0
C      1  0.5013470000000  0.4248990000000  0.4597430000000 1.0
C      1  0.4719690000000  0.5225680000000  0.5162750000000 1.0
C      1  0.4288870000000  0.5424750000000  0.5122000000000 1.0
END
