TITL C-2778428-5639-617 0.0133774801363067 125000 -930.143736815043 0 0 162 (C1) n - 1
REM
REM in /home/nfs/bkarasulu/CARBON/AIRSS/Generating-Clusters/REBO/Only-C1/SD-CG/HFTN-CG
REM
REM
REM
REM
REM
REM ./C.cell (11c1c37f851c82e70ff6c80c92926a4b)
REM
REM compiler GCC version 9.2.1 20190827 (Red Hat 9.2.1-1)
REM options -cpp -mtune=generic -march=x86-64 -g -O0 -fpre-include=/usr/include/finclude/math-vector-fortran.h
REM seed -2033512259 -133244325 -769800886 -388922115 385723430 -141042446 -1487118261 -2045660447 -1259874585 -1590001511 1032329283 -255369087 -314523055 -1890644793 -339557724 1486321544 -1636931781 1884934420 959967761 1704340863 2004611578 -945073028 1663384014 2079356938 104056178 -836100350 -662415266 1484633428 1642544320 1162748604 -1788306806 -1459471613 126040285
REM
CELL 1.54180   50.00000   50.00000   50.00000   90.00000   90.00000   90.00000
LATT -1
SFAC C  
C      1  0.3988160000000  0.4893470000000  0.4885910000000 1.0
C      1  0.5993220000000  0.4874620000000  0.5032980000000 1.0
C      1  0.5736760000000  0.5257020000000  0.4327190000000 1.0
C      1  0.5554210000000  0.4305900000000  0.4464110000000 1.0
C      1  0.4599840000000  0.5631340000000  0.4244340000000 1.0
C      1  0.4333690000000  0.4986700000000  0.5291920000000 1.0
C      1  0.4655470000000  0.4135970000000  0.5352950000000 1.0
C      1  0.5753280000000  0.5652840000000  0.5506370000000 1.0
C      1  0.4838870000000  0.3884050000000  0.5045360000000 1.0
C      1  0.5452180000000  0.5618190000000  0.4320380000000 1.0
C      1  0.5126300000000  0.5671250000000  0.5683780000000 1.0
C      1  0.4775570000000  0.4155900000000  0.4443970000000 1.0
C      1  0.4215120000000  0.4781470000000  0.5520560000000 1.0
C      1  0.4987680000000  0.5095850000000  0.4037250000000 1.0
C      1  0.5271290000000  0.5140270000000  0.5684720000000 1.0
C      1  0.4846900000000  0.5959080000000  0.5443320000000 1.0
C      1  0.4453010000000  0.4230100000000  0.5004000000000 1.0
C      1  0.4874700000000  0.5461430000000  0.5590180000000 1.0
C      1  0.5936540000000  0.4606560000000  0.4627200000000 1.0
C      1  0.4336800000000  0.5566170000000  0.4723040000000 1.0
C      1  0.4032300000000  0.5120160000000  0.5378140000000 1.0
C      1  0.5866760000000  0.5078110000000  0.4537550000000 1.0
C      1  0.5125020000000  0.4856170000000  0.6017540000000 1.0
C      1  0.4434300000000  0.4510310000000  0.4443010000000 1.0
C      1  0.5387520000000  0.4987780000000  0.4492000000000 1.0
C      1  0.5549090000000  0.5876630000000  0.4716940000000 1.0
C      1  0.4995340000000  0.5172920000000  0.5524820000000 1.0
C      1  0.4455910000000  0.5069850000000  0.5908350000000 1.0
C      1  0.5906500000000  0.5368590000000  0.5254940000000 1.0
C      1  0.4103980000000  0.5059330000000  0.4321960000000 1.0
C      1  0.5084780000000  0.4313980000000  0.5137880000000 1.0
C      1  0.4327340000000  0.4270340000000  0.4574120000000 1.0
C      1  0.4659120000000  0.5003770000000  0.5653150000000 1.0
C      1  0.4771230000000  0.5029350000000  0.4290950000000 1.0
C      1  0.5294680000000  0.5432570000000  0.5833680000000 1.0
C      1  0.5411820000000  0.5507790000000  0.5099600000000 1.0
C      1  0.5265270000000  0.4828800000000  0.4889510000000 1.0
C      1  0.4328980000000  0.5402460000000  0.5085410000000 1.0
C      1  0.4919780000000  0.5389270000000  0.4865920000000 1.0
C      1  0.5716390000000  0.5516950000000  0.4439620000000 1.0
C      1  0.4619180000000  0.5022080000000  0.5340940000000 1.0
C      1  0.4786590000000  0.5440650000000  0.5145380000000 1.0
C      1  0.5683520000000  0.4864760000000  0.5976050000000 1.0
C      1  0.4885700000000  0.4571350000000  0.4129430000000 1.0
C      1  0.5841310000000  0.5484700000000  0.4952210000000 1.0
C      1  0.5997450000000  0.4620370000000  0.4913750000000 1.0
C      1  0.4055800000000  0.5431620000000  0.4642890000000 1.0
C      1  0.4016860000000  0.5341520000000  0.5156810000000 1.0
C      1  0.5074530000000  0.4840560000000  0.5154210000000 1.0
C      1  0.4568250000000  0.4705430000000  0.5103050000000 1.0
C      1  0.4572990000000  0.4483020000000  0.4862930000000 1.0
C      1  0.5442640000000  0.5729820000000  0.5427980000000 1.0
C      1  0.4877140000000  0.4461070000000  0.5516470000000 1.0
C      1  0.5981870000000  0.4867890000000  0.5314070000000 1.0
C      1  0.5557490000000  0.4495730000000  0.5671450000000 1.0
C      1  0.5695680000000  0.4870710000000  0.5681180000000 1.0
C      1  0.5562940000000  0.5413330000000  0.5668190000000 1.0
C      1  0.5406840000000  0.4703630000000  0.5899440000000 1.0
C      1  0.5536790000000  0.4346130000000  0.5370200000000 1.0
C      1  0.4704730000000  0.4472920000000  0.5802710000000 1.0
C      1  0.4755120000000  0.5219400000000  0.5981130000000 1.0
C      1  0.5631970000000  0.4732170000000  0.5176660000000 1.0
C      1  0.4607510000000  0.4777480000000  0.4328250000000 1.0
C      1  0.4079570000000  0.4359780000000  0.5037610000000 1.0
C      1  0.4786550000000  0.4961050000000  0.5050570000000 1.0
C      1  0.4807200000000  0.5607580000000  0.4624180000000 1.0
C      1  0.5608990000000  0.4935520000000  0.4715080000000 1.0
C      1  0.4505300000000  0.4329200000000  0.5560830000000 1.0
C      1  0.5068560000000  0.4873860000000  0.4523670000000 1.0
C      1  0.4564000000000  0.3975610000000  0.4880140000000 1.0
C      1  0.5447040000000  0.4968350000000  0.5526590000000 1.0
C      1  0.4539700000000  0.4079290000000  0.4592230000000 1.0
C      1  0.4589440000000  0.5088210000000  0.4578490000000 1.0
C      1  0.4769790000000  0.4313660000000  0.4192400000000 1.0
C      1  0.4119600000000  0.5327820000000  0.4362590000000 1.0
C      1  0.5360390000000  0.5873670000000  0.4433970000000 1.0
C      1  0.5888250000000  0.4130570000000  0.4829300000000 1.0
C      1  0.5319290000000  0.3908610000000  0.5090250000000 1.0
C      1  0.5178760000000  0.5937080000000  0.5476950000000 1.0
C      1  0.5342550000000  0.5455090000000  0.4090890000000 1.0
C      1  0.5714540000000  0.4392860000000  0.4711440000000 1.0
C      1  0.5287810000000  0.4444700000000  0.5277840000000 1.0
C      1  0.5672730000000  0.4242460000000  0.5145390000000 1.0
C      1  0.3860310000000  0.5518210000000  0.4909960000000 1.0
C      1  0.4896370000000  0.4494380000000  0.4966950000000 1.0
C      1  0.4232650000000  0.4957630000000  0.4695560000000 1.0
C      1  0.5584490000000  0.5164660000000  0.4935480000000 1.0
C      1  0.5020750000000  0.4546340000000  0.5906460000000 1.0
C      1  0.5056840000000  0.5419040000000  0.4097660000000 1.0
C      1  0.4996000000000  0.4316220000000  0.4625800000000 1.0
C      1  0.5936940000000  0.4365520000000  0.5042110000000 1.0
C      1  0.4943620000000  0.4920990000000  0.5735760000000 1.0
C      1  0.4908280000000  0.5620520000000  0.4297300000000 1.0
C      1  0.4800260000000  0.5784760000000  0.4982100000000 1.0
C      1  0.4518260000000  0.4744930000000  0.5829800000000 1.0
C      1  0.5528780000000  0.5033600000000  0.5217030000000 1.0
C      1  0.4222340000000  0.5092530000000  0.5660010000000 1.0
C      1  0.5331650000000  0.6040600000000  0.5204680000000 1.0
C      1  0.5367680000000  0.5382850000000  0.4788170000000 1.0
C      1  0.5259580000000  0.4728220000000  0.5369950000000 1.0
C      1  0.4398670000000  0.5800580000000  0.5419280000000 1.0
C      1  0.5060890000000  0.5274020000000  0.5223290000000 1.0
C      1  0.5171280000000  0.4709750000000  0.5653330000000 1.0
C      1  0.5209140000000  0.4564700000000  0.4728860000000 1.0
C      1  0.5094470000000  0.5194500000000  0.5978560000000 1.0
C      1  0.4473680000000  0.6012600000000  0.4972350000000 1.0
C      1  0.5447570000000  0.6015410000000  0.4990850000000 1.0
C      1  0.5241590000000  0.5466520000000  0.5438960000000 1.0
C      1  0.4264070000000  0.4780660000000  0.5051390000000 1.0
C      1  0.6022050000000  0.5115320000000  0.5433870000000 1.0
C      1  0.5597030000000  0.4759780000000  0.4337510000000 1.0
C      1  0.4516930000000  0.4786320000000  0.4717350000000 1.0
C      1  0.4581550000000  0.6001550000000  0.5459430000000 1.0
C      1  0.5019970000000  0.5905660000000  0.4772530000000 1.0
C      1  0.4834860000000  0.4797820000000  0.3972560000000 1.0
C      1  0.5570020000000  0.4658350000000  0.4870400000000 1.0
C      1  0.5479870000000  0.4110150000000  0.4955830000000 1.0
C      1  0.4712200000000  0.4423660000000  0.5232320000000 1.0
C      1  0.4860210000000  0.4772040000000  0.4773090000000 1.0
C      1  0.5074910000000  0.5860950000000  0.4473320000000 1.0
C      1  0.4641560000000  0.5389420000000  0.5757530000000 1.0
C      1  0.5506190000000  0.5211790000000  0.4119260000000 1.0
C      1  0.4911220000000  0.5670410000000  0.5347680000000 1.0
C      1  0.4452750000000  0.5735650000000  0.4492900000000 1.0
C      1  0.4294870000000  0.5471980000000  0.4207900000000 1.0
C      1  0.5343910000000  0.5325540000000  0.4468700000000 1.0
C      1  0.5904710000000  0.5157590000000  0.4866300000000 1.0
C      1  0.5294310000000  0.4246610000000  0.4781540000000 1.0
C      1  0.5892440000000  0.5365810000000  0.5599600000000 1.0
C      1  0.5278490000000  0.5714720000000  0.4788670000000 1.0
C      1  0.4531350000000  0.4660140000000  0.5498720000000 1.0
C      1  0.5680350000000  0.5686060000000  0.5180180000000 1.0
C      1  0.5058680000000  0.4025970000000  0.5124140000000 1.0
C      1  0.4638080000000  0.3654620000000  0.4963020000000 1.0
C      1  0.5108980000000  0.5667890000000  0.5080380000000 1.0
C      1  0.5765380000000  0.5647700000000  0.4691400000000 1.0
C      1  0.4071460000000  0.4553310000000  0.5317710000000 1.0
C      1  0.5158080000000  0.5151910000000  0.4923870000000 1.0
C      1  0.5112120000000  0.4640190000000  0.4310480000000 1.0
C      1  0.4838860000000  0.4764120000000  0.5388720000000 1.0
C      1  0.3941230000000  0.5194710000000  0.4858450000000 1.0
C      1  0.5309640000000  0.5007010000000  0.4052860000000 1.0
C      1  0.4401660000000  0.5357580000000  0.5618930000000 1.0
C      1  0.5274590000000  0.4349070000000  0.5788130000000 1.0
C      1  0.5359010000000  0.4759700000000  0.4165640000000 1.0
C      1  0.4471930000000  0.5689710000000  0.4998890000000 1.0
C      1  0.4374180000000  0.5239970000000  0.4788500000000 1.0
C      1  0.4131180000000  0.4304240000000  0.4779300000000 1.0
C      1  0.5320500000000  0.4438200000000  0.4432710000000 1.0
C      1  0.5857200000000  0.4787610000000  0.4439340000000 1.0
C      1  0.4636770000000  0.5892450000000  0.4698310000000 1.0
C      1  0.5051620000000  0.5184780000000  0.4419590000000 1.0
C      1  0.4817820000000  0.5292420000000  0.4583820000000 1.0
C      1  0.5099030000000  0.4258460000000  0.5576320000000 1.0
C      1  0.3967640000000  0.4846180000000  0.5215430000000 1.0
C      1  0.4361300000000  0.5521380000000  0.5390960000000 1.0
C      1  0.5775950000000  0.4651330000000  0.5458870000000 1.0
C      1  0.5584550000000  0.5332760000000  0.5336720000000 1.0
C      1  0.4279460000000  0.4807060000000  0.4399350000000 1.0
C      1  0.4301770000000  0.4309030000000  0.5292230000000 1.0
C      1  0.4459290000000  0.5543980000000  0.3948240000000 1.0
C      1  0.4765480000000  0.4544990000000  0.4518350000000 1.0
END
