TITL C-2778436-5916-388 0.00187266316249661 125000 -539.179722619433 0 0 95 (C1) n - 1
REM
REM in /home/nfs/bkarasulu/CARBON/AIRSS/Generating-Clusters/REBO/Only-C1/SD-CG/HFTN-CG
REM
REM
REM
REM
REM
REM ./C.cell (11c1c37f851c82e70ff6c80c92926a4b)
REM
REM compiler GCC version 9.2.1 20190827 (Red Hat 9.2.1-1)
REM options -cpp -mtune=generic -march=x86-64 -g -O0 -fpre-include=/usr/include/finclude/math-vector-fortran.h
REM seed 1198865580 345226726 1932961951 -1618881370 -939304829 705599207 -1765746257 1573402541 -1313164159 -543373363 1536923054 634389960 -839985740 -2077261442 2001960179 -561663144 -509361502 1779963987 1582628219 -1251501258 -1354248667 2144537317 -2124041270 -1123038021 1662289077 64263266 -1633356744 740151151 1946942367 -420626272 431249838 -1771420348 -1216875868
REM
CELL 1.54180   50.00000   50.00000   50.00000   90.00000   90.00000   90.00000
LATT -1
SFAC C  
C      1  0.4610780000000  0.4968320000000  0.5631380000000 1.0
C      1  0.4537150000000  0.4658650000000  0.5626650000000 1.0
C      1  0.4771000000000  0.4459790000000  0.5674350000000 1.0
C      1  0.5474490000000  0.5361050000000  0.5510800000000 1.0
C      1  0.5538990000000  0.5514170000000  0.4242090000000 1.0
C      1  0.4594730000000  0.5330350000000  0.4472480000000 1.0
C      1  0.5338750000000  0.4596200000000  0.4933570000000 1.0
C      1  0.5760420000000  0.5162920000000  0.5016900000000 1.0
C      1  0.4386280000000  0.5407160000000  0.4653490000000 1.0
C      1  0.5426770000000  0.5313490000000  0.4630940000000 1.0
C      1  0.5248280000000  0.4879670000000  0.5018530000000 1.0
C      1  0.5726120000000  0.5302240000000  0.5671940000000 1.0
C      1  0.4853220000000  0.4204210000000  0.4598980000000 1.0
C      1  0.5431000000000  0.5454830000000  0.5249010000000 1.0
C      1  0.5290520000000  0.5032980000000  0.4508920000000 1.0
C      1  0.4879710000000  0.5360850000000  0.4595250000000 1.0
C      1  0.5576740000000  0.5591110000000  0.4760270000000 1.0
C      1  0.5665330000000  0.4914480000000  0.5332180000000 1.0
C      1  0.4732780000000  0.5741560000000  0.4896490000000 1.0
C      1  0.5034720000000  0.5619040000000  0.4458250000000 1.0
C      1  0.5087380000000  0.4647910000000  0.4600590000000 1.0
C      1  0.5288910000000  0.4553050000000  0.4344440000000 1.0
C      1  0.5076480000000  0.5349210000000  0.5511480000000 1.0
C      1  0.5403520000000  0.4717880000000  0.5558800000000 1.0
C      1  0.5753440000000  0.4598300000000  0.4327310000000 1.0
C      1  0.4839860000000  0.5198870000000  0.5089280000000 1.0
C      1  0.4574440000000  0.4990140000000  0.4835160000000 1.0
C      1  0.4967710000000  0.4744380000000  0.5127330000000 1.0
C      1  0.4723490000000  0.4762090000000  0.4325130000000 1.0
C      1  0.4283990000000  0.5163680000000  0.4803480000000 1.0
C      1  0.5599770000000  0.4998900000000  0.4575970000000 1.0
C      1  0.5815030000000  0.5415350000000  0.5144610000000 1.0
C      1  0.4401570000000  0.4826700000000  0.4394400000000 1.0
C      1  0.4535270000000  0.5114420000000  0.4312660000000 1.0
C      1  0.4710490000000  0.5505880000000  0.5141540000000 1.0
C      1  0.4945270000000  0.5013490000000  0.5682560000000 1.0
C      1  0.4585360000000  0.5335900000000  0.5480660000000 1.0
C      1  0.4292890000000  0.5483350000000  0.5513230000000 1.0
C      1  0.4936870000000  0.4866710000000  0.4198970000000 1.0
C      1  0.4328890000000  0.5141520000000  0.5545040000000 1.0
C      1  0.4923090000000  0.5755060000000  0.5247030000000 1.0
C      1  0.5656090000000  0.4564380000000  0.4815050000000 1.0
C      1  0.4864980000000  0.5106280000000  0.4788730000000 1.0
C      1  0.5793490000000  0.5170060000000  0.4734110000000 1.0
C      1  0.4567270000000  0.4821510000000  0.5102850000000 1.0
C      1  0.4160820000000  0.5205110000000  0.5090170000000 1.0
C      1  0.4804380000000  0.5478710000000  0.5619000000000 1.0
C      1  0.4792620000000  0.4086440000000  0.4884530000000 1.0
C      1  0.4176140000000  0.5013300000000  0.5305720000000 1.0
C      1  0.5676500000000  0.4712440000000  0.4552080000000 1.0
C      1  0.4654450000000  0.4382500000000  0.5363310000000 1.0
C      1  0.4425710000000  0.5613940000000  0.4861260000000 1.0
C      1  0.5308600000000  0.5562080000000  0.4340850000000 1.0
C      1  0.4308300000000  0.4471170000000  0.4784450000000 1.0
C      1  0.4643750000000  0.4216940000000  0.5089140000000 1.0
C      1  0.5271430000000  0.5130840000000  0.5666210000000 1.0
C      1  0.5102870000000  0.4925530000000  0.4739800000000 1.0
C      1  0.5363910000000  0.4164450000000  0.4765880000000 1.0
C      1  0.4291680000000  0.4860510000000  0.4698360000000 1.0
C      1  0.4197990000000  0.4738190000000  0.5229730000000 1.0
C      1  0.5805880000000  0.5438150000000  0.4635700000000 1.0
C      1  0.5157780000000  0.5377300000000  0.4799450000000 1.0
C      1  0.5209070000000  0.4847460000000  0.4277170000000 1.0
C      1  0.5127300000000  0.4806410000000  0.5485800000000 1.0
C      1  0.5927610000000  0.4809040000000  0.5184510000000 1.0
C      1  0.4465370000000  0.5743150000000  0.5390610000000 1.0
C      1  0.5026970000000  0.5687300000000  0.4772510000000 1.0
C      1  0.4755470000000  0.4866710000000  0.5363900000000 1.0
C      1  0.4377540000000  0.4580530000000  0.5383370000000 1.0
C      1  0.4514960000000  0.4512020000000  0.5014430000000 1.0
C      1  0.4814020000000  0.4576250000000  0.4905660000000 1.0
C      1  0.5438890000000  0.4381290000000  0.5509500000000 1.0
C      1  0.5571130000000  0.4273720000000  0.4919670000000 1.0
C      1  0.5059810000000  0.5090210000000  0.5307470000000 1.0
C      1  0.5231300000000  0.5273940000000  0.5082450000000 1.0
C      1  0.5482690000000  0.5051940000000  0.5118570000000 1.0
C      1  0.5088000000000  0.5839090000000  0.5049450000000 1.0
C      1  0.4740520000000  0.5735060000000  0.5479800000000 1.0
C      1  0.4540020000000  0.5150540000000  0.5199020000000 1.0
C      1  0.4771000000000  0.4528950000000  0.4569150000000 1.0
C      1  0.4476670000000  0.5828090000000  0.5112260000000 1.0
C      1  0.5114340000000  0.4425610000000  0.4937300000000 1.0
C      1  0.5555660000000  0.4289860000000  0.5203540000000 1.0
C      1  0.4374130000000  0.5443740000000  0.5142520000000 1.0
C      1  0.4435110000000  0.4523900000000  0.4537610000000 1.0
C      1  0.5625320000000  0.4591880000000  0.5328810000000 1.0
C      1  0.5897260000000  0.4658020000000  0.4987780000000 1.0
C      1  0.5605750000000  0.5615200000000  0.5053770000000 1.0
C      1  0.4159560000000  0.4683400000000  0.4949300000000 1.0
C      1  0.5091410000000  0.4128830000000  0.4909830000000 1.0
C      1  0.4954560000000  0.4543190000000  0.5403510000000 1.0
C      1  0.5166260000000  0.4315980000000  0.4556480000000 1.0
C      1  0.4859210000000  0.5795050000000  0.4283380000000 1.0
C      1  0.4985110000000  0.5311030000000  0.5842280000000 1.0
C      1  0.5581860000000  0.4996910000000  0.5630040000000 1.0
END
