TITL C-2778435-5768-1463 0.00488822821224239 125000 -549.858230103168 0 0 94 (C1) n - 1
REM
REM in /home/nfs/bkarasulu/CARBON/AIRSS/Generating-Clusters/REBO/Only-C1/SD-CG/HFTN-CG
REM
REM
REM
REM
REM
REM ./C.cell (11c1c37f851c82e70ff6c80c92926a4b)
REM
REM compiler GCC version 9.2.1 20190827 (Red Hat 9.2.1-1)
REM options -cpp -mtune=generic -march=x86-64 -g -O0 -fpre-include=/usr/include/finclude/math-vector-fortran.h
REM seed -186608287 -1972288639 2061305507 -1291791520 2100527292 -1985961369 1060088288 -587012170 104385594 -1349575219 1313274404 1356341201 2087033807 1165175574 -301564667 2106457724 -779982973 -105927006 2004253482 -247331054 690715647 -226800764 965054632 -1498854376 918631425 -436524023 997866483 1705352985 55415153 863093088 2094945072 -55597718 1017423397
REM
CELL 1.54180   50.00000   50.00000   50.00000   90.00000   90.00000   90.00000
LATT -1
SFAC C  
C      1  0.4880710000000  0.4491940000000  0.5782880000000 1.0
C      1  0.4259910000000  0.5459560000000  0.4659180000000 1.0
C      1  0.5279000000000  0.4215430000000  0.5350450000000 1.0
C      1  0.4822240000000  0.4315350000000  0.5553160000000 1.0
C      1  0.5213970000000  0.5395660000000  0.5533350000000 1.0
C      1  0.5561960000000  0.4945800000000  0.5352800000000 1.0
C      1  0.5633310000000  0.5022090000000  0.5619460000000 1.0
C      1  0.4636070000000  0.4644860000000  0.4764370000000 1.0
C      1  0.4830490000000  0.5698110000000  0.4475650000000 1.0
C      1  0.4495400000000  0.5006760000000  0.4882020000000 1.0
C      1  0.4604480000000  0.4453230000000  0.5111550000000 1.0
C      1  0.5013930000000  0.4298320000000  0.5337880000000 1.0
C      1  0.5350640000000  0.4572930000000  0.4451670000000 1.0
C      1  0.5092620000000  0.5927430000000  0.5251440000000 1.0
C      1  0.4863190000000  0.5174850000000  0.4297570000000 1.0
C      1  0.5702270000000  0.4696040000000  0.4973040000000 1.0
C      1  0.5982940000000  0.5316880000000  0.4581590000000 1.0
C      1  0.5337570000000  0.5162780000000  0.4346510000000 1.0
C      1  0.4958340000000  0.4703720000000  0.5453020000000 1.0
C      1  0.4937310000000  0.5436280000000  0.5355810000000 1.0
C      1  0.4175580000000  0.5105360000000  0.5098990000000 1.0
C      1  0.5301220000000  0.4175150000000  0.4809650000000 1.0
C      1  0.5407350000000  0.4968660000000  0.5789770000000 1.0
C      1  0.4250010000000  0.4944600000000  0.4639350000000 1.0
C      1  0.5115200000000  0.5566250000000  0.4940310000000 1.0
C      1  0.5087680000000  0.5029910000000  0.4205810000000 1.0
C      1  0.4348170000000  0.5291290000000  0.5324410000000 1.0
C      1  0.5527120000000  0.4801360000000  0.4632060000000 1.0
C      1  0.4294920000000  0.4448420000000  0.4734670000000 1.0
C      1  0.4649310000000  0.4734370000000  0.4367590000000 1.0
C      1  0.4890320000000  0.5071730000000  0.5776390000000 1.0
C      1  0.5360980000000  0.4696330000000  0.5827900000000 1.0
C      1  0.5800800000000  0.5520680000000  0.4538280000000 1.0
C      1  0.4906920000000  0.5769000000000  0.4935360000000 1.0
C      1  0.5233580000000  0.4563890000000  0.5540640000000 1.0
C      1  0.4505150000000  0.5523810000000  0.4860380000000 1.0
C      1  0.4591230000000  0.4361210000000  0.4613220000000 1.0
C      1  0.4535480000000  0.5271560000000  0.5048670000000 1.0
C      1  0.4893090000000  0.5244430000000  0.4603770000000 1.0
C      1  0.5668670000000  0.4282780000000  0.4809940000000 1.0
C      1  0.4429200000000  0.4831030000000  0.5381470000000 1.0
C      1  0.5170590000000  0.5082730000000  0.5627290000000 1.0
C      1  0.5830480000000  0.4875770000000  0.4766490000000 1.0
C      1  0.5356680000000  0.5031000000000  0.4721660000000 1.0
C      1  0.4559500000000  0.4356920000000  0.5419120000000 1.0
C      1  0.5465540000000  0.4285550000000  0.4536610000000 1.0
C      1  0.5069860000000  0.4788920000000  0.5079490000000 1.0
C      1  0.4942650000000  0.4479400000000  0.5082070000000 1.0
C      1  0.4629190000000  0.5054930000000  0.4597080000000 1.0
C      1  0.5135480000000  0.4456300000000  0.4830150000000 1.0
C      1  0.4630280000000  0.5695260000000  0.5086280000000 1.0
C      1  0.4568610000000  0.5536170000000  0.4524520000000 1.0
C      1  0.5926710000000  0.5142940000000  0.4803120000000 1.0
C      1  0.4897440000000  0.4846340000000  0.4571990000000 1.0
C      1  0.4910970000000  0.5378260000000  0.5691530000000 1.0
C      1  0.5428790000000  0.5663330000000  0.4924420000000 1.0
C      1  0.5355770000000  0.4845440000000  0.4273350000000 1.0
C      1  0.5036830000000  0.4552170000000  0.4547870000000 1.0
C      1  0.5625310000000  0.5527810000000  0.5125480000000 1.0
C      1  0.5009750000000  0.5278830000000  0.4895850000000 1.0
C      1  0.4318210000000  0.4564190000000  0.5002670000000 1.0
C      1  0.4770790000000  0.4755200000000  0.5816420000000 1.0
C      1  0.5504580000000  0.5516140000000  0.4642520000000 1.0
C      1  0.4601800000000  0.5303820000000  0.4285750000000 1.0
C      1  0.5653100000000  0.4702550000000  0.5246880000000 1.0
C      1  0.5767690000000  0.5291700000000  0.4991560000000 1.0
C      1  0.4421670000000  0.5069120000000  0.5533910000000 1.0
C      1  0.4853430000000  0.5752790000000  0.5330720000000 1.0
C      1  0.4260590000000  0.4817490000000  0.5144550000000 1.0
C      1  0.5483780000000  0.4228380000000  0.5091690000000 1.0
C      1  0.4646170000000  0.4658340000000  0.5449810000000 1.0
C      1  0.5487660000000  0.4469910000000  0.5334370000000 1.0
C      1  0.5166640000000  0.4456410000000  0.5868850000000 1.0
C      1  0.4871510000000  0.5888680000000  0.4681680000000 1.0
C      1  0.4837930000000  0.4944600000000  0.5246700000000 1.0
C      1  0.4503530000000  0.5567410000000  0.5364920000000 1.0
C      1  0.4814300000000  0.4374920000000  0.4421520000000 1.0
C      1  0.5465030000000  0.5444830000000  0.5366470000000 1.0
C      1  0.4570240000000  0.5016610000000  0.5766560000000 1.0
C      1  0.4350770000000  0.5206620000000  0.4472140000000 1.0
C      1  0.4647200000000  0.4785750000000  0.5049000000000 1.0
C      1  0.5359500000000  0.5234270000000  0.5165350000000 1.0
C      1  0.5276050000000  0.5901930000000  0.5085470000000 1.0
C      1  0.4721990000000  0.4522600000000  0.4171440000000 1.0
C      1  0.5231250000000  0.4982810000000  0.5307170000000 1.0
C      1  0.4382200000000  0.4693630000000  0.4538030000000 1.0
C      1  0.4147170000000  0.5191070000000  0.4824030000000 1.0
C      1  0.5068100000000  0.5570630000000  0.4382710000000 1.0
C      1  0.5459700000000  0.5269200000000  0.4870240000000 1.0
C      1  0.4833720000000  0.5240570000000  0.5154840000000 1.0
C      1  0.5315000000000  0.5433200000000  0.4418150000000 1.0
C      1  0.4703390000000  0.5626780000000  0.5611260000000 1.0
C      1  0.5450730000000  0.4543700000000  0.4837420000000 1.0
C      1  0.5075770000000  0.4956180000000  0.4808770000000 1.0
END
