TITL C-2778426-5645-664 -0.00252820588112197 125000 -1052.90408721652 0 0 184 (C1) n - 1
REM
REM in /home/nfs/bkarasulu/CARBON/AIRSS/Generating-Clusters/REBO/Only-C1/SD-CG/HFTN-CG
REM
REM
REM
REM
REM
REM ./C.cell (11c1c37f851c82e70ff6c80c92926a4b)
REM
REM compiler GCC version 9.2.1 20190827 (Red Hat 9.2.1-1)
REM options -cpp -mtune=generic -march=x86-64 -g -O0 -fpre-include=/usr/include/finclude/math-vector-fortran.h
REM seed -682483048 -452274433 -548585637 -498303026 1461814112 -579171948 -2007269900 1705597594 -1505319429 1636005342 1897993965 -105135879 1417245209 1099740382 2133054317 -1405994668 733987172 1082099898 1588902804 -1795225698 -1899511432 1044306641 -1213151823 690131187 864985989 -457559527 30883633 -65837315 -1898836964 556006532 880510108 -1847778011 -1672186968
REM
CELL 1.54180   50.00000   50.00000   50.00000   90.00000   90.00000   90.00000
LATT -1
SFAC C  
C      1  0.5034940000000  0.4392730000000  0.5361180000000 1.0
C      1  0.4434190000000  0.3981430000000  0.5141180000000 1.0
C      1  0.5344290000000  0.5901490000000  0.5608020000000 1.0
C      1  0.5217070000000  0.6032390000000  0.5014440000000 1.0
C      1  0.4358500000000  0.5765490000000  0.4800120000000 1.0
C      1  0.5484510000000  0.5411840000000  0.5382730000000 1.0
C      1  0.5369400000000  0.4685570000000  0.4028060000000 1.0
C      1  0.6084690000000  0.4976110000000  0.5134920000000 1.0
C      1  0.4410990000000  0.5900650000000  0.5211230000000 1.0
C      1  0.4502110000000  0.5152460000000  0.4140860000000 1.0
C      1  0.5172290000000  0.4701110000000  0.4854220000000 1.0
C      1  0.4319060000000  0.4831650000000  0.5813720000000 1.0
C      1  0.4094140000000  0.4953990000000  0.5581400000000 1.0
C      1  0.5755520000000  0.4523410000000  0.4371440000000 1.0
C      1  0.4499100000000  0.5623500000000  0.5663790000000 1.0
C      1  0.4563330000000  0.4029870000000  0.5394100000000 1.0
C      1  0.3964220000000  0.4531690000000  0.4797190000000 1.0
C      1  0.4713230000000  0.5196530000000  0.5280030000000 1.0
C      1  0.4335830000000  0.5614980000000  0.4513170000000 1.0
C      1  0.4971410000000  0.5938210000000  0.4538450000000 1.0
C      1  0.4874900000000  0.4064170000000  0.4689050000000 1.0
C      1  0.5209030000000  0.4922880000000  0.5183570000000 1.0
C      1  0.5879210000000  0.4522080000000  0.4692740000000 1.0
C      1  0.5676390000000  0.5844060000000  0.5550080000000 1.0
C      1  0.5463750000000  0.5033810000000  0.4706360000000 1.0
C      1  0.5956200000000  0.5184270000000  0.5317140000000 1.0
C      1  0.5013340000000  0.4437450000000  0.4305680000000 1.0
C      1  0.5169880000000  0.6014030000000  0.5341570000000 1.0
C      1  0.5312360000000  0.4867880000000  0.4376500000000 1.0
C      1  0.5367050000000  0.4472270000000  0.5764480000000 1.0
C      1  0.5446300000000  0.5658130000000  0.5800840000000 1.0
C      1  0.4247050000000  0.4183800000000  0.4997340000000 1.0
C      1  0.4742240000000  0.5142610000000  0.3997100000000 1.0
C      1  0.4713670000000  0.5488590000000  0.5359740000000 1.0
C      1  0.5370140000000  0.4803670000000  0.5850360000000 1.0
C      1  0.4241940000000  0.5544650000000  0.4992990000000 1.0
C      1  0.5011260000000  0.4775440000000  0.4310430000000 1.0
C      1  0.5609350000000  0.5152860000000  0.4456350000000 1.0
C      1  0.5621080000000  0.5829150000000  0.4867010000000 1.0
C      1  0.5270720000000  0.5907050000000  0.4411050000000 1.0
C      1  0.4835710000000  0.5056980000000  0.4393050000000 1.0
C      1  0.4731720000000  0.4663080000000  0.4138180000000 1.0
C      1  0.4534170000000  0.4986620000000  0.5591060000000 1.0
C      1  0.4613260000000  0.5175510000000  0.4873390000000 1.0
C      1  0.4980510000000  0.4682160000000  0.5220920000000 1.0
C      1  0.4387540000000  0.5608680000000  0.5358160000000 1.0
C      1  0.5200280000000  0.5097000000000  0.4890650000000 1.0
C      1  0.4875220000000  0.6080600000000  0.5199090000000 1.0
C      1  0.5009140000000  0.5141840000000  0.5359580000000 1.0
C      1  0.4611600000000  0.4071870000000  0.4878520000000 1.0
C      1  0.4914330000000  0.4395530000000  0.4629690000000 1.0
C      1  0.5445820000000  0.4061280000000  0.5161410000000 1.0
C      1  0.5081940000000  0.5698140000000  0.5352500000000 1.0
C      1  0.4473590000000  0.4341310000000  0.4463420000000 1.0
C      1  0.4394790000000  0.4714910000000  0.4347300000000 1.0
C      1  0.5530300000000  0.5715100000000  0.5309500000000 1.0
C      1  0.4963930000000  0.4104150000000  0.4363090000000 1.0
C      1  0.5690090000000  0.4248300000000  0.5253000000000 1.0
C      1  0.5966730000000  0.4690240000000  0.5173100000000 1.0
C      1  0.5067130000000  0.4957300000000  0.6151380000000 1.0
C      1  0.5529240000000  0.5370130000000  0.5698320000000 1.0
C      1  0.5016970000000  0.5818340000000  0.5655000000000 1.0
C      1  0.5821560000000  0.5467150000000  0.4330510000000 1.0
C      1  0.5486610000000  0.5582440000000  0.4734360000000 1.0
C      1  0.5295150000000  0.5130460000000  0.5755790000000 1.0
C      1  0.5714240000000  0.5415620000000  0.4641480000000 1.0
C      1  0.4310860000000  0.4833130000000  0.5109830000000 1.0
C      1  0.4883530000000  0.4091960000000  0.5403430000000 1.0
C      1  0.6023660000000  0.5416100000000  0.5534470000000 1.0
C      1  0.4489300000000  0.4313740000000  0.5492010000000 1.0
C      1  0.5948240000000  0.5379920000000  0.4856270000000 1.0
C      1  0.5297950000000  0.4340980000000  0.5048260000000 1.0
C      1  0.4974080000000  0.4850270000000  0.5859750000000 1.0
C      1  0.4425520000000  0.4295480000000  0.4748800000000 1.0
C      1  0.4560570000000  0.5611350000000  0.4184490000000 1.0
C      1  0.4956660000000  0.5549390000000  0.5949770000000 1.0
C      1  0.5405410000000  0.5008410000000  0.6114400000000 1.0
C      1  0.4719220000000  0.4276190000000  0.4236020000000 1.0
C      1  0.4700300000000  0.5714880000000  0.5134340000000 1.0
C      1  0.4799620000000  0.5376450000000  0.4675620000000 1.0
C      1  0.4562160000000  0.5480720000000  0.4991620000000 1.0
C      1  0.4315990000000  0.4782080000000  0.5419340000000 1.0
C      1  0.5491150000000  0.5894800000000  0.5095380000000 1.0
C      1  0.5445330000000  0.4040300000000  0.4818680000000 1.0
C      1  0.4691190000000  0.4597590000000  0.4470140000000 1.0
C      1  0.5492170000000  0.5252040000000  0.4182160000000 1.0
C      1  0.4741670000000  0.5382430000000  0.4360950000000 1.0
C      1  0.4613420000000  0.5301990000000  0.5695500000000 1.0
C      1  0.5577950000000  0.4336700000000  0.4879460000000 1.0
C      1  0.5597280000000  0.4576680000000  0.5271480000000 1.0
C      1  0.5218390000000  0.5394140000000  0.4827030000000 1.0
C      1  0.5607850000000  0.5106170000000  0.4985480000000 1.0
C      1  0.5859390000000  0.4959380000000  0.4391360000000 1.0
C      1  0.5556800000000  0.4509130000000  0.4628900000000 1.0
C      1  0.4526100000000  0.4684000000000  0.5994380000000 1.0
C      1  0.4238210000000  0.5644230000000  0.4188010000000 1.0
C      1  0.5865350000000  0.4424070000000  0.5018440000000 1.0
C      1  0.5850870000000  0.4706210000000  0.5459650000000 1.0
C      1  0.4275840000000  0.5021950000000  0.4362980000000 1.0
C      1  0.5583260000000  0.4773440000000  0.5617950000000 1.0
C      1  0.4721830000000  0.5881730000000  0.4312030000000 1.0
C      1  0.5218450000000  0.4011140000000  0.5411350000000 1.0
C      1  0.5206490000000  0.5415520000000  0.4506800000000 1.0
C      1  0.5852960000000  0.4923350000000  0.5725220000000 1.0
C      1  0.5074850000000  0.3920750000000  0.5121310000000 1.0
C      1  0.5240090000000  0.5295290000000  0.6049010000000 1.0
C      1  0.4041190000000  0.4382610000000  0.5042530000000 1.0
C      1  0.4299400000000  0.5342600000000  0.4322220000000 1.0
C      1  0.4472730000000  0.4448970000000  0.4084140000000 1.0
C      1  0.4206150000000  0.4452550000000  0.4299230000000 1.0
C      1  0.4989890000000  0.5616070000000  0.4415220000000 1.0
C      1  0.5609670000000  0.4798380000000  0.4234390000000 1.0
C      1  0.5258360000000  0.5608880000000  0.6010710000000 1.0
C      1  0.5063130000000  0.4881220000000  0.5553610000000 1.0
C      1  0.3958780000000  0.5187010000000  0.4830100000000 1.0
C      1  0.5574370000000  0.5540630000000  0.4185330000000 1.0
C      1  0.4236530000000  0.5244200000000  0.5525820000000 1.0
C      1  0.5072060000000  0.5546780000000  0.5065880000000 1.0
C      1  0.4745750000000  0.4505170000000  0.5487980000000 1.0
C      1  0.4236910000000  0.4484900000000  0.5488990000000 1.0
C      1  0.5537500000000  0.4301180000000  0.4288430000000 1.0
C      1  0.5605620000000  0.4322660000000  0.5575880000000 1.0
C      1  0.3986760000000  0.4471710000000  0.4532290000000 1.0
C      1  0.5178040000000  0.5390810000000  0.5334240000000 1.0
C      1  0.4697570000000  0.5869650000000  0.5620020000000 1.0
C      1  0.4597200000000  0.5188980000000  0.6006120000000 1.0
C      1  0.4652300000000  0.6025870000000  0.5378360000000 1.0
C      1  0.4396460000000  0.4787630000000  0.4661280000000 1.0
C      1  0.4639270000000  0.5734460000000  0.4609850000000 1.0
C      1  0.4453160000000  0.4589520000000  0.4918260000000 1.0
C      1  0.4028380000000  0.4542970000000  0.5278690000000 1.0
C      1  0.4848100000000  0.4168600000000  0.5073250000000 1.0
C      1  0.6161880000000  0.5283300000000  0.4612430000000 1.0
C      1  0.3746510000000  0.5339990000000  0.4686110000000 1.0
C      1  0.6010900000000  0.5243620000000  0.4365350000000 1.0
C      1  0.5212070000000  0.3968570000000  0.4504450000000 1.0
C      1  0.4026020000000  0.4813160000000  0.4950320000000 1.0
C      1  0.5388060000000  0.4734690000000  0.4646510000000 1.0
C      1  0.4276040000000  0.5209820000000  0.4937800000000 1.0
C      1  0.4905960000000  0.5258060000000  0.6113070000000 1.0
C      1  0.5137480000000  0.3916430000000  0.4823120000000 1.0
C      1  0.5365180000000  0.4395990000000  0.4072080000000 1.0
C      1  0.5771970000000  0.4824590000000  0.4931220000000 1.0
C      1  0.5939670000000  0.5487390000000  0.5154730000000 1.0
C      1  0.4492600000000  0.4435610000000  0.5186900000000 1.0
C      1  0.4710990000000  0.4808840000000  0.5387240000000 1.0
C      1  0.5168530000000  0.4205100000000  0.5686140000000 1.0
C      1  0.5338980000000  0.4389360000000  0.5375710000000 1.0
C      1  0.5067800000000  0.4586290000000  0.5709450000000 1.0
C      1  0.4913810000000  0.6039250000000  0.4858510000000 1.0
C      1  0.5651660000000  0.5220000000000  0.5224380000000 1.0
C      1  0.5459360000000  0.4739780000000  0.5039300000000 1.0
C      1  0.4397700000000  0.5132390000000  0.5246040000000 1.0
C      1  0.4865850000000  0.4880830000000  0.3955850000000 1.0
C      1  0.4948610000000  0.5355310000000  0.3989620000000 1.0
C      1  0.5217230000000  0.5786430000000  0.4788660000000 1.0
C      1  0.4735030000000  0.4901710000000  0.6065130000000 1.0
C      1  0.4119540000000  0.5416790000000  0.5273100000000 1.0
C      1  0.4907170000000  0.5644430000000  0.4801420000000 1.0
C      1  0.3952570000000  0.4871110000000  0.5281510000000 1.0
C      1  0.4601000000000  0.5964130000000  0.4933720000000 1.0
C      1  0.5654550000000  0.5130180000000  0.5908990000000 1.0
C      1  0.5909710000000  0.5682490000000  0.5429030000000 1.0
C      1  0.5217020000000  0.5180560000000  0.4045600000000 1.0
C      1  0.4949120000000  0.4934760000000  0.4770060000000 1.0
C      1  0.6080750000000  0.5065190000000  0.4849320000000 1.0
C      1  0.4702580000000  0.4932630000000  0.5083440000000 1.0
C      1  0.5153810000000  0.5149250000000  0.4367490000000 1.0
C      1  0.5374090000000  0.4951580000000  0.5479590000000 1.0
C      1  0.4631290000000  0.4427040000000  0.5953240000000 1.0
C      1  0.4644460000000  0.4962690000000  0.4626630000000 1.0
C      1  0.5190640000000  0.4232390000000  0.3942820000000 1.0
C      1  0.4989300000000  0.4438490000000  0.4962880000000 1.0
C      1  0.4760780000000  0.4685000000000  0.4891080000000 1.0
C      1  0.5474430000000  0.4112350000000  0.4484220000000 1.0
C      1  0.5165530000000  0.4878540000000  0.3956580000000 1.0
C      1  0.4879290000000  0.5648430000000  0.4100540000000 1.0
C      1  0.4293200000000  0.5163900000000  0.5852240000000 1.0
C      1  0.4123690000000  0.4964050000000  0.4662210000000 1.0
C      1  0.4864530000000  0.4343390000000  0.5752400000000 1.0
C      1  0.4875470000000  0.5512750000000  0.5639310000000 1.0
C      1  0.3942850000000  0.5174200000000  0.5151000000000 1.0
C      1  0.5380250000000  0.5663540000000  0.4357860000000 1.0
C      1  0.5951000000000  0.4836870000000  0.4655660000000 1.0
END
