TITL C-2778436-5916-583 -2.69929839453515e-07 125000 -62.7549716850626 0 0 12 (Cs) n - 1
REM
REM in /home/nfs/bkarasulu/CARBON/AIRSS/Generating-Clusters/REBO/Only-C1/SD-CG/HFTN-CG
REM
REM
REM
REM
REM
REM ./C.cell (11c1c37f851c82e70ff6c80c92926a4b)
REM
REM compiler GCC version 9.2.1 20190827 (Red Hat 9.2.1-1)
REM options -cpp -mtune=generic -march=x86-64 -g -O0 -fpre-include=/usr/include/finclude/math-vector-fortran.h
REM seed 8937700 -1486680360 1353008501 1761031673 -1142882247 -696909968 1078770592 -107716623 1999197216 1921226614 -161025270 -231333813 1961926430 -2122499849 -291532654 -1390150357 1558535423 1419350600 -721111363 -1422842468 -737562712 -1971471229 -72965970 1808410410 -1637900944 -706748524 887375221 268277378 1174584286 1570671202 -1220746416 448718920 679556969
REM
CELL 1.54180   50.00000   50.00000   50.00000   90.00000   90.00000   90.00000
LATT -1
SFAC C  
C      1  0.5125530000000  0.5159960000000  0.5159560000000 1.0
C      1  0.5083360000000  0.5422690000000  0.5116690000000 1.0
C      1  0.4735370000000  0.4595240000000  0.5035110000000 1.0
C      1  0.5101230000000  0.4605340000000  0.4737160000000 1.0
C      1  0.5387380000000  0.4550450000000  0.5460440000000 1.0
C      1  0.5254330000000  0.4711840000000  0.5302530000000 1.0
C      1  0.4937340000000  0.4757700000000  0.4914850000000 1.0
C      1  0.5113410000000  0.4882780000000  0.5135280000000 1.0
C      1  0.4780260000000  0.5499540000000  0.4747110000000 1.0
C      1  0.4802240000000  0.4989450000000  0.4756810000000 1.0
C      1  0.4736440000000  0.5237880000000  0.4684430000000 1.0
C      1  0.4943110000000  0.5587130000000  0.4950050000000 1.0
END
