TITL C-2778424-3986-87 0.00148915238969876 125000 -323.435489679377 0 0 57 (C1) n - 1
REM
REM in /home/nfs/bkarasulu/CARBON/AIRSS/Generating-Clusters/REBO/Only-C1/SD-CG/HFTN-CG
REM
REM
REM
REM
REM
REM ./C.cell (11c1c37f851c82e70ff6c80c92926a4b)
REM
REM compiler GCC version 9.2.1 20190827 (Red Hat 9.2.1-1)
REM options -cpp -mtune=generic -march=x86-64 -g -O0 -fpre-include=/usr/include/finclude/math-vector-fortran.h
REM seed 1871321767 1945606718 2037810372 1752483979 2027880570 -559103940 838201650 -1830853811 -151423470 828839004 410270379 1333453331 1903208080 499695117 1613892914 -1069274599 530370297 -2127647314 360633281 1430105317 1984655145 -467819984 1990215583 -611920562 1100612160 -334084899 1488388101 -2061024804 -1612043082 1426249372 130505656 245546802 960184316
REM
CELL 1.54180   50.00000   50.00000   50.00000   90.00000   90.00000   90.00000
LATT -1
SFAC C  
C      1  0.4558550000000  0.4712120000000  0.4725910000000 1.0
C      1  0.4622340000000  0.5026680000000  0.5373820000000 1.0
C      1  0.4579580000000  0.5110080000000  0.4356440000000 1.0
C      1  0.5433490000000  0.4912020000000  0.4357140000000 1.0
C      1  0.5169550000000  0.5560870000000  0.4920620000000 1.0
C      1  0.5233920000000  0.4506880000000  0.4785140000000 1.0
C      1  0.4155350000000  0.4926160000000  0.5258900000000 1.0
C      1  0.4723430000000  0.5290330000000  0.5531820000000 1.0
C      1  0.4488820000000  0.5008210000000  0.4648730000000 1.0
C      1  0.4719510000000  0.5694240000000  0.4797960000000 1.0
C      1  0.4510250000000  0.4527270000000  0.5012450000000 1.0
C      1  0.4679330000000  0.4537350000000  0.5313470000000 1.0
C      1  0.5504780000000  0.5302810000000  0.5226260000000 1.0
C      1  0.4859960000000  0.4946040000000  0.5552810000000 1.0
C      1  0.4937770000000  0.5455320000000  0.5412690000000 1.0
C      1  0.5071810000000  0.6040640000000  0.4810330000000 1.0
C      1  0.4430020000000  0.5362310000000  0.5421470000000 1.0
C      1  0.5781670000000  0.4607320000000  0.4869510000000 1.0
C      1  0.4653840000000  0.4416820000000  0.4335850000000 1.0
C      1  0.5183860000000  0.4725590000000  0.5220700000000 1.0
C      1  0.5257100000000  0.5393800000000  0.4681030000000 1.0
C      1  0.4392000000000  0.5215890000000  0.4873540000000 1.0
C      1  0.5188820000000  0.4962860000000  0.4602110000000 1.0
C      1  0.5018730000000  0.5350240000000  0.5117690000000 1.0
C      1  0.5353300000000  0.5012970000000  0.5656860000000 1.0
C      1  0.5337640000000  0.4978650000000  0.4908280000000 1.0
C      1  0.4968370000000  0.4141700000000  0.4918600000000 1.0
C      1  0.4810720000000  0.4371300000000  0.5052720000000 1.0
C      1  0.4807850000000  0.5205040000000  0.4305990000000 1.0
C      1  0.5676290000000  0.4642430000000  0.5163160000000 1.0
C      1  0.4740110000000  0.4758930000000  0.4986340000000 1.0
C      1  0.5610710000000  0.4946470000000  0.5542950000000 1.0
C      1  0.5302780000000  0.4598530000000  0.5449090000000 1.0
C      1  0.4830000000000  0.4638480000000  0.5535330000000 1.0
C      1  0.5585990000000  0.4678160000000  0.5426810000000 1.0
C      1  0.5025470000000  0.5228940000000  0.4540090000000 1.0
C      1  0.4743760000000  0.4587060000000  0.4516900000000 1.0
C      1  0.5241490000000  0.4702250000000  0.4304650000000 1.0
C      1  0.5478570000000  0.5208420000000  0.4726450000000 1.0
C      1  0.4520770000000  0.5529260000000  0.4851690000000 1.0
C      1  0.4289220000000  0.5152350000000  0.5191710000000 1.0
C      1  0.5702930000000  0.5161790000000  0.5373500000000 1.0
C      1  0.4982670000000  0.5781240000000  0.4839070000000 1.0
C      1  0.5023930000000  0.4672070000000  0.4535370000000 1.0
C      1  0.4674100000000  0.5014530000000  0.5107320000000 1.0
C      1  0.5020620000000  0.4628670000000  0.4988530000000 1.0
C      1  0.5178360000000  0.4211850000000  0.4789730000000 1.0
C      1  0.5605530000000  0.5101890000000  0.4494850000000 1.0
C      1  0.5233480000000  0.5123980000000  0.5179590000000 1.0
C      1  0.4355980000000  0.5477260000000  0.5121910000000 1.0
C      1  0.5142140000000  0.5029930000000  0.5476530000000 1.0
C      1  0.4783560000000  0.5233130000000  0.4979540000000 1.0
C      1  0.4751740000000  0.5216210000000  0.4701310000000 1.0
C      1  0.5352770000000  0.5556020000000  0.5192350000000 1.0
C      1  0.5081510000000  0.4511780000000  0.5610590000000 1.0
C      1  0.5454130000000  0.4693380000000  0.4908860000000 1.0
C      1  0.5179020000000  0.5613460000000  0.5416900000000 1.0
END
