TITL C-2778427-5640-1409 -0.00134279375906319 125000 -222.962102085908 0 0 40 (C1) n - 1
REM
REM in /home/nfs/bkarasulu/CARBON/AIRSS/Generating-Clusters/REBO/Only-C1/SD-CG/HFTN-CG
REM
REM
REM
REM
REM
REM ./C.cell (11c1c37f851c82e70ff6c80c92926a4b)
REM
REM compiler GCC version 9.2.1 20190827 (Red Hat 9.2.1-1)
REM options -cpp -mtune=generic -march=x86-64 -g -O0 -fpre-include=/usr/include/finclude/math-vector-fortran.h
REM seed 750199839 -947225857 1605931530 -1383558276 -295062583 -128120763 663951737 -1180835594 -1641536980 42038047 -141993813 1881002072 -214090148 -1696211663 78607588 -422523872 1547923846 1679270608 -475540791 518574402 -812848460 1280726260 -54865895 -251814926 99752827 -1482588868 -800921395 -1825234409 -2126412679 -1208619294 -1054487481 -1268573379 79241747
REM
CELL 1.54180   50.00000   50.00000   50.00000   90.00000   90.00000   90.00000
LATT -1
SFAC C  
C      1  0.5378760000000  0.5045680000000  0.5301360000000 1.0
C      1  0.4426410000000  0.5067650000000  0.4576050000000 1.0
C      1  0.4880970000000  0.5693610000000  0.5172990000000 1.0
C      1  0.5159320000000  0.4914410000000  0.5526420000000 1.0
C      1  0.5444320000000  0.4492360000000  0.5214650000000 1.0
C      1  0.4474420000000  0.5384210000000  0.5242820000000 1.0
C      1  0.5360070000000  0.4576550000000  0.5461620000000 1.0
C      1  0.5042840000000  0.4560780000000  0.5162600000000 1.0
C      1  0.5278510000000  0.5283810000000  0.5117840000000 1.0
C      1  0.5134670000000  0.4854790000000  0.4803390000000 1.0
C      1  0.5370490000000  0.4651330000000  0.4947780000000 1.0
C      1  0.4851150000000  0.4952850000000  0.5455370000000 1.0
C      1  0.4881540000000  0.4651330000000  0.4689440000000 1.0
C      1  0.5178560000000  0.4580960000000  0.4604480000000 1.0
C      1  0.5132460000000  0.4338100000000  0.5018590000000 1.0
C      1  0.4969020000000  0.5326790000000  0.4714310000000 1.0
C      1  0.4645950000000  0.5561680000000  0.5034230000000 1.0
C      1  0.5303580000000  0.4366280000000  0.4769570000000 1.0
C      1  0.5487770000000  0.5203640000000  0.4548010000000 1.0
C      1  0.4631070000000  0.4643000000000  0.4869900000000 1.0
C      1  0.5017830000000  0.5310820000000  0.4430390000000 1.0
C      1  0.4773030000000  0.5460540000000  0.5398430000000 1.0
C      1  0.4769600000000  0.4923490000000  0.4951700000000 1.0
C      1  0.5293420000000  0.5278970000000  0.4371170000000 1.0
C      1  0.4515000000000  0.4715980000000  0.5174480000000 1.0
C      1  0.5533470000000  0.5098740000000  0.4792910000000 1.0
C      1  0.4703570000000  0.4652210000000  0.5401350000000 1.0
C      1  0.4456540000000  0.5050970000000  0.5163600000000 1.0
C      1  0.4650530000000  0.5159570000000  0.5422460000000 1.0
C      1  0.5502630000000  0.5433750000000  0.5023530000000 1.0
C      1  0.4789880000000  0.5246930000000  0.4274820000000 1.0
C      1  0.5130250000000  0.5148960000000  0.4876600000000 1.0
C      1  0.4553150000000  0.5134750000000  0.4848380000000 1.0
C      1  0.5087730000000  0.5463460000000  0.5269260000000 1.0
C      1  0.4949620000000  0.4848790000000  0.5157960000000 1.0
C      1  0.4710410000000  0.5390590000000  0.4821160000000 1.0
C      1  0.4548330000000  0.5136280000000  0.4341300000000 1.0
C      1  0.5488710000000  0.4846900000000  0.5551980000000 1.0
C      1  0.5028770000000  0.4599590000000  0.5491270000000 1.0
C      1  0.5465670000000  0.4948910000000  0.5005840000000 1.0
END
