TITL C-2778432-5617-1023 0.00980008636718709 125000 -724.541976960306 0 0 125 (C1) n - 1
REM
REM in /home/nfs/bkarasulu/CARBON/AIRSS/Generating-Clusters/REBO/Only-C1/SD-CG/HFTN-CG
REM
REM
REM
REM
REM
REM ./C.cell (11c1c37f851c82e70ff6c80c92926a4b)
REM
REM compiler GCC version 9.2.1 20190827 (Red Hat 9.2.1-1)
REM options -cpp -mtune=generic -march=x86-64 -g -O0 -fpre-include=/usr/include/finclude/math-vector-fortran.h
REM seed -1335902021 1301471010 1501609874 -1692358780 -73543604 933096326 -1006686059 617215216 316489082 -383463068 1950984312 628158619 -2139527943 307896088 1970000310 2106162638 1084514419 -1820857956 378726437 -1703814842 1748863753 1409028515 -1595632503 1218501412 859517279 865278262 -2063618118 437369288 735338756 -316973562 2104132509 1409127491 1792801324
REM
CELL 1.54180   50.00000   50.00000   50.00000   90.00000   90.00000   90.00000
LATT -1
SFAC C  
C      1  0.5215650000000  0.4139540000000  0.4896560000000 1.0
C      1  0.4160890000000  0.4761940000000  0.4832700000000 1.0
C      1  0.4335740000000  0.5304720000000  0.4548680000000 1.0
C      1  0.4206440000000  0.4580500000000  0.5366240000000 1.0
C      1  0.5334250000000  0.5682010000000  0.4525190000000 1.0
C      1  0.5743780000000  0.5577090000000  0.5155060000000 1.0
C      1  0.5053840000000  0.3973640000000  0.4728690000000 1.0
C      1  0.4707830000000  0.5599180000000  0.4623250000000 1.0
C      1  0.4868210000000  0.5807380000000  0.5321770000000 1.0
C      1  0.5465050000000  0.4693540000000  0.5666910000000 1.0
C      1  0.5009950000000  0.5967270000000  0.4565370000000 1.0
C      1  0.4222500000000  0.5329630000000  0.4801810000000 1.0
C      1  0.5067440000000  0.4307140000000  0.5706910000000 1.0
C      1  0.4238260000000  0.4535450000000  0.5032430000000 1.0
C      1  0.4927640000000  0.5581880000000  0.5773070000000 1.0
C      1  0.5000230000000  0.4087810000000  0.5252060000000 1.0
C      1  0.5152190000000  0.4507400000000  0.4665490000000 1.0
C      1  0.5231380000000  0.5546430000000  0.4820430000000 1.0
C      1  0.4608550000000  0.4917620000000  0.5823350000000 1.0
C      1  0.4543820000000  0.4664110000000  0.4773040000000 1.0
C      1  0.4781970000000  0.5075190000000  0.5585560000000 1.0
C      1  0.5392860000000  0.4940710000000  0.5774600000000 1.0
C      1  0.5672180000000  0.4443610000000  0.5066450000000 1.0
C      1  0.4784230000000  0.5425320000000  0.4891770000000 1.0
C      1  0.4506340000000  0.5489660000000  0.4432620000000 1.0
C      1  0.5485740000000  0.4212650000000  0.4895840000000 1.0
C      1  0.4606420000000  0.5079970000000  0.5325270000000 1.0
C      1  0.4809550000000  0.4681030000000  0.4588420000000 1.0
C      1  0.5064290000000  0.4773920000000  0.4045510000000 1.0
C      1  0.5760840000000  0.4590710000000  0.4755100000000 1.0
C      1  0.4557130000000  0.4038410000000  0.4767560000000 1.0
C      1  0.5435630000000  0.5283100000000  0.5283360000000 1.0
C      1  0.4045940000000  0.5638170000000  0.5122830000000 1.0
C      1  0.4328160000000  0.5582550000000  0.4988100000000 1.0
C      1  0.4459430000000  0.4974110000000  0.4850340000000 1.0
C      1  0.5402360000000  0.4443250000000  0.4484080000000 1.0
C      1  0.5263290000000  0.5288350000000  0.4168390000000 1.0
C      1  0.5103630000000  0.4647480000000  0.5505610000000 1.0
C      1  0.5075390000000  0.4704880000000  0.4889480000000 1.0
C      1  0.5598830000000  0.4353290000000  0.4661060000000 1.0
C      1  0.4817890000000  0.4356770000000  0.4530580000000 1.0
C      1  0.5016070000000  0.4346420000000  0.5051240000000 1.0
C      1  0.4139120000000  0.4463180000000  0.4413120000000 1.0
C      1  0.5428300000000  0.5263260000000  0.4530920000000 1.0
C      1  0.5312880000000  0.4024670000000  0.5266930000000 1.0
C      1  0.4746840000000  0.4403800000000  0.4865650000000 1.0
C      1  0.5718050000000  0.4847370000000  0.4531910000000 1.0
C      1  0.4854650000000  0.4935300000000  0.4890190000000 1.0
C      1  0.4979130000000  0.4509100000000  0.5875140000000 1.0
C      1  0.4961140000000  0.5142200000000  0.4425230000000 1.0
C      1  0.5408560000000  0.5780690000000  0.5316090000000 1.0
C      1  0.5594370000000  0.5322320000000  0.4784270000000 1.0
C      1  0.5039150000000  0.4712560000000  0.3771600000000 1.0
C      1  0.5429880000000  0.6019120000000  0.5172450000000 1.0
C      1  0.5283070000000  0.5008360000000  0.4114490000000 1.0
C      1  0.4988350000000  0.5186340000000  0.4999670000000 1.0
C      1  0.4403370000000  0.4508480000000  0.5588320000000 1.0
C      1  0.4790400000000  0.5375420000000  0.6086840000000 1.0
C      1  0.5618560000000  0.4828350000000  0.4913690000000 1.0
C      1  0.4994930000000  0.4769170000000  0.5222420000000 1.0
C      1  0.5157430000000  0.5382880000000  0.5841110000000 1.0
C      1  0.5055740000000  0.5994140000000  0.4847520000000 1.0
C      1  0.4620510000000  0.5427030000000  0.4179930000000 1.0
C      1  0.4661000000000  0.5536520000000  0.5687470000000 1.0
C      1  0.5287610000000  0.5225870000000  0.4902020000000 1.0
C      1  0.5513890000000  0.5813990000000  0.4743890000000 1.0
C      1  0.5565520000000  0.4850640000000  0.4226350000000 1.0
C      1  0.5310380000000  0.5536910000000  0.5152020000000 1.0
C      1  0.4748200000000  0.3940880000000  0.5659140000000 1.0
C      1  0.5835860000000  0.5007970000000  0.5105380000000 1.0
C      1  0.5290950000000  0.4513000000000  0.5163640000000 1.0
C      1  0.4940720000000  0.5711570000000  0.4465070000000 1.0
C      1  0.4799380000000  0.4072140000000  0.4644060000000 1.0
C      1  0.5300520000000  0.5210090000000  0.5585800000000 1.0
C      1  0.4488920000000  0.4048320000000  0.5160490000000 1.0
C      1  0.4566190000000  0.5186430000000  0.5005760000000 1.0
C      1  0.5332870000000  0.4402030000000  0.5551510000000 1.0
C      1  0.4752830000000  0.4992680000000  0.4586780000000 1.0
C      1  0.4857700000000  0.4169560000000  0.5530710000000 1.0
C      1  0.4084120000000  0.5089800000000  0.4905410000000 1.0
C      1  0.5313250000000  0.5772570000000  0.5582150000000 1.0
C      1  0.3876990000000  0.5429430000000  0.5183200000000 1.0
C      1  0.5049280000000  0.5031140000000  0.5439960000000 1.0
C      1  0.5347790000000  0.4807600000000  0.5004430000000 1.0
C      1  0.5754820000000  0.5251580000000  0.5257910000000 1.0
C      1  0.5156450000000  0.5559790000000  0.4301670000000 1.0
C      1  0.5474510000000  0.4272940000000  0.5290220000000 1.0
C      1  0.5045340000000  0.4501300000000  0.4334580000000 1.0
C      1  0.5121400000000  0.5052740000000  0.5901650000000 1.0
C      1  0.5832420000000  0.5499700000000  0.5461860000000 1.0
C      1  0.4773440000000  0.4773450000000  0.4196790000000 1.0
C      1  0.5530810000000  0.5423030000000  0.4277970000000 1.0
C      1  0.4640450000000  0.4370210000000  0.5452280000000 1.0
C      1  0.3892830000000  0.5164100000000  0.5103960000000 1.0
C      1  0.5495430000000  0.4709780000000  0.5358560000000 1.0
C      1  0.4986730000000  0.5562890000000  0.5132210000000 1.0
C      1  0.5420060000000  0.5563110000000  0.5750890000000 1.0
C      1  0.5084270000000  0.4827760000000  0.4441220000000 1.0
C      1  0.4590810000000  0.5770650000000  0.4880220000000 1.0
C      1  0.4520490000000  0.4582910000000  0.5215000000000 1.0
C      1  0.5659600000000  0.5602000000000  0.4890840000000 1.0
C      1  0.5782020000000  0.5078590000000  0.4776980000000 1.0
C      1  0.4830290000000  0.5317470000000  0.5271610000000 1.0
C      1  0.4746030000000  0.5189670000000  0.5898000000000 1.0
C      1  0.4619350000000  0.5631290000000  0.5430970000000 1.0
C      1  0.4296600000000  0.4657110000000  0.4538630000000 1.0
C      1  0.5346830000000  0.6000750000000  0.4904510000000 1.0
C      1  0.4518010000000  0.5450440000000  0.5205090000000 1.0
C      1  0.4824530000000  0.5907820000000  0.5014150000000 1.0
C      1  0.5391390000000  0.4946270000000  0.4492550000000 1.0
C      1  0.5729020000000  0.5589520000000  0.4200190000000 1.0
C      1  0.4708980000000  0.3953120000000  0.5229680000000 1.0
C      1  0.5324520000000  0.4987530000000  0.5258690000000 1.0
C      1  0.5693760000000  0.5512890000000  0.5706690000000 1.0
C      1  0.5031510000000  0.5789080000000  0.5599200000000 1.0
C      1  0.4464370000000  0.4686020000000  0.5799260000000 1.0
C      1  0.4680100000000  0.4819230000000  0.5151940000000 1.0
C      1  0.4848780000000  0.5274500000000  0.4172080000000 1.0
C      1  0.4529080000000  0.4787910000000  0.4326050000000 1.0
C      1  0.4436760000000  0.4293230000000  0.4954090000000 1.0
C      1  0.5329930000000  0.4622450000000  0.4202580000000 1.0
C      1  0.5792480000000  0.4706100000000  0.5246240000000 1.0
C      1  0.4440710000000  0.5029370000000  0.4523700000000 1.0
C      1  0.5122240000000  0.5304840000000  0.4605800000000 1.0
C      1  0.5022640000000  0.4790210000000  0.5777960000000 1.0
END
