TITL C-2778428-5639-718 0.00630928375872966 125000 -885.29269237999 0 0 154 (C1) n - 1
REM
REM in /home/nfs/bkarasulu/CARBON/AIRSS/Generating-Clusters/REBO/Only-C1/SD-CG/HFTN-CG
REM
REM
REM
REM
REM
REM ./C.cell (11c1c37f851c82e70ff6c80c92926a4b)
REM
REM compiler GCC version 9.2.1 20190827 (Red Hat 9.2.1-1)
REM options -cpp -mtune=generic -march=x86-64 -g -O0 -fpre-include=/usr/include/finclude/math-vector-fortran.h
REM seed -147870436 -1280415067 1374028920 1760120810 1588165159 -110688233 1492443786 -1631955071 -742992987 1713646302 -1749248780 -886240921 -1934927153 1137526448 -574899428 -646350426 -1230175692 1854735776 921221878 418690380 1050285902 19048939 1924543441 74510324 -1384461219 48563743 -315086395 235555967 2067290650 900545057 -498347689 -611560062 1913967839
REM
CELL 1.54180   50.00000   50.00000   50.00000   90.00000   90.00000   90.00000
LATT -1
SFAC C  
C      1  0.4749820000000  0.4522080000000  0.5878720000000 1.0
C      1  0.5795710000000  0.5287240000000  0.4368000000000 1.0
C      1  0.4639560000000  0.4654920000000  0.4976380000000 1.0
C      1  0.5585900000000  0.4857140000000  0.4551160000000 1.0
C      1  0.4154450000000  0.4805390000000  0.4459390000000 1.0
C      1  0.5863840000000  0.4241200000000  0.4355310000000 1.0
C      1  0.4694710000000  0.3993890000000  0.4580930000000 1.0
C      1  0.4701360000000  0.4917320000000  0.4994390000000 1.0
C      1  0.4679010000000  0.5758300000000  0.4804160000000 1.0
C      1  0.5347790000000  0.5249480000000  0.3961470000000 1.0
C      1  0.4178870000000  0.4560160000000  0.5130670000000 1.0
C      1  0.3948580000000  0.4881820000000  0.5075660000000 1.0
C      1  0.4291130000000  0.5667270000000  0.5594710000000 1.0
C      1  0.6051710000000  0.5315670000000  0.4664200000000 1.0
C      1  0.4395520000000  0.5068920000000  0.5222340000000 1.0
C      1  0.5219140000000  0.5219920000000  0.5075870000000 1.0
C      1  0.4092400000000  0.5126260000000  0.4562140000000 1.0
C      1  0.4496780000000  0.4176850000000  0.5039570000000 1.0
C      1  0.5360010000000  0.5671700000000  0.5750780000000 1.0
C      1  0.5364000000000  0.4861320000000  0.5969160000000 1.0
C      1  0.5081890000000  0.4984800000000  0.5917220000000 1.0
C      1  0.4121570000000  0.5391980000000  0.5517810000000 1.0
C      1  0.5256890000000  0.5850490000000  0.5185260000000 1.0
C      1  0.5009410000000  0.5188210000000  0.5335920000000 1.0
C      1  0.5501000000000  0.5825500000000  0.5310860000000 1.0
C      1  0.5665630000000  0.5093860000000  0.5081480000000 1.0
C      1  0.5369640000000  0.4591850000000  0.4526850000000 1.0
C      1  0.4324550000000  0.5600980000000  0.5127320000000 1.0
C      1  0.4878730000000  0.4782260000000  0.4415410000000 1.0
C      1  0.4343230000000  0.4540710000000  0.4518330000000 1.0
C      1  0.5366080000000  0.4573730000000  0.4081730000000 1.0
C      1  0.5813920000000  0.4536260000000  0.5150860000000 1.0
C      1  0.4556700000000  0.4791660000000  0.5458370000000 1.0
C      1  0.5971220000000  0.5701800000000  0.4699550000000 1.0
C      1  0.5334600000000  0.4174050000000  0.4820260000000 1.0
C      1  0.4877590000000  0.5878800000000  0.5617020000000 1.0
C      1  0.5178520000000  0.4427200000000  0.4137160000000 1.0
C      1  0.4910150000000  0.5305970000000  0.4466770000000 1.0
C      1  0.4778300000000  0.4185860000000  0.4339660000000 1.0
C      1  0.5674800000000  0.5436040000000  0.4718620000000 1.0
C      1  0.5625550000000  0.4471350000000  0.4367910000000 1.0
C      1  0.4288060000000  0.4654690000000  0.5622810000000 1.0
C      1  0.5253760000000  0.4061220000000  0.5125060000000 1.0
C      1  0.5514350000000  0.4898430000000  0.4942150000000 1.0
C      1  0.4614200000000  0.4537010000000  0.5282180000000 1.0
C      1  0.4658300000000  0.5806730000000  0.5206000000000 1.0
C      1  0.5881440000000  0.4764750000000  0.4680480000000 1.0
C      1  0.4404660000000  0.5723010000000  0.4856820000000 1.0
C      1  0.5552370000000  0.5052180000000  0.4084150000000 1.0
C      1  0.4863660000000  0.4024910000000  0.4803490000000 1.0
C      1  0.5090980000000  0.6016100000000  0.5019050000000 1.0
C      1  0.5473830000000  0.5914610000000  0.4723170000000 1.0
C      1  0.4582660000000  0.5659360000000  0.4338610000000 1.0
C      1  0.4924900000000  0.4673630000000  0.5556120000000 1.0
C      1  0.4522300000000  0.4709220000000  0.5847150000000 1.0
C      1  0.4255600000000  0.5400520000000  0.4438970000000 1.0
C      1  0.4901010000000  0.4406530000000  0.5154290000000 1.0
C      1  0.5075130000000  0.5803800000000  0.4417020000000 1.0
C      1  0.5545420000000  0.5167030000000  0.4561710000000 1.0
C      1  0.4032610000000  0.5160690000000  0.4898170000000 1.0
C      1  0.5298450000000  0.5088730000000  0.5444010000000 1.0
C      1  0.5280020000000  0.5038740000000  0.4291990000000 1.0
C      1  0.4664640000000  0.4632880000000  0.4506040000000 1.0
C      1  0.5822780000000  0.4587220000000  0.5445540000000 1.0
C      1  0.5091950000000  0.5484870000000  0.4904010000000 1.0
C      1  0.4814460000000  0.6018400000000  0.5096570000000 1.0
C      1  0.5251440000000  0.5305360000000  0.4458180000000 1.0
C      1  0.5158300000000  0.5967090000000  0.4703740000000 1.0
C      1  0.4220950000000  0.5619820000000  0.4649420000000 1.0
C      1  0.4402760000000  0.5782370000000  0.5366920000000 1.0
C      1  0.5344660000000  0.5191780000000  0.5930170000000 1.0
C      1  0.4961320000000  0.4724360000000  0.5228480000000 1.0
C      1  0.5082710000000  0.5076520000000  0.4016900000000 1.0
C      1  0.5891410000000  0.4861170000000  0.5458840000000 1.0
C      1  0.4708130000000  0.5657690000000  0.5671760000000 1.0
C      1  0.4296620000000  0.5339080000000  0.4828600000000 1.0
C      1  0.5567800000000  0.4770650000000  0.4224040000000 1.0
C      1  0.5225750000000  0.4570920000000  0.5506250000000 1.0
C      1  0.4166990000000  0.4587980000000  0.4792010000000 1.0
C      1  0.4779000000000  0.5250050000000  0.4985850000000 1.0
C      1  0.5509830000000  0.4137260000000  0.5704950000000 1.0
C      1  0.4563100000000  0.5288340000000  0.5884190000000 1.0
C      1  0.4503710000000  0.4266910000000  0.4509490000000 1.0
C      1  0.4390780000000  0.5050640000000  0.3851780000000 1.0
C      1  0.4570740000000  0.4378150000000  0.4803240000000 1.0
C      1  0.4479650000000  0.5149940000000  0.4652020000000 1.0
C      1  0.4486700000000  0.5319860000000  0.5072570000000 1.0
C      1  0.5667660000000  0.5056680000000  0.5585940000000 1.0
C      1  0.5008640000000  0.4159790000000  0.5558900000000 1.0
C      1  0.5931660000000  0.5464840000000  0.4941140000000 1.0
C      1  0.4663370000000  0.5491810000000  0.5452360000000 1.0
C      1  0.5047760000000  0.3881200000000  0.4941710000000 1.0
C      1  0.4283590000000  0.4301590000000  0.5218120000000 1.0
C      1  0.4716680000000  0.4056790000000  0.5214780000000 1.0
C      1  0.4788660000000  0.4363570000000  0.5600330000000 1.0
C      1  0.5278230000000  0.4273370000000  0.5663480000000 1.0
C      1  0.4533930000000  0.5084810000000  0.4117970000000 1.0
C      1  0.5968030000000  0.5546060000000  0.4430300000000 1.0
C      1  0.4082640000000  0.4769880000000  0.5375970000000 1.0
C      1  0.5985440000000  0.5307840000000  0.5187030000000 1.0
C      1  0.5496750000000  0.5291640000000  0.5260630000000 1.0
C      1  0.3880590000000  0.4660690000000  0.4885590000000 1.0
C      1  0.5119870000000  0.5580220000000  0.5215440000000 1.0
C      1  0.4038990000000  0.5095460000000  0.5400640000000 1.0
C      1  0.5110000000000  0.5650620000000  0.5980790000000 1.0
C      1  0.4815290000000  0.5486650000000  0.5917850000000 1.0
C      1  0.4538690000000  0.4254950000000  0.5427850000000 1.0
C      1  0.4522600000000  0.5267370000000  0.5466460000000 1.0
C      1  0.5378600000000  0.4595990000000  0.5874260000000 1.0
C      1  0.4764240000000  0.5829650000000  0.4343760000000 1.0
C      1  0.4809660000000  0.5526290000000  0.5181710000000 1.0
C      1  0.4823740000000  0.4941050000000  0.4166800000000 1.0
C      1  0.5049180000000  0.4306710000000  0.4380030000000 1.0
C      1  0.5131420000000  0.5444170000000  0.5514530000000 1.0
C      1  0.5303280000000  0.5500390000000  0.4090140000000 1.0
C      1  0.5470610000000  0.5288680000000  0.5658490000000 1.0
C      1  0.5199430000000  0.4363710000000  0.5272910000000 1.0
C      1  0.5907520000000  0.4501740000000  0.4533420000000 1.0
C      1  0.5527510000000  0.5554180000000  0.5477250000000 1.0
C      1  0.4596500000000  0.5351920000000  0.4425280000000 1.0
C      1  0.5935480000000  0.5049990000000  0.4558130000000 1.0
C      1  0.5961270000000  0.5172370000000  0.5458040000000 1.0
C      1  0.4981450000000  0.4030570000000  0.5306430000000 1.0
C      1  0.4329300000000  0.5028210000000  0.5555720000000 1.0
C      1  0.4788480000000  0.4992160000000  0.5310050000000 1.0
C      1  0.4278650000000  0.4875150000000  0.5044850000000 1.0
C      1  0.5108830000000  0.5368660000000  0.5810870000000 1.0
C      1  0.5327770000000  0.4445860000000  0.4984510000000 1.0
C      1  0.4350300000000  0.4874800000000  0.4735050000000 1.0
C      1  0.5596160000000  0.4532550000000  0.5645390000000 1.0
C      1  0.5433320000000  0.4811050000000  0.5537640000000 1.0
C      1  0.5343260000000  0.5603940000000  0.4403650000000 1.0
C      1  0.4603840000000  0.5007480000000  0.5859340000000 1.0
C      1  0.4996560000000  0.5527170000000  0.4225010000000 1.0
C      1  0.5569440000000  0.4625170000000  0.4993410000000 1.0
C      1  0.4881660000000  0.4330750000000  0.4868090000000 1.0
C      1  0.5207720000000  0.4972120000000  0.4829110000000 1.0
C      1  0.5255160000000  0.4136910000000  0.4564100000000 1.0
C      1  0.5957270000000  0.5007490000000  0.5094950000000 1.0
C      1  0.4102340000000  0.5346010000000  0.5177560000000 1.0
C      1  0.4332070000000  0.5412730000000  0.5785120000000 1.0
C      1  0.5135830000000  0.5784260000000  0.5558040000000 1.0
C      1  0.4990610000000  0.5222160000000  0.4749580000000 1.0
C      1  0.4870290000000  0.4890710000000  0.5771400000000 1.0
C      1  0.5083190000000  0.4481020000000  0.4670800000000 1.0
C      1  0.5174170000000  0.4847480000000  0.4511520000000 1.0
C      1  0.4814940000000  0.5276200000000  0.4082950000000 1.0
C      1  0.4946260000000  0.5726860000000  0.4785440000000 1.0
C      1  0.5078570000000  0.4468160000000  0.5862790000000 1.0
C      1  0.5952590000000  0.4006290000000  0.4260550000000 1.0
C      1  0.5093850000000  0.4685260000000  0.4943940000000 1.0
C      1  0.5546790000000  0.5673130000000  0.4614220000000 1.0
C      1  0.5949430000000  0.4748040000000  0.4973760000000 1.0
C      1  0.4362240000000  0.5037560000000  0.4351800000000 1.0
END
