TITL C-2778424-3986-835 -0.00310811246156134 125000 -344.254192834539 0 0 62 (C1) n - 1
REM
REM in /home/nfs/bkarasulu/CARBON/AIRSS/Generating-Clusters/REBO/Only-C1/SD-CG/HFTN-CG
REM
REM
REM
REM
REM
REM ./C.cell (11c1c37f851c82e70ff6c80c92926a4b)
REM
REM compiler GCC version 9.2.1 20190827 (Red Hat 9.2.1-1)
REM options -cpp -mtune=generic -march=x86-64 -g -O0 -fpre-include=/usr/include/finclude/math-vector-fortran.h
REM seed 2052576433 -321792979 -1448799439 -1672104851 -1378575215 -1665423239 1585331287 1924185890 1652563102 -1895530808 -900975904 584014947 -938100665 -2039868121 1197175047 474543157 1375498040 1078466096 2067156487 -1290716959 1207027112 801963132 -300903487 1663359749 518503699 383907078 1665667081 -1698779346 1307056157 1201529964 -148603469 -26198136 1627498669
REM
CELL 1.54180   50.00000   50.00000   50.00000   90.00000   90.00000   90.00000
LATT -1
SFAC C  
C      1  0.4670360000000  0.4710990000000  0.4808870000000 1.0
C      1  0.4938480000000  0.4478550000000  0.4456670000000 1.0
C      1  0.5434640000000  0.4693220000000  0.5366040000000 1.0
C      1  0.4869810000000  0.4999440000000  0.4344280000000 1.0
C      1  0.4575510000000  0.5491810000000  0.5286930000000 1.0
C      1  0.5131940000000  0.4669610000000  0.5372180000000 1.0
C      1  0.4202600000000  0.4487300000000  0.5088950000000 1.0
C      1  0.4880570000000  0.5311520000000  0.4864130000000 1.0
C      1  0.5538650000000  0.4955440000000  0.5428730000000 1.0
C      1  0.5587760000000  0.5323750000000  0.4559020000000 1.0
C      1  0.5142920000000  0.4899330000000  0.5186590000000 1.0
C      1  0.4470160000000  0.5260820000000  0.5406260000000 1.0
C      1  0.5566620000000  0.4986020000000  0.4917430000000 1.0
C      1  0.5616110000000  0.4675420000000  0.4920760000000 1.0
C      1  0.5378800000000  0.5502790000000  0.4746800000000 1.0
C      1  0.4674310000000  0.4828850000000  0.5190130000000 1.0
C      1  0.5202910000000  0.4807650000000  0.4450990000000 1.0
C      1  0.4560420000000  0.5500040000000  0.5005260000000 1.0
C      1  0.5198460000000  0.5401480000000  0.5086280000000 1.0
C      1  0.5195200000000  0.5366790000000  0.4508070000000 1.0
C      1  0.4795740000000  0.5625520000000  0.4815960000000 1.0
C      1  0.5240830000000  0.5418300000000  0.4253390000000 1.0
C      1  0.4546280000000  0.5468750000000  0.4409240000000 1.0
C      1  0.5344110000000  0.4321060000000  0.5074130000000 1.0
C      1  0.5660350000000  0.5128200000000  0.5184890000000 1.0
C      1  0.4784010000000  0.5628420000000  0.5421330000000 1.0
C      1  0.4927150000000  0.4852910000000  0.4645070000000 1.0
C      1  0.5525230000000  0.5403840000000  0.5038270000000 1.0
C      1  0.5286450000000  0.5083670000000  0.5052160000000 1.0
C      1  0.5492320000000  0.5356820000000  0.5373680000000 1.0
C      1  0.4613000000000  0.4749670000000  0.5741760000000 1.0
C      1  0.4741000000000  0.4417960000000  0.4659960000000 1.0
C      1  0.4652810000000  0.5064270000000  0.5617930000000 1.0
C      1  0.5239780000000  0.5484070000000  0.5539120000000 1.0
C      1  0.5065010000000  0.5660690000000  0.5407470000000 1.0
C      1  0.4729730000000  0.4527130000000  0.5642940000000 1.0
C      1  0.5353340000000  0.4060760000000  0.5163340000000 1.0
C      1  0.5159630000000  0.5790030000000  0.5171880000000 1.0
C      1  0.4975870000000  0.5183860000000  0.4610100000000 1.0
C      1  0.5596330000000  0.5054950000000  0.4613080000000 1.0
C      1  0.5206550000000  0.5295980000000  0.5786110000000 1.0
C      1  0.5422310000000  0.5143280000000  0.5630130000000 1.0
C      1  0.4840180000000  0.4257710000000  0.4900410000000 1.0
C      1  0.5122100000000  0.4427080000000  0.4900960000000 1.0
C      1  0.4405160000000  0.4584170000000  0.4967660000000 1.0
C      1  0.5210410000000  0.4521360000000  0.4625550000000 1.0
C      1  0.4356920000000  0.4872870000000  0.5605750000000 1.0
C      1  0.5105450000000  0.5647960000000  0.4888900000000 1.0
C      1  0.5114730000000  0.4880890000000  0.4137880000000 1.0
C      1  0.4693750000000  0.5670280000000  0.4526660000000 1.0
C      1  0.4456680000000  0.5244850000000  0.4554250000000 1.0
C      1  0.4420990000000  0.4958750000000  0.5310930000000 1.0
C      1  0.4753590000000  0.4258170000000  0.5165440000000 1.0
C      1  0.4929820000000  0.5236430000000  0.5160270000000 1.0
C      1  0.5528250000000  0.4529680000000  0.5143250000000 1.0
C      1  0.4438580000000  0.5278380000000  0.4875200000000 1.0
C      1  0.4888540000000  0.4619170000000  0.5059290000000 1.0
C      1  0.4501570000000  0.4986580000000  0.4747280000000 1.0
C      1  0.4806710000000  0.5061190000000  0.5329680000000 1.0
C      1  0.5477160000000  0.4734850000000  0.4621500000000 1.0
C      1  0.4871800000000  0.4490310000000  0.5375820000000 1.0
C      1  0.4883540000000  0.4668360000000  0.4257030000000 1.0
END
