TITL C-2778426-5645-1180 0.00168525927513439 125000 -1087.27051514166 0 0 184 (C1) n - 1
REM
REM in /home/nfs/bkarasulu/CARBON/AIRSS/Generating-Clusters/REBO/Only-C1/SD-CG/HFTN-CG
REM
REM
REM
REM
REM
REM ./C.cell (11c1c37f851c82e70ff6c80c92926a4b)
REM
REM compiler GCC version 9.2.1 20190827 (Red Hat 9.2.1-1)
REM options -cpp -mtune=generic -march=x86-64 -g -O0 -fpre-include=/usr/include/finclude/math-vector-fortran.h
REM seed 117286239 1653226559 304404424 1407477537 1660056062 2112278012 -227496339 -1051477217 -1290747322 -2107946274 915190619 1464516119 -1682150807 1697778959 -1433819784 1744737306 -1123035907 -391483477 -2075354469 -698313233 5147112 -834001976 -30428724 -366862448 -1446768598 -279245084 -1217436839 1702053692 5573717 293955280 378247184 -333452372 939521981
REM
CELL 1.54180   50.00000   50.00000   50.00000   90.00000   90.00000   90.00000
LATT -1
SFAC C  
C      1  0.5304700000000  0.4442140000000  0.4589370000000 1.0
C      1  0.5914460000000  0.4396280000000  0.5237980000000 1.0
C      1  0.4640750000000  0.5758310000000  0.4492260000000 1.0
C      1  0.5480260000000  0.4723890000000  0.5226900000000 1.0
C      1  0.5377970000000  0.4348870000000  0.5831570000000 1.0
C      1  0.5151830000000  0.5719720000000  0.5274640000000 1.0
C      1  0.5289450000000  0.6168670000000  0.4913990000000 1.0
C      1  0.5831470000000  0.5393610000000  0.4521340000000 1.0
C      1  0.5683430000000  0.4722930000000  0.4988840000000 1.0
C      1  0.4910170000000  0.6111930000000  0.5435360000000 1.0
C      1  0.4452550000000  0.4403720000000  0.5562590000000 1.0
C      1  0.4787700000000  0.4208550000000  0.4275790000000 1.0
C      1  0.4386460000000  0.4455520000000  0.4350290000000 1.0
C      1  0.5359350000000  0.4112170000000  0.4638990000000 1.0
C      1  0.5214090000000  0.4008890000000  0.4894090000000 1.0
C      1  0.4461230000000  0.5011890000000  0.5325490000000 1.0
C      1  0.3967860000000  0.5094970000000  0.4799670000000 1.0
C      1  0.4713640000000  0.4704370000000  0.4722690000000 1.0
C      1  0.4404440000000  0.5642410000000  0.5450900000000 1.0
C      1  0.5959680000000  0.5234620000000  0.5139990000000 1.0
C      1  0.5780320000000  0.5842160000000  0.4819840000000 1.0
C      1  0.4843270000000  0.4489580000000  0.4952270000000 1.0
C      1  0.4042000000000  0.4290500000000  0.4638740000000 1.0
C      1  0.4745470000000  0.4989470000000  0.4003920000000 1.0
C      1  0.5264320000000  0.5007000000000  0.6246700000000 1.0
C      1  0.4386940000000  0.5449430000000  0.5701580000000 1.0
C      1  0.5208620000000  0.5807400000000  0.4307560000000 1.0
C      1  0.4951940000000  0.5209220000000  0.4119970000000 1.0
C      1  0.5776260000000  0.4558790000000  0.4427940000000 1.0
C      1  0.4885590000000  0.4452430000000  0.5915820000000 1.0
C      1  0.5005930000000  0.4470410000000  0.5254490000000 1.0
C      1  0.4810980000000  0.5367540000000  0.4386450000000 1.0
C      1  0.4957630000000  0.4250440000000  0.4634660000000 1.0
C      1  0.5276230000000  0.4286130000000  0.5341980000000 1.0
C      1  0.4524030000000  0.4419080000000  0.5173710000000 1.0
C      1  0.5026690000000  0.4026990000000  0.5742810000000 1.0
C      1  0.5175240000000  0.5074120000000  0.4293630000000 1.0
C      1  0.5513170000000  0.4050170000000  0.5297800000000 1.0
C      1  0.4950780000000  0.5550730000000  0.4634940000000 1.0
C      1  0.4764830000000  0.5837380000000  0.5767350000000 1.0
C      1  0.4799660000000  0.4880270000000  0.5656560000000 1.0
C      1  0.4881720000000  0.4978610000000  0.4437890000000 1.0
C      1  0.3916920000000  0.5240400000000  0.5271480000000 1.0
C      1  0.4541720000000  0.5831970000000  0.4753280000000 1.0
C      1  0.5696120000000  0.5514790000000  0.5839580000000 1.0
C      1  0.4714490000000  0.3962210000000  0.5327650000000 1.0
C      1  0.4870730000000  0.4459650000000  0.4167660000000 1.0
C      1  0.5467500000000  0.4774700000000  0.5513210000000 1.0
C      1  0.5008610000000  0.5244400000000  0.5098280000000 1.0
C      1  0.5537290000000  0.4273320000000  0.4865670000000 1.0
C      1  0.4525780000000  0.4197080000000  0.4384970000000 1.0
C      1  0.4125290000000  0.4418090000000  0.5168030000000 1.0
C      1  0.5546160000000  0.4524180000000  0.4271030000000 1.0
C      1  0.4422160000000  0.5466420000000  0.4655290000000 1.0
C      1  0.4880490000000  0.4980840000000  0.5972320000000 1.0
C      1  0.5139510000000  0.4453760000000  0.4079720000000 1.0
C      1  0.4273660000000  0.5036410000000  0.5614180000000 1.0
C      1  0.4768970000000  0.4739830000000  0.4240970000000 1.0
C      1  0.5436970000000  0.5183210000000  0.5131880000000 1.0
C      1  0.4544630000000  0.5264010000000  0.4041510000000 1.0
C      1  0.6130140000000  0.4889740000000  0.5236920000000 1.0
C      1  0.5393700000000  0.5598730000000  0.5762220000000 1.0
C      1  0.5104710000000  0.6022220000000  0.5589990000000 1.0
C      1  0.4050560000000  0.5424770000000  0.4788020000000 1.0
C      1  0.4955270000000  0.4786150000000  0.3829790000000 1.0
C      1  0.5965940000000  0.4658250000000  0.5089760000000 1.0
C      1  0.5495320000000  0.5450380000000  0.4931340000000 1.0
C      1  0.5837370000000  0.5075970000000  0.4648290000000 1.0
C      1  0.5037540000000  0.4233550000000  0.5025880000000 1.0
C      1  0.5368390000000  0.3830570000000  0.5140480000000 1.0
C      1  0.5275650000000  0.5561280000000  0.4140990000000 1.0
C      1  0.4841810000000  0.5356700000000  0.5291800000000 1.0
C      1  0.5079540000000  0.3723680000000  0.5018480000000 1.0
C      1  0.4237010000000  0.4946290000000  0.4131260000000 1.0
C      1  0.4361650000000  0.4958060000000  0.4429270000000 1.0
C      1  0.5321860000000  0.5348510000000  0.4394260000000 1.0
C      1  0.5790890000000  0.5209400000000  0.4279800000000 1.0
C      1  0.4242410000000  0.4586910000000  0.5395650000000 1.0
C      1  0.5694710000000  0.5314330000000  0.5249590000000 1.0
C      1  0.3826410000000  0.4965320000000  0.4997120000000 1.0
C      1  0.5264710000000  0.5229440000000  0.5403330000000 1.0
C      1  0.5779190000000  0.4772950000000  0.4671750000000 1.0
C      1  0.4866180000000  0.3927190000000  0.5549080000000 1.0
C      1  0.4994990000000  0.5705980000000  0.4907100000000 1.0
C      1  0.5964240000000  0.5467290000000  0.5658870000000 1.0
C      1  0.5592540000000  0.4997900000000  0.4399750000000 1.0
C      1  0.4479240000000  0.4147790000000  0.5340050000000 1.0
C      1  0.4883040000000  0.5634190000000  0.5325230000000 1.0
C      1  0.5889060000000  0.4936810000000  0.5674150000000 1.0
C      1  0.5291580000000  0.5050890000000  0.5910270000000 1.0
C      1  0.5205340000000  0.4732570000000  0.5029360000000 1.0
C      1  0.5704510000000  0.5710750000000  0.4531950000000 1.0
C      1  0.5508410000000  0.4586430000000  0.5916600000000 1.0
C      1  0.5980140000000  0.4985100000000  0.4944280000000 1.0
C      1  0.5017060000000  0.5498940000000  0.3982690000000 1.0
C      1  0.4732890000000  0.4118780000000  0.4799600000000 1.0
C      1  0.4952420000000  0.5210650000000  0.6076470000000 1.0
C      1  0.4454810000000  0.5531560000000  0.4321440000000 1.0
C      1  0.4590920000000  0.5244430000000  0.4810260000000 1.0
C      1  0.4677710000000  0.5198620000000  0.5447570000000 1.0
C      1  0.4843450000000  0.6164290000000  0.5108650000000 1.0
C      1  0.4863660000000  0.4749930000000  0.5278770000000 1.0
C      1  0.4599900000000  0.6050220000000  0.5304250000000 1.0
C      1  0.4128040000000  0.5309930000000  0.5706310000000 1.0
C      1  0.4084100000000  0.4829700000000  0.5467800000000 1.0
C      1  0.4553750000000  0.4709950000000  0.5305320000000 1.0
C      1  0.5266890000000  0.4902860000000  0.5629670000000 1.0
C      1  0.4717330000000  0.5531360000000  0.4103600000000 1.0
C      1  0.4963490000000  0.4938450000000  0.5031280000000 1.0
C      1  0.5021930000000  0.4995050000000  0.5451160000000 1.0
C      1  0.4278460000000  0.5662520000000  0.4883150000000 1.0
C      1  0.4870620000000  0.5711460000000  0.5978320000000 1.0
C      1  0.4471320000000  0.4589980000000  0.3843080000000 1.0
C      1  0.5063380000000  0.6311900000000  0.4964310000000 1.0
C      1  0.5758960000000  0.5202310000000  0.5717240000000 1.0
C      1  0.4057280000000  0.4464900000000  0.4345750000000 1.0
C      1  0.4752650000000  0.4569020000000  0.3757200000000 1.0
C      1  0.5650490000000  0.6280670000000  0.5587100000000 1.0
C      1  0.4938200000000  0.5785630000000  0.4403520000000 1.0
C      1  0.4464740000000  0.5780570000000  0.5141040000000 1.0
C      1  0.5779380000000  0.4418720000000  0.5550170000000 1.0
C      1  0.4529240000000  0.4382760000000  0.4866620000000 1.0
C      1  0.5206730000000  0.4708380000000  0.3964660000000 1.0
C      1  0.4140740000000  0.5562540000000  0.5301710000000 1.0
C      1  0.5591780000000  0.6016350000000  0.5570460000000 1.0
C      1  0.5230240000000  0.4795500000000  0.4464360000000 1.0
C      1  0.5771230000000  0.5620640000000  0.5002380000000 1.0
C      1  0.5759180000000  0.5823100000000  0.5446190000000 1.0
C      1  0.4394980000000  0.5124410000000  0.5047950000000 1.0
C      1  0.4546570000000  0.4423660000000  0.5880360000000 1.0
C      1  0.6081420000000  0.4304140000000  0.5519780000000 1.0
C      1  0.5426480000000  0.5890870000000  0.4460680000000 1.0
C      1  0.5534650000000  0.4574410000000  0.4745070000000 1.0
C      1  0.5008650000000  0.4583260000000  0.4605250000000 1.0
C      1  0.4236060000000  0.4606130000000  0.4091740000000 1.0
C      1  0.5329470000000  0.5549480000000  0.5442730000000 1.0
C      1  0.4739720000000  0.4574190000000  0.5631590000000 1.0
C      1  0.4852200000000  0.3957740000000  0.5055870000000 1.0
C      1  0.5380600000000  0.4973560000000  0.4932520000000 1.0
C      1  0.5346750000000  0.5901360000000  0.5667820000000 1.0
C      1  0.5625230000000  0.5559510000000  0.5368950000000 1.0
C      1  0.3948850000000  0.5421230000000  0.5510350000000 1.0
C      1  0.5110700000000  0.4266660000000  0.5867520000000 1.0
C      1  0.5351310000000  0.4248420000000  0.4319810000000 1.0
C      1  0.5366670000000  0.4448650000000  0.5084420000000 1.0
C      1  0.5723150000000  0.4188960000000  0.5104740000000 1.0
C      1  0.4153970000000  0.4910590000000  0.4654310000000 1.0
C      1  0.5423940000000  0.5262570000000  0.5702990000000 1.0
C      1  0.5486660000000  0.5345240000000  0.4030350000000 1.0
C      1  0.5711010000000  0.4690020000000  0.5686240000000 1.0
C      1  0.4480530000000  0.4062120000000  0.4633660000000 1.0
C      1  0.6009370000000  0.5644810000000  0.5433890000000 1.0
C      1  0.6012270000000  0.5536980000000  0.5159250000000 1.0
C      1  0.5521650000000  0.5445160000000  0.4617310000000 1.0
C      1  0.5490880000000  0.5955820000000  0.4764430000000 1.0
C      1  0.4258640000000  0.4135030000000  0.5080770000000 1.0
C      1  0.4947270000000  0.5478980000000  0.6090110000000 1.0
C      1  0.4241990000000  0.4081130000000  0.4789690000000 1.0
C      1  0.4447850000000  0.4883860000000  0.3904730000000 1.0
C      1  0.5102830000000  0.5261770000000  0.4636990000000 1.0
C      1  0.5448490000000  0.4810780000000  0.4151440000000 1.0
C      1  0.3895080000000  0.4944700000000  0.5290920000000 1.0
C      1  0.4053060000000  0.4632470000000  0.4639840000000 1.0
C      1  0.4678310000000  0.4715060000000  0.5998550000000 1.0
C      1  0.4678680000000  0.5789530000000  0.5477630000000 1.0
C      1  0.5506010000000  0.5100260000000  0.4023010000000 1.0
C      1  0.4512390000000  0.4960010000000  0.5828830000000 1.0
C      1  0.5359830000000  0.5040990000000  0.4644810000000 1.0
C      1  0.5270900000000  0.5849150000000  0.5001300000000 1.0
C      1  0.4594510000000  0.5148290000000  0.4489350000000 1.0
C      1  0.4154900000000  0.5340870000000  0.4486700000000 1.0
C      1  0.5053290000000  0.4101370000000  0.4385250000000 1.0
C      1  0.4593230000000  0.5256180000000  0.5712010000000 1.0
C      1  0.4754580000000  0.5874920000000  0.4982050000000 1.0
C      1  0.4541230000000  0.4704840000000  0.4448820000000 1.0
C      1  0.4223740000000  0.4470310000000  0.4868190000000 1.0
C      1  0.4262490000000  0.5270670000000  0.4201610000000 1.0
C      1  0.4870810000000  0.5074900000000  0.4764680000000 1.0
C      1  0.4155280000000  0.5324440000000  0.5068240000000 1.0
C      1  0.6098400000000  0.4929680000000  0.5499750000000 1.0
C      1  0.5396240000000  0.4780220000000  0.6072200000000 1.0
C      1  0.5514950000000  0.4248310000000  0.5573870000000 1.0
C      1  0.4439420000000  0.4881320000000  0.4813960000000 1.0
C      1  0.5174760000000  0.5445640000000  0.4984300000000 1.0
END
