TITL C-2778433-5640-642 -0.00531637175904728 125000 -997.091411310291 0 0 171 (C1) n - 1
REM
REM in /home/nfs/bkarasulu/CARBON/AIRSS/Generating-Clusters/REBO/Only-C1/SD-CG/HFTN-CG
REM
REM
REM
REM
REM
REM ./C.cell (11c1c37f851c82e70ff6c80c92926a4b)
REM
REM compiler GCC version 9.2.1 20190827 (Red Hat 9.2.1-1)
REM options -cpp -mtune=generic -march=x86-64 -g -O0 -fpre-include=/usr/include/finclude/math-vector-fortran.h
REM seed 270896534 -1071967870 1370632635 298450208 129539534 1448770705 -2101278618 1785726604 1137924245 -116115720 250665984 -1673164528 -1327333535 1953289613 1825855129 -1141600415 140738087 117546386 -1670183414 1576774840 -1229997364 -1459601245 -780016031 -1416853894 -203884420 1520552274 -105464963 1545094587 257484807 589580285 -1310695095 589417888 1635313801
REM
CELL 1.54180   50.00000   50.00000   50.00000   90.00000   90.00000   90.00000
LATT -1
SFAC C  
C      1  0.5823170000000  0.5097230000000  0.4873610000000 1.0
C      1  0.5591810000000  0.5641900000000  0.4410840000000 1.0
C      1  0.4813200000000  0.4929390000000  0.5839350000000 1.0
C      1  0.5063780000000  0.6048300000000  0.5077580000000 1.0
C      1  0.4599760000000  0.4071320000000  0.4651970000000 1.0
C      1  0.4662250000000  0.5726010000000  0.4974720000000 1.0
C      1  0.5605000000000  0.5322490000000  0.5544760000000 1.0
C      1  0.4686970000000  0.4690860000000  0.4992620000000 1.0
C      1  0.6168970000000  0.5349630000000  0.5067440000000 1.0
C      1  0.5492990000000  0.4776940000000  0.4520540000000 1.0
C      1  0.4478940000000  0.4618530000000  0.5630200000000 1.0
C      1  0.4006310000000  0.5423990000000  0.4832870000000 1.0
C      1  0.5925530000000  0.5188500000000  0.5562700000000 1.0
C      1  0.5667040000000  0.5396000000000  0.4868900000000 1.0
C      1  0.5474550000000  0.4420850000000  0.5866010000000 1.0
C      1  0.5099770000000  0.5599360000000  0.4858630000000 1.0
C      1  0.5236770000000  0.5704020000000  0.5183640000000 1.0
C      1  0.4533860000000  0.4411580000000  0.4971230000000 1.0
C      1  0.4906830000000  0.4439960000000  0.4736190000000 1.0
C      1  0.5009490000000  0.5964490000000  0.4410750000000 1.0
C      1  0.4525060000000  0.4836630000000  0.4533650000000 1.0
C      1  0.5574930000000  0.5580720000000  0.5355900000000 1.0
C      1  0.4021350000000  0.4966700000000  0.5155740000000 1.0
C      1  0.5227930000000  0.5793980000000  0.4362320000000 1.0
C      1  0.5732040000000  0.4541860000000  0.4450620000000 1.0
C      1  0.5117770000000  0.5094670000000  0.3927440000000 1.0
C      1  0.5083510000000  0.6026630000000  0.5363060000000 1.0
C      1  0.3939590000000  0.4689870000000  0.4974540000000 1.0
C      1  0.4595590000000  0.4139950000000  0.5525770000000 1.0
C      1  0.4781440000000  0.4197170000000  0.5811830000000 1.0
C      1  0.3994880000000  0.4901210000000  0.4661000000000 1.0
C      1  0.4372600000000  0.4314180000000  0.4230210000000 1.0
C      1  0.4002280000000  0.5292550000000  0.5135490000000 1.0
C      1  0.5273890000000  0.4523230000000  0.5093010000000 1.0
C      1  0.4669350000000  0.4528730000000  0.4559040000000 1.0
C      1  0.4564850000000  0.6044510000000  0.5195660000000 1.0
C      1  0.4823530000000  0.4892990000000  0.4377670000000 1.0
C      1  0.5068130000000  0.4967460000000  0.4578260000000 1.0
C      1  0.5540860000000  0.4192770000000  0.4875930000000 1.0
C      1  0.4337270000000  0.4611680000000  0.5256300000000 1.0
C      1  0.5391380000000  0.5215200000000  0.4084640000000 1.0
C      1  0.5409530000000  0.5658940000000  0.5634380000000 1.0
C      1  0.5570020000000  0.4287490000000  0.4368000000000 1.0
C      1  0.4136360000000  0.4516460000000  0.4752190000000 1.0
C      1  0.5058470000000  0.5073200000000  0.5322080000000 1.0
C      1  0.5607230000000  0.5328640000000  0.4441560000000 1.0
C      1  0.5969770000000  0.4502290000000  0.4691360000000 1.0
C      1  0.5244340000000  0.4247080000000  0.4265290000000 1.0
C      1  0.4535180000000  0.4972140000000  0.5953670000000 1.0
C      1  0.4271320000000  0.4709090000000  0.4980570000000 1.0
C      1  0.5670620000000  0.5030050000000  0.4112500000000 1.0
C      1  0.6006350000000  0.5531740000000  0.4887780000000 1.0
C      1  0.4765480000000  0.6026830000000  0.4949660000000 1.0
C      1  0.5672000000000  0.5902190000000  0.5138800000000 1.0
C      1  0.5108520000000  0.3999050000000  0.5043320000000 1.0
C      1  0.4765890000000  0.5198070000000  0.4892490000000 1.0
C      1  0.5240690000000  0.4993120000000  0.4298240000000 1.0
C      1  0.4549960000000  0.4296020000000  0.4445030000000 1.0
C      1  0.5256930000000  0.4978400000000  0.5559660000000 1.0
C      1  0.4798790000000  0.4709140000000  0.5641980000000 1.0
C      1  0.4215100000000  0.5015350000000  0.4350270000000 1.0
C      1  0.5459170000000  0.4684010000000  0.5983750000000 1.0
C      1  0.4089920000000  0.4678980000000  0.3990650000000 1.0
C      1  0.4162460000000  0.5152020000000  0.5646110000000 1.0
C      1  0.5045730000000  0.4456070000000  0.4421340000000 1.0
C      1  0.4746140000000  0.5575040000000  0.5422730000000 1.0
C      1  0.4639280000000  0.5883190000000  0.5485620000000 1.0
C      1  0.4416850000000  0.5669620000000  0.5626150000000 1.0
C      1  0.4810190000000  0.4360980000000  0.5451010000000 1.0
C      1  0.4488680000000  0.4913080000000  0.4859260000000 1.0
C      1  0.5415980000000  0.4112860000000  0.5112150000000 1.0
C      1  0.4142310000000  0.5725970000000  0.4834850000000 1.0
C      1  0.5241520000000  0.5972590000000  0.4835210000000 1.0
C      1  0.6038150000000  0.5688000000000  0.4636440000000 1.0
C      1  0.4878060000000  0.4226170000000  0.4999730000000 1.0
C      1  0.4903160000000  0.4951750000000  0.5044120000000 1.0
C      1  0.4877790000000  0.5425920000000  0.4484510000000 1.0
C      1  0.4509320000000  0.5087710000000  0.5385650000000 1.0
C      1  0.5545940000000  0.5198410000000  0.5833660000000 1.0
C      1  0.5366840000000  0.5397850000000  0.5151900000000 1.0
C      1  0.4970530000000  0.4021750000000  0.5589540000000 1.0
C      1  0.5232300000000  0.4659800000000  0.5656950000000 1.0
C      1  0.5101190000000  0.5032840000000  0.5856580000000 1.0
C      1  0.4024870000000  0.4886130000000  0.5484110000000 1.0
C      1  0.5770490000000  0.5610830000000  0.5093220000000 1.0
C      1  0.3941830000000  0.4608900000000  0.5304760000000 1.0
C      1  0.5095170000000  0.4098950000000  0.5353740000000 1.0
C      1  0.4515320000000  0.5424560000000  0.4231990000000 1.0
C      1  0.5705480000000  0.5212950000000  0.5237280000000 1.0
C      1  0.5107650000000  0.4716050000000  0.4906210000000 1.0
C      1  0.5312820000000  0.4714280000000  0.4163470000000 1.0
C      1  0.4351400000000  0.5714610000000  0.5073490000000 1.0
C      1  0.5238370000000  0.5340100000000  0.5445060000000 1.0
C      1  0.5069760000000  0.4816050000000  0.3984070000000 1.0
C      1  0.4999360000000  0.4439770000000  0.5706760000000 1.0
C      1  0.4745740000000  0.4471040000000  0.6012090000000 1.0
C      1  0.4791230000000  0.4547340000000  0.5243530000000 1.0
C      1  0.5347880000000  0.5438960000000  0.5826510000000 1.0
C      1  0.5416520000000  0.4309300000000  0.5614670000000 1.0
C      1  0.4921130000000  0.4015380000000  0.4751320000000 1.0
C      1  0.5195570000000  0.4780690000000  0.6036060000000 1.0
C      1  0.5064110000000  0.5378600000000  0.4239760000000 1.0
C      1  0.4130190000000  0.5374950000000  0.5432760000000 1.0
C      1  0.4668390000000  0.5469630000000  0.3996510000000 1.0
C      1  0.4384060000000  0.5575850000000  0.4420660000000 1.0
C      1  0.4070510000000  0.5191100000000  0.4603000000000 1.0
C      1  0.5387510000000  0.5778300000000  0.4646480000000 1.0
C      1  0.5652630000000  0.4900450000000  0.5848570000000 1.0
C      1  0.5538740000000  0.4959360000000  0.5396260000000 1.0
C      1  0.5825210000000  0.5109740000000  0.4350490000000 1.0
C      1  0.4923750000000  0.4657300000000  0.4219610000000 1.0
C      1  0.4538120000000  0.4657400000000  0.5939050000000 1.0
C      1  0.5955580000000  0.4871170000000  0.5092090000000 1.0
C      1  0.4338200000000  0.5079330000000  0.5107310000000 1.0
C      1  0.5888390000000  0.4909840000000  0.5624470000000 1.0
C      1  0.4072950000000  0.4934100000000  0.4084270000000 1.0
C      1  0.5801750000000  0.4336740000000  0.4924200000000 1.0
C      1  0.4207580000000  0.4715000000000  0.4510310000000 1.0
C      1  0.5619940000000  0.4745150000000  0.4064260000000 1.0
C      1  0.4465400000000  0.5384690000000  0.5448980000000 1.0
C      1  0.4249520000000  0.5789060000000  0.4585550000000 1.0
C      1  0.4286980000000  0.4212330000000  0.5101650000000 1.0
C      1  0.5387100000000  0.5461610000000  0.4746380000000 1.0
C      1  0.6063940000000  0.4796040000000  0.4781850000000 1.0
C      1  0.5360240000000  0.5538090000000  0.4181160000000 1.0
C      1  0.5041970000000  0.5554610000000  0.5523660000000 1.0
C      1  0.4988470000000  0.4594560000000  0.6100070000000 1.0
C      1  0.5469930000000  0.4439910000000  0.4097150000000 1.0
C      1  0.4809420000000  0.5155600000000  0.4199360000000 1.0
C      1  0.5961440000000  0.5010640000000  0.4575000000000 1.0
C      1  0.4973450000000  0.6041380000000  0.4690090000000 1.0
C      1  0.5685030000000  0.4675660000000  0.4760130000000 1.0
C      1  0.4501300000000  0.5118470000000  0.4312980000000 1.0
C      1  0.4530970000000  0.5445340000000  0.5836330000000 1.0
C      1  0.4363150000000  0.4349110000000  0.5566650000000 1.0
C      1  0.6032230000000  0.5239290000000  0.5273510000000 1.0
C      1  0.5377860000000  0.4277530000000  0.4637960000000 1.0
C      1  0.5287270000000  0.4977770000000  0.4798310000000 1.0
C      1  0.4564000000000  0.5427390000000  0.4894290000000 1.0
C      1  0.5291070000000  0.5279680000000  0.4475340000000 1.0
C      1  0.4143170000000  0.4352500000000  0.5341910000000 1.0
C      1  0.5082320000000  0.5340530000000  0.5887620000000 1.0
C      1  0.5257080000000  0.4595820000000  0.4636160000000 1.0
C      1  0.4317830000000  0.5403880000000  0.4682140000000 1.0
C      1  0.5879090000000  0.5746100000000  0.4451830000000 1.0
C      1  0.5558700000000  0.4221380000000  0.5342750000000 1.0
C      1  0.5563370000000  0.4557470000000  0.5036670000000 1.0
C      1  0.5546290000000  0.4705310000000  0.5594600000000 1.0
C      1  0.5199330000000  0.4390760000000  0.5364990000000 1.0
C      1  0.4919450000000  0.5625270000000  0.5149570000000 1.0
C      1  0.4779650000000  0.5036490000000  0.5413220000000 1.0
C      1  0.5716930000000  0.4483200000000  0.5418000000000 1.0
C      1  0.4383570000000  0.5191630000000  0.5836830000000 1.0
C      1  0.4605680000000  0.4150890000000  0.5185030000000 1.0
C      1  0.4866640000000  0.5194410000000  0.4633300000000 1.0
C      1  0.5639430000000  0.4840710000000  0.5118750000000 1.0
C      1  0.4322860000000  0.4237490000000  0.4767470000000 1.0
C      1  0.4327400000000  0.5856070000000  0.5353720000000 1.0
C      1  0.4919110000000  0.5646840000000  0.4634850000000 1.0
C      1  0.4343960000000  0.4843340000000  0.5470080000000 1.0
C      1  0.5033570000000  0.4686250000000  0.5395310000000 1.0
C      1  0.5575160000000  0.5068950000000  0.4658690000000 1.0
C      1  0.5126310000000  0.4085290000000  0.4540790000000 1.0
C      1  0.5451220000000  0.5108230000000  0.5035760000000 1.0
C      1  0.5900410000000  0.4731980000000  0.5399080000000 1.0
C      1  0.4314060000000  0.5394780000000  0.5081720000000 1.0
C      1  0.4882190000000  0.5278910000000  0.3899090000000 1.0
C      1  0.4814250000000  0.5440420000000  0.5891300000000 1.0
C      1  0.4209590000000  0.4446440000000  0.4061230000000 1.0
C      1  0.5426910000000  0.5924320000000  0.5187840000000 1.0
C      1  0.5166240000000  0.5831720000000  0.5555510000000 1.0
END
