TITL C-2778431-5191-652 0.00236903225944063 125000 -573.824564376941 0 0 100 (C1) n - 1
REM
REM in /home/nfs/bkarasulu/CARBON/AIRSS/Generating-Clusters/REBO/Only-C1/SD-CG/HFTN-CG
REM
REM
REM
REM
REM
REM ./C.cell (11c1c37f851c82e70ff6c80c92926a4b)
REM
REM compiler GCC version 9.2.1 20190827 (Red Hat 9.2.1-1)
REM options -cpp -mtune=generic -march=x86-64 -g -O0 -fpre-include=/usr/include/finclude/math-vector-fortran.h
REM seed -722319164 -169573276 60664594 -1335264761 7272839 1658296667 1947331077 -662229662 1431732510 1546699696 -1760085013 719981848 -1379557531 -26012721 -1683839087 1376972856 483915038 186684369 698056944 -733302935 -1203173770 -1869772738 916905121 -1839449673 -1007073313 1229721014 -2071818698 -1888195280 -244438809 777995732 1494949594 -404715117 251490629
REM
CELL 1.54180   50.00000   50.00000   50.00000   90.00000   90.00000   90.00000
LATT -1
SFAC C  
C      1  0.5414310000000  0.5031250000000  0.5102590000000 1.0
C      1  0.5822800000000  0.4928170000000  0.5341330000000 1.0
C      1  0.5436040000000  0.4729770000000  0.5141070000000 1.0
C      1  0.4926280000000  0.4782940000000  0.4574340000000 1.0
C      1  0.4987420000000  0.5455250000000  0.4868530000000 1.0
C      1  0.5207350000000  0.4195280000000  0.4744200000000 1.0
C      1  0.5282140000000  0.5158080000000  0.4490680000000 1.0
C      1  0.5369800000000  0.4821350000000  0.4758740000000 1.0
C      1  0.4772160000000  0.4650980000000  0.5544160000000 1.0
C      1  0.5729780000000  0.4646790000000  0.5228480000000 1.0
C      1  0.4790050000000  0.4726800000000  0.4197920000000 1.0
C      1  0.5234330000000  0.4490770000000  0.4316360000000 1.0
C      1  0.5789960000000  0.5238720000000  0.4633810000000 1.0
C      1  0.5336320000000  0.5130060000000  0.4792280000000 1.0
C      1  0.4642590000000  0.4228650000000  0.5135610000000 1.0
C      1  0.5724880000000  0.4539970000000  0.4922300000000 1.0
C      1  0.4584130000000  0.4815820000000  0.5851440000000 1.0
C      1  0.5372400000000  0.5403130000000  0.5542630000000 1.0
C      1  0.5308390000000  0.4653110000000  0.5602490000000 1.0
C      1  0.4785970000000  0.5756770000000  0.4570900000000 1.0
C      1  0.4652350000000  0.4613420000000  0.4857360000000 1.0
C      1  0.5034670000000  0.4621280000000  0.5740090000000 1.0
C      1  0.5113970000000  0.4744060000000  0.4158100000000 1.0
C      1  0.5303630000000  0.5202900000000  0.5728790000000 1.0
C      1  0.4239340000000  0.4909960000000  0.4704720000000 1.0
C      1  0.4240040000000  0.5521050000000  0.5252440000000 1.0
C      1  0.4494460000000  0.4420680000000  0.4547030000000 1.0
C      1  0.5192670000000  0.5623340000000  0.5563930000000 1.0
C      1  0.5201220000000  0.4279050000000  0.5120230000000 1.0
C      1  0.4902920000000  0.4309190000000  0.5699430000000 1.0
C      1  0.4117130000000  0.5326890000000  0.5024630000000 1.0
C      1  0.5718160000000  0.5475150000000  0.4780900000000 1.0
C      1  0.5428030000000  0.4241200000000  0.5318060000000 1.0
C      1  0.4599970000000  0.4903080000000  0.4353040000000 1.0
C      1  0.4921390000000  0.4203000000000  0.4939170000000 1.0
C      1  0.5236970000000  0.5659720000000  0.4812420000000 1.0
C      1  0.4481170000000  0.5606210000000  0.4777900000000 1.0
C      1  0.4703350000000  0.4623130000000  0.5154240000000 1.0
C      1  0.4240960000000  0.5054260000000  0.4978090000000 1.0
C      1  0.4929130000000  0.5400210000000  0.5131790000000 1.0
C      1  0.4247560000000  0.4569550000000  0.4716230000000 1.0
C      1  0.5060290000000  0.5829080000000  0.4990430000000 1.0
C      1  0.4554430000000  0.5596300000000  0.4445260000000 1.0
C      1  0.4723460000000  0.4535210000000  0.4438160000000 1.0
C      1  0.4989170000000  0.5312710000000  0.5420880000000 1.0
C      1  0.5601180000000  0.4789980000000  0.4336190000000 1.0
C      1  0.4947600000000  0.4456880000000  0.5243300000000 1.0
C      1  0.4542590000000  0.4818730000000  0.4652360000000 1.0
C      1  0.5045210000000  0.4883640000000  0.5122170000000 1.0
C      1  0.5416850000000  0.4882140000000  0.4130840000000 1.0
C      1  0.4366980000000  0.5122820000000  0.4469900000000 1.0
C      1  0.5369540000000  0.5398160000000  0.4961130000000 1.0
C      1  0.5245260000000  0.4552050000000  0.4919440000000 1.0
C      1  0.5731460000000  0.4951030000000  0.5601670000000 1.0
C      1  0.4474370000000  0.5412280000000  0.5405780000000 1.0
C      1  0.5401680000000  0.5387530000000  0.4300690000000 1.0
C      1  0.4529500000000  0.5294580000000  0.4705320000000 1.0
C      1  0.4487640000000  0.4448090000000  0.5350190000000 1.0
C      1  0.4665780000000  0.5276300000000  0.5188970000000 1.0
C      1  0.5229280000000  0.5018970000000  0.5382610000000 1.0
C      1  0.5039340000000  0.4984700000000  0.4368900000000 1.0
C      1  0.5485210000000  0.4396740000000  0.4725930000000 1.0
C      1  0.5068630000000  0.4336720000000  0.4484990000000 1.0
C      1  0.5031040000000  0.5227530000000  0.5822660000000 1.0
C      1  0.4451630000000  0.4346980000000  0.4879460000000 1.0
C      1  0.5730880000000  0.5469660000000  0.5103910000000 1.0
C      1  0.4816650000000  0.4244000000000  0.5437220000000 1.0
C      1  0.5482870000000  0.5308080000000  0.5274920000000 1.0
C      1  0.4390300000000  0.5209920000000  0.5621240000000 1.0
C      1  0.5456600000000  0.5676210000000  0.5143280000000 1.0
C      1  0.4919400000000  0.5019670000000  0.5501010000000 1.0
C      1  0.5533060000000  0.4474280000000  0.5432710000000 1.0
C      1  0.5041340000000  0.5682330000000  0.4467720000000 1.0
C      1  0.5428540000000  0.4934750000000  0.5647280000000 1.0
C      1  0.4946180000000  0.5521430000000  0.5739340000000 1.0
C      1  0.4576900000000  0.5097240000000  0.4959710000000 1.0
C      1  0.4950800000000  0.4499440000000  0.4763090000000 1.0
C      1  0.4236270000000  0.5614340000000  0.4946650000000 1.0
C      1  0.5174840000000  0.5782300000000  0.5302130000000 1.0
C      1  0.4700500000000  0.4893650000000  0.5326480000000 1.0
C      1  0.5766690000000  0.4970460000000  0.4537710000000 1.0
C      1  0.5188190000000  0.4631480000000  0.5307080000000 1.0
C      1  0.5525290000000  0.5654670000000  0.4673920000000 1.0
C      1  0.4741380000000  0.5777630000000  0.4907740000000 1.0
C      1  0.5037330000000  0.5370640000000  0.4463190000000 1.0
C      1  0.5650650000000  0.4761960000000  0.4730850000000 1.0
C      1  0.4168020000000  0.4856770000000  0.5199970000000 1.0
C      1  0.4819190000000  0.5226210000000  0.4273050000000 1.0
C      1  0.4884950000000  0.4920140000000  0.5814400000000 1.0
C      1  0.4836890000000  0.5773580000000  0.5237060000000 1.0
C      1  0.5346100000000  0.5641650000000  0.4428210000000 1.0
C      1  0.5849300000000  0.5166720000000  0.5204750000000 1.0
C      1  0.4842790000000  0.5240600000000  0.4698420000000 1.0
C      1  0.4514620000000  0.4531440000000  0.5680480000000 1.0
C      1  0.4406080000000  0.4940910000000  0.5650260000000 1.0
C      1  0.4757060000000  0.5559660000000  0.5454890000000 1.0
C      1  0.4558120000000  0.5340510000000  0.4311120000000 1.0
C      1  0.4869780000000  0.4947700000000  0.4867600000000 1.0
C      1  0.4389040000000  0.4769720000000  0.5386860000000 1.0
C      1  0.5489110000000  0.4540120000000  0.4440050000000 1.0
END
