TITL C-2778424-3986-284 0.00649731969065028 125000 -547.288473267786 0 0 96 (C1) n - 1
REM
REM in /home/nfs/bkarasulu/CARBON/AIRSS/Generating-Clusters/REBO/Only-C1/SD-CG/HFTN-CG
REM
REM
REM
REM
REM
REM ./C.cell (11c1c37f851c82e70ff6c80c92926a4b)
REM
REM compiler GCC version 9.2.1 20190827 (Red Hat 9.2.1-1)
REM options -cpp -mtune=generic -march=x86-64 -g -O0 -fpre-include=/usr/include/finclude/math-vector-fortran.h
REM seed -1907109524 304976476 964367855 -1875452720 -863861367 -879336023 -506586597 1735826111 658148149 650864810 1238970559 -7488392 1596819185 -2135454699 -2027879811 -2118298791 907227767 2095698478 465365364 311663758 -1680603315 1533911878 -1096028804 126137536 858165603 1155093698 1423998328 -1794193159 1506497860 525460769 -2066262218 1746983416 -848091620
REM
CELL 1.54180   50.00000   50.00000   50.00000   90.00000   90.00000   90.00000
LATT -1
SFAC C  
C      1  0.4344600000000  0.4889400000000  0.4338600000000 1.0
C      1  0.4605800000000  0.4822850000000  0.4272640000000 1.0
C      1  0.5625280000000  0.4599550000000  0.4544470000000 1.0
C      1  0.5202630000000  0.4643390000000  0.4746760000000 1.0
C      1  0.4501650000000  0.4644830000000  0.4613360000000 1.0
C      1  0.4653050000000  0.5219050000000  0.5463410000000 1.0
C      1  0.5522920000000  0.5542910000000  0.5398700000000 1.0
C      1  0.5340780000000  0.4503620000000  0.4467470000000 1.0
C      1  0.4756520000000  0.4557750000000  0.4281660000000 1.0
C      1  0.5343140000000  0.5567560000000  0.4934120000000 1.0
C      1  0.5732720000000  0.4793640000000  0.5445400000000 1.0
C      1  0.4705550000000  0.5388120000000  0.5246840000000 1.0
C      1  0.5064120000000  0.4900100000000  0.5782950000000 1.0
C      1  0.4323990000000  0.4792720000000  0.5663350000000 1.0
C      1  0.5365370000000  0.6244180000000  0.5226100000000 1.0
C      1  0.5565230000000  0.5207930000000  0.5439270000000 1.0
C      1  0.5777930000000  0.4996100000000  0.5177020000000 1.0
C      1  0.4766840000000  0.4840970000000  0.5418740000000 1.0
C      1  0.5619130000000  0.5511330000000  0.4911560000000 1.0
C      1  0.5332110000000  0.5991160000000  0.5227310000000 1.0
C      1  0.5261790000000  0.4486470000000  0.4999520000000 1.0
C      1  0.5662930000000  0.4905540000000  0.4507090000000 1.0
C      1  0.4917440000000  0.5597810000000  0.4345960000000 1.0
C      1  0.5172100000000  0.5458730000000  0.4734650000000 1.0
C      1  0.4179580000000  0.5040260000000  0.4597900000000 1.0
C      1  0.5869890000000  0.5096070000000  0.5488010000000 1.0
C      1  0.4918080000000  0.5152090000000  0.4740300000000 1.0
C      1  0.5291950000000  0.5685550000000  0.5228760000000 1.0
C      1  0.4742630000000  0.4224570000000  0.5054780000000 1.0
C      1  0.4903160000000  0.4786950000000  0.5145520000000 1.0
C      1  0.4718350000000  0.4907480000000  0.4645620000000 1.0
C      1  0.3937990000000  0.4925970000000  0.4683010000000 1.0
C      1  0.4790810000000  0.4923260000000  0.5838890000000 1.0
C      1  0.5362970000000  0.5451220000000  0.4154970000000 1.0
C      1  0.4503630000000  0.5604950000000  0.5511140000000 1.0
C      1  0.4342960000000  0.5396200000000  0.5642360000000 1.0
C      1  0.5069650000000  0.4536030000000  0.5196560000000 1.0
C      1  0.5239340000000  0.4929770000000  0.4826280000000 1.0
C      1  0.5512220000000  0.4352400000000  0.5390850000000 1.0
C      1  0.5712280000000  0.4479830000000  0.4784550000000 1.0
C      1  0.4341600000000  0.5170610000000  0.4817310000000 1.0
C      1  0.4481270000000  0.5625290000000  0.5182410000000 1.0
C      1  0.4769580000000  0.4459470000000  0.5536200000000 1.0
C      1  0.4400300000000  0.5495330000000  0.4878900000000 1.0
C      1  0.5492160000000  0.4954210000000  0.5006360000000 1.0
C      1  0.5731500000000  0.5010400000000  0.4783430000000 1.0
C      1  0.4617360000000  0.4335750000000  0.4186910000000 1.0
C      1  0.4310750000000  0.5107960000000  0.5631390000000 1.0
C      1  0.4380780000000  0.4523020000000  0.5252960000000 1.0
C      1  0.4398630000000  0.4658060000000  0.4999220000000 1.0
C      1  0.5732330000000  0.5134500000000  0.4273030000000 1.0
C      1  0.5565200000000  0.4427600000000  0.5058900000000 1.0
C      1  0.5095700000000  0.4555310000000  0.4245980000000 1.0
C      1  0.4706950000000  0.3922890000000  0.5080200000000 1.0
C      1  0.4954270000000  0.4531640000000  0.4554630000000 1.0
C      1  0.5379500000000  0.5013730000000  0.4406060000000 1.0
C      1  0.5093080000000  0.5297360000000  0.5267260000000 1.0
C      1  0.4626970000000  0.5314360000000  0.4698520000000 1.0
C      1  0.4713240000000  0.5623740000000  0.4929870000000 1.0
C      1  0.5816390000000  0.5253490000000  0.4979680000000 1.0
C      1  0.4898110000000  0.5396000000000  0.5724990000000 1.0
C      1  0.4957530000000  0.4288580000000  0.4795880000000 1.0
C      1  0.5814150000000  0.5526590000000  0.4005750000000 1.0
C      1  0.4881740000000  0.5539510000000  0.4649960000000 1.0
C      1  0.4703070000000  0.4749210000000  0.4935300000000 1.0
C      1  0.5336560000000  0.4513250000000  0.5563990000000 1.0
C      1  0.5466960000000  0.4774500000000  0.5616200000000 1.0
C      1  0.4620900000000  0.4702140000000  0.5695110000000 1.0
C      1  0.5232780000000  0.4980390000000  0.4180310000000 1.0
C      1  0.4894340000000  0.5339160000000  0.4994560000000 1.0
C      1  0.4294600000000  0.5033900000000  0.5085150000000 1.0
C      1  0.4185730000000  0.5156630000000  0.4278570000000 1.0
C      1  0.5439570000000  0.5381610000000  0.5687620000000 1.0
C      1  0.5768810000000  0.5512700000000  0.5194550000000 1.0
C      1  0.5099720000000  0.4892270000000  0.5475490000000 1.0
C      1  0.5054870000000  0.4475540000000  0.5481340000000 1.0
C      1  0.4697380000000  0.5183990000000  0.5764770000000 1.0
C      1  0.4234180000000  0.4672380000000  0.4743870000000 1.0
C      1  0.4797050000000  0.5615230000000  0.5563040000000 1.0
C      1  0.5080770000000  0.5422430000000  0.4190060000000 1.0
C      1  0.4666760000000  0.4434680000000  0.4809540000000 1.0
C      1  0.5371610000000  0.5015860000000  0.5312590000000 1.0
C      1  0.5007040000000  0.5616510000000  0.5351300000000 1.0
C      1  0.5636770000000  0.5371320000000  0.4144170000000 1.0
C      1  0.4204860000000  0.4681510000000  0.5422240000000 1.0
C      1  0.5768320000000  0.4518390000000  0.5316580000000 1.0
C      1  0.4618540000000  0.4371070000000  0.5310650000000 1.0
C      1  0.5106800000000  0.5008210000000  0.5095420000000 1.0
C      1  0.5222870000000  0.4254640000000  0.4658320000000 1.0
C      1  0.4468160000000  0.4988430000000  0.5349260000000 1.0
C      1  0.4095590000000  0.4886940000000  0.5245060000000 1.0
C      1  0.5224000000000  0.5158000000000  0.4622110000000 1.0
C      1  0.5351390000000  0.5053800000000  0.5738040000000 1.0
C      1  0.4999820000000  0.5145130000000  0.4182600000000 1.0
C      1  0.4790700000000  0.5046260000000  0.4342100000000 1.0
C      1  0.5141300000000  0.5280230000000  0.5587880000000 1.0
END
