TITL C-2778430-5657-1040 0.00455297455763972 125000 -1073.66675949245 0 0 185 (C1) n - 1
REM
REM in /home/nfs/bkarasulu/CARBON/AIRSS/Generating-Clusters/REBO/Only-C1/SD-CG/HFTN-CG
REM
REM
REM
REM
REM
REM ./C.cell (11c1c37f851c82e70ff6c80c92926a4b)
REM
REM compiler GCC version 9.2.1 20190827 (Red Hat 9.2.1-1)
REM options -cpp -mtune=generic -march=x86-64 -g -O0 -fpre-include=/usr/include/finclude/math-vector-fortran.h
REM seed -538724280 793379364 -1009188356 1431575824 1591357933 1490448076 1559167819 -182047665 372422566 626739879 2102773688 114404597 -749702546 -1223304377 -1508032180 1680205060 -1582403439 665360502 -903454527 -486065612 -1767855101 -681359460 724447023 791106039 -1240618549 1852285991 -1733895063 -152229554 -980987220 1945868238 1721887313 -1712338504 911439255
REM
CELL 1.54180   50.00000   50.00000   50.00000   90.00000   90.00000   90.00000
LATT -1
SFAC C  
C      1  0.5887610000000  0.5320130000000  0.4377090000000 1.0
C      1  0.4129530000000  0.5473900000000  0.4439110000000 1.0
C      1  0.4431900000000  0.4021530000000  0.4902060000000 1.0
C      1  0.4400290000000  0.5461890000000  0.5413360000000 1.0
C      1  0.4784750000000  0.5049080000000  0.3871530000000 1.0
C      1  0.5655310000000  0.5756640000000  0.5382330000000 1.0
C      1  0.5228370000000  0.3954290000000  0.5399250000000 1.0
C      1  0.4290280000000  0.5728110000000  0.5236410000000 1.0
C      1  0.6003380000000  0.5169890000000  0.4607470000000 1.0
C      1  0.4944410000000  0.4549680000000  0.5602060000000 1.0
C      1  0.5026650000000  0.5494330000000  0.4753260000000 1.0
C      1  0.5917510000000  0.4749630000000  0.4304000000000 1.0
C      1  0.4752030000000  0.3917420000000  0.5370320000000 1.0
C      1  0.5764350000000  0.4123380000000  0.5415970000000 1.0
C      1  0.5772540000000  0.4900970000000  0.4110670000000 1.0
C      1  0.4225440000000  0.4784200000000  0.4995430000000 1.0
C      1  0.4695690000000  0.4868200000000  0.4479910000000 1.0
C      1  0.4268530000000  0.4909560000000  0.5528880000000 1.0
C      1  0.4891320000000  0.4787570000000  0.3928970000000 1.0
C      1  0.4738580000000  0.5844990000000  0.4471360000000 1.0
C      1  0.5901730000000  0.5436450000000  0.5659020000000 1.0
C      1  0.3904460000000  0.4811680000000  0.5655780000000 1.0
C      1  0.5256060000000  0.6048060000000  0.5231590000000 1.0
C      1  0.5509260000000  0.5462800000000  0.4618250000000 1.0
C      1  0.4799270000000  0.5309160000000  0.5699110000000 1.0
C      1  0.3984420000000  0.4963000000000  0.4499360000000 1.0
C      1  0.5181950000000  0.4355010000000  0.5850290000000 1.0
C      1  0.4984090000000  0.5751920000000  0.4252660000000 1.0
C      1  0.5525370000000  0.6020850000000  0.4666090000000 1.0
C      1  0.3923580000000  0.4775000000000  0.5133330000000 1.0
C      1  0.5802210000000  0.5848050000000  0.4717430000000 1.0
C      1  0.5148810000000  0.5039550000000  0.4191510000000 1.0
C      1  0.4636350000000  0.4994610000000  0.5266080000000 1.0
C      1  0.4798630000000  0.5964660000000  0.5457890000000 1.0
C      1  0.5324410000000  0.5286120000000  0.4448650000000 1.0
C      1  0.5226540000000  0.4439760000000  0.5444020000000 1.0
C      1  0.5459100000000  0.5181400000000  0.5918620000000 1.0
C      1  0.5215510000000  0.4846710000000  0.4723750000000 1.0
C      1  0.5411030000000  0.5184930000000  0.4956920000000 1.0
C      1  0.4981050000000  0.5503610000000  0.5549810000000 1.0
C      1  0.4637210000000  0.4258740000000  0.4839670000000 1.0
C      1  0.4377350000000  0.4930470000000  0.4145620000000 1.0
C      1  0.5538060000000  0.4436350000000  0.4286850000000 1.0
C      1  0.4325310000000  0.4999610000000  0.5218380000000 1.0
C      1  0.5049720000000  0.5184740000000  0.4858070000000 1.0
C      1  0.4942310000000  0.5000850000000  0.4605930000000 1.0
C      1  0.5307400000000  0.5488910000000  0.5069930000000 1.0
C      1  0.4965370000000  0.5275550000000  0.3926600000000 1.0
C      1  0.5517820000000  0.4806890000000  0.3951680000000 1.0
C      1  0.5340630000000  0.4259400000000  0.4352500000000 1.0
C      1  0.4497120000000  0.4083850000000  0.5424110000000 1.0
C      1  0.4915790000000  0.4404700000000  0.4899190000000 1.0
C      1  0.5703290000000  0.4366210000000  0.4643670000000 1.0
C      1  0.5565930000000  0.4657580000000  0.4753410000000 1.0
C      1  0.5557710000000  0.4878800000000  0.5825680000000 1.0
C      1  0.4262450000000  0.4523320000000  0.4812360000000 1.0
C      1  0.4992500000000  0.5232850000000  0.4405370000000 1.0
C      1  0.4556660000000  0.4616400000000  0.4559090000000 1.0
C      1  0.5387120000000  0.4567010000000  0.5178410000000 1.0
C      1  0.4636470000000  0.5522750000000  0.5070920000000 1.0
C      1  0.6032350000000  0.4871590000000  0.4587200000000 1.0
C      1  0.4432620000000  0.4599210000000  0.4181830000000 1.0
C      1  0.5048760000000  0.5691100000000  0.5093370000000 1.0
C      1  0.4120550000000  0.4222100000000  0.5032960000000 1.0
C      1  0.5699320000000  0.4965640000000  0.5119020000000 1.0
C      1  0.5764830000000  0.5623560000000  0.4880440000000 1.0
C      1  0.4306010000000  0.4016380000000  0.5180230000000 1.0
C      1  0.4507070000000  0.5136940000000  0.5909770000000 1.0
C      1  0.4493390000000  0.5837090000000  0.4707300000000 1.0
C      1  0.5090880000000  0.5187890000000  0.5196390000000 1.0
C      1  0.5701120000000  0.5306880000000  0.4828860000000 1.0
C      1  0.4811080000000  0.5996450000000  0.4993220000000 1.0
C      1  0.4810080000000  0.5246840000000  0.6020420000000 1.0
C      1  0.5502510000000  0.4696410000000  0.5572920000000 1.0
C      1  0.5264920000000  0.5191270000000  0.3939040000000 1.0
C      1  0.5346920000000  0.4443550000000  0.4804550000000 1.0
C      1  0.4114800000000  0.5213340000000  0.5534680000000 1.0
C      1  0.4285380000000  0.4462610000000  0.5732750000000 1.0
C      1  0.3882030000000  0.4874040000000  0.4813970000000 1.0
C      1  0.4910270000000  0.4226920000000  0.5711860000000 1.0
C      1  0.4064750000000  0.4664540000000  0.4626950000000 1.0
C      1  0.5197630000000  0.3997100000000  0.5076550000000 1.0
C      1  0.4482460000000  0.5622530000000  0.5768610000000 1.0
C      1  0.4781070000000  0.5238990000000  0.5141950000000 1.0
C      1  0.4967270000000  0.4760380000000  0.5139150000000 1.0
C      1  0.4743050000000  0.5056390000000  0.5564410000000 1.0
C      1  0.5042560000000  0.5967110000000  0.4511620000000 1.0
C      1  0.3910530000000  0.4986570000000  0.5373090000000 1.0
C      1  0.5743990000000  0.5572570000000  0.4435690000000 1.0
C      1  0.4769310000000  0.4645370000000  0.4221800000000 1.0
C      1  0.5498500000000  0.5152410000000  0.5522370000000 1.0
C      1  0.5357090000000  0.5876120000000  0.5508280000000 1.0
C      1  0.4065610000000  0.5151170000000  0.4840880000000 1.0
C      1  0.4151220000000  0.5800980000000  0.4949470000000 1.0
C      1  0.4980410000000  0.5830420000000  0.4789380000000 1.0
C      1  0.4586770000000  0.4320070000000  0.5653100000000 1.0
C      1  0.4949520000000  0.6087690000000  0.5227630000000 1.0
C      1  0.5208740000000  0.4749690000000  0.3925900000000 1.0
C      1  0.5612660000000  0.4919520000000  0.4837670000000 1.0
C      1  0.4721610000000  0.5389580000000  0.4779180000000 1.0
C      1  0.5380270000000  0.5464840000000  0.4203500000000 1.0
C      1  0.4049250000000  0.4468530000000  0.5210060000000 1.0
C      1  0.4518480000000  0.4878890000000  0.5710040000000 1.0
C      1  0.4148370000000  0.4740120000000  0.4307350000000 1.0
C      1  0.5347450000000  0.4954650000000  0.4461790000000 1.0
C      1  0.5635760000000  0.4733350000000  0.5286010000000 1.0
C      1  0.6026620000000  0.4741380000000  0.5169340000000 1.0
C      1  0.5004120000000  0.4456340000000  0.5218070000000 1.0
C      1  0.4601300000000  0.4220220000000  0.4528260000000 1.0
C      1  0.5452940000000  0.5727310000000  0.5787370000000 1.0
C      1  0.5532620000000  0.4115320000000  0.4672340000000 1.0
C      1  0.5542740000000  0.5312320000000  0.4006380000000 1.0
C      1  0.5175180000000  0.5634380000000  0.5964480000000 1.0
C      1  0.5004950000000  0.4618080000000  0.4694080000000 1.0
C      1  0.5272390000000  0.6126630000000  0.4503250000000 1.0
C      1  0.5543850000000  0.5809420000000  0.4415180000000 1.0
C      1  0.5101500000000  0.4716470000000  0.4256370000000 1.0
C      1  0.4092170000000  0.4648790000000  0.5775540000000 1.0
C      1  0.4978650000000  0.4894970000000  0.5441820000000 1.0
C      1  0.4813520000000  0.3852900000000  0.5072040000000 1.0
C      1  0.4866600000000  0.5560980000000  0.5928110000000 1.0
C      1  0.5077000000000  0.5793370000000  0.5682050000000 1.0
C      1  0.4062060000000  0.5503750000000  0.5360610000000 1.0
C      1  0.6007560000000  0.5243950000000  0.4910370000000 1.0
C      1  0.4801100000000  0.4812760000000  0.6186140000000 1.0
C      1  0.4740520000000  0.5818160000000  0.5744510000000 1.0
C      1  0.4561370000000  0.4677480000000  0.5232610000000 1.0
C      1  0.3982740000000  0.5239040000000  0.5159410000000 1.0
C      1  0.4309440000000  0.5302660000000  0.5126070000000 1.0
C      1  0.4477150000000  0.5103850000000  0.4394370000000 1.0
C      1  0.6045290000000  0.4724590000000  0.4896480000000 1.0
C      1  0.5326330000000  0.5637900000000  0.4771540000000 1.0
C      1  0.5832740000000  0.4916280000000  0.5623850000000 1.0
C      1  0.5217180000000  0.4682670000000  0.5760310000000 1.0
C      1  0.4601890000000  0.5556810000000  0.4548010000000 1.0
C      1  0.4984590000000  0.5005020000000  0.6102520000000 1.0
C      1  0.5380500000000  0.5924940000000  0.4946940000000 1.0
C      1  0.4657890000000  0.5069000000000  0.4873750000000 1.0
C      1  0.5309790000000  0.5735560000000  0.4262980000000 1.0
C      1  0.4978000000000  0.3990240000000  0.5528020000000 1.0
C      1  0.5888450000000  0.4623140000000  0.5459250000000 1.0
C      1  0.5989440000000  0.4537300000000  0.4633340000000 1.0
C      1  0.4500450000000  0.5057200000000  0.3894710000000 1.0
C      1  0.5854050000000  0.5482690000000  0.5345940000000 1.0
C      1  0.4776450000000  0.4778840000000  0.4893060000000 1.0
C      1  0.5341060000000  0.5415880000000  0.5776680000000 1.0
C      1  0.5844600000000  0.4439030000000  0.4343070000000 1.0
C      1  0.4248650000000  0.4309940000000  0.5442530000000 1.0
C      1  0.4368690000000  0.5341520000000  0.5726440000000 1.0
C      1  0.5244730000000  0.4930310000000  0.5966540000000 1.0
C      1  0.4903780000000  0.5705710000000  0.5332940000000 1.0
C      1  0.5287340000000  0.4968440000000  0.5372630000000 1.0
C      1  0.5662020000000  0.5213300000000  0.5266240000000 1.0
C      1  0.4283650000000  0.4634480000000  0.5372930000000 1.0
C      1  0.4185430000000  0.5205210000000  0.4520860000000 1.0
C      1  0.5463900000000  0.4383210000000  0.5671050000000 1.0
C      1  0.5762500000000  0.4355840000000  0.5564640000000 1.0
C      1  0.4224160000000  0.5666450000000  0.4616750000000 1.0
C      1  0.5226540000000  0.5346620000000  0.5466970000000 1.0
C      1  0.5776540000000  0.5187040000000  0.4135590000000 1.0
C      1  0.5598250000000  0.6051890000000  0.5252820000000 1.0
C      1  0.6023480000000  0.4985850000000  0.5349460000000 1.0
C      1  0.5516790000000  0.4054140000000  0.5300760000000 1.0
C      1  0.4643550000000  0.4631840000000  0.5547190000000 1.0
C      1  0.5277810000000  0.4867420000000  0.5047190000000 1.0
C      1  0.4235260000000  0.4220760000000  0.4711720000000 1.0
C      1  0.5404980000000  0.4256560000000  0.5054910000000 1.0
C      1  0.4539300000000  0.5841720000000  0.5030690000000 1.0
C      1  0.5013500000000  0.3915830000000  0.4803280000000 1.0
C      1  0.4923010000000  0.4161810000000  0.5105120000000 1.0
C      1  0.4351210000000  0.4396890000000  0.4444250000000 1.0
C      1  0.5434890000000  0.4712180000000  0.4250800000000 1.0
C      1  0.4920270000000  0.4123480000000  0.4591660000000 1.0
C      1  0.4341530000000  0.5521320000000  0.4899760000000 1.0
C      1  0.4873890000000  0.5478240000000  0.4115410000000 1.0
C      1  0.4551840000000  0.4558300000000  0.4950860000000 1.0
C      1  0.5332530000000  0.3977270000000  0.4702730000000 1.0
C      1  0.5743950000000  0.5217570000000  0.5746060000000 1.0
C      1  0.5146330000000  0.4339930000000  0.4579210000000 1.0
C      1  0.5559060000000  0.5687980000000  0.5091640000000 1.0
C      1  0.4368770000000  0.5030060000000  0.4824670000000 1.0
C      1  0.4539690000000  0.4867690000000  0.6108640000000 1.0
C      1  0.4683890000000  0.5341690000000  0.4346260000000 1.0
C      1  0.6049300000000  0.5245420000000  0.5197350000000 1.0
C      1  0.4834560000000  0.4335340000000  0.4332000000000 1.0
END
