TITL C-2778432-5617-505 0.00242598823433177 125000 -1003.13620355474 0 0 171 (C1) n - 1
REM
REM in /home/nfs/bkarasulu/CARBON/AIRSS/Generating-Clusters/REBO/Only-C1/SD-CG/HFTN-CG
REM
REM
REM
REM
REM
REM ./C.cell (11c1c37f851c82e70ff6c80c92926a4b)
REM
REM compiler GCC version 9.2.1 20190827 (Red Hat 9.2.1-1)
REM options -cpp -mtune=generic -march=x86-64 -g -O0 -fpre-include=/usr/include/finclude/math-vector-fortran.h
REM seed -1571369644 1629963662 -1138413104 -1210811122 -135483239 -1717879947 -1256585905 1405623563 -271655992 1641637360 1205936508 -628736479 2045258438 -2001347576 -1905974935 -409360754 1230923341 -1362807015 -1797183427 -125577874 -1569043956 -174493199 -453720449 876374130 -1553060650 -905988498 -1727108481 -1563217117 -1018377001 17308530 -866621824 1500220784 -1459910428
REM
CELL 1.54180   50.00000   50.00000   50.00000   90.00000   90.00000   90.00000
LATT -1
SFAC C  
C      1  0.4843030000000  0.4121910000000  0.5011530000000 1.0
C      1  0.5214010000000  0.3896400000000  0.5197880000000 1.0
C      1  0.4481940000000  0.5768210000000  0.5511710000000 1.0
C      1  0.5088460000000  0.4601750000000  0.4614930000000 1.0
C      1  0.5438710000000  0.4922810000000  0.4640220000000 1.0
C      1  0.5172680000000  0.5167610000000  0.4314890000000 1.0
C      1  0.4812330000000  0.4160750000000  0.4404100000000 1.0
C      1  0.5429520000000  0.5050670000000  0.3926960000000 1.0
C      1  0.4601120000000  0.5540270000000  0.5733510000000 1.0
C      1  0.5090790000000  0.5664960000000  0.5151880000000 1.0
C      1  0.5256430000000  0.4230110000000  0.4246510000000 1.0
C      1  0.4730800000000  0.3974850000000  0.5501240000000 1.0
C      1  0.4690190000000  0.5065260000000  0.4029170000000 1.0
C      1  0.4381070000000  0.5469420000000  0.4301690000000 1.0
C      1  0.4464060000000  0.4568530000000  0.5251870000000 1.0
C      1  0.5203410000000  0.4392420000000  0.5354190000000 1.0
C      1  0.5091180000000  0.4866510000000  0.5685960000000 1.0
C      1  0.5339970000000  0.4523320000000  0.4159480000000 1.0
C      1  0.5493870000000  0.4024130000000  0.4737330000000 1.0
C      1  0.5334190000000  0.3849940000000  0.4984000000000 1.0
C      1  0.5630960000000  0.4953210000000  0.4367990000000 1.0
C      1  0.4954040000000  0.5935640000000  0.5279590000000 1.0
C      1  0.4883020000000  0.4522640000000  0.5974140000000 1.0
C      1  0.4955010000000  0.5590010000000  0.4864690000000 1.0
C      1  0.5060120000000  0.5036270000000  0.5410530000000 1.0
C      1  0.4983450000000  0.4878270000000  0.4743040000000 1.0
C      1  0.5024970000000  0.4048990000000  0.4611570000000 1.0
C      1  0.5586470000000  0.5521070000000  0.4454110000000 1.0
C      1  0.4228470000000  0.5559400000000  0.5613700000000 1.0
C      1  0.5692020000000  0.4887390000000  0.4833410000000 1.0
C      1  0.4585340000000  0.4553570000000  0.4958780000000 1.0
C      1  0.4112720000000  0.4430310000000  0.5122520000000 1.0
C      1  0.4881440000000  0.4472710000000  0.4030790000000 1.0
C      1  0.5535330000000  0.4832270000000  0.5762770000000 1.0
C      1  0.3996150000000  0.5350940000000  0.5464430000000 1.0
C      1  0.4318980000000  0.4226460000000  0.5106900000000 1.0
C      1  0.4239870000000  0.4641760000000  0.4419930000000 1.0
C      1  0.5128540000000  0.4259270000000  0.4986200000000 1.0
C      1  0.5277920000000  0.4621830000000  0.5155190000000 1.0
C      1  0.5994700000000  0.4835190000000  0.5312700000000 1.0
C      1  0.5213520000000  0.5123440000000  0.4760370000000 1.0
C      1  0.4669800000000  0.4781560000000  0.6009770000000 1.0
C      1  0.4654610000000  0.6098410000000  0.4762230000000 1.0
C      1  0.5754740000000  0.4213750000000  0.4699730000000 1.0
C      1  0.4332440000000  0.4355470000000  0.5489990000000 1.0
C      1  0.5549130000000  0.4953990000000  0.6006460000000 1.0
C      1  0.5302620000000  0.4410260000000  0.5744770000000 1.0
C      1  0.5594280000000  0.4503620000000  0.4788440000000 1.0
C      1  0.5858190000000  0.5369050000000  0.4596230000000 1.0
C      1  0.4530260000000  0.4670180000000  0.4380480000000 1.0
C      1  0.5229710000000  0.5287060000000  0.5554980000000 1.0
C      1  0.5434920000000  0.5034810000000  0.5546890000000 1.0
C      1  0.5623990000000  0.4635100000000  0.4282310000000 1.0
C      1  0.5064270000000  0.5081670000000  0.5901830000000 1.0
C      1  0.5868140000000  0.5110870000000  0.5471560000000 1.0
C      1  0.4060060000000  0.4853630000000  0.5411170000000 1.0
C      1  0.4391370000000  0.5245890000000  0.4727910000000 1.0
C      1  0.4925160000000  0.4650260000000  0.5477170000000 1.0
C      1  0.5564930000000  0.4538840000000  0.5600390000000 1.0
C      1  0.4971030000000  0.5191460000000  0.3887330000000 1.0
C      1  0.5803090000000  0.4554330000000  0.5353620000000 1.0
C      1  0.4884910000000  0.5388200000000  0.4150760000000 1.0
C      1  0.4663030000000  0.5043270000000  0.5445760000000 1.0
C      1  0.4822670000000  0.5810670000000  0.5540210000000 1.0
C      1  0.5295770000000  0.4525980000000  0.4857370000000 1.0
C      1  0.4316670000000  0.5348770000000  0.5106080000000 1.0
C      1  0.4889510000000  0.5490540000000  0.5592260000000 1.0
C      1  0.5582680000000  0.5272930000000  0.5372100000000 1.0
C      1  0.4754270000000  0.3891400000000  0.5222550000000 1.0
C      1  0.4657500000000  0.5591920000000  0.4175560000000 1.0
C      1  0.5933880000000  0.4730850000000  0.4667850000000 1.0
C      1  0.4324320000000  0.5053610000000  0.5491510000000 1.0
C      1  0.5191280000000  0.4937680000000  0.5148300000000 1.0
C      1  0.4581250000000  0.4191880000000  0.5659170000000 1.0
C      1  0.5520350000000  0.5228450000000  0.6037560000000 1.0
C      1  0.5821660000000  0.5378800000000  0.5667620000000 1.0
C      1  0.4169770000000  0.5320530000000  0.4492240000000 1.0
C      1  0.5129380000000  0.5477180000000  0.3846940000000 1.0
C      1  0.5470200000000  0.5730470000000  0.4299160000000 1.0
C      1  0.5615110000000  0.5574020000000  0.5477630000000 1.0
C      1  0.4083370000000  0.4602360000000  0.4888690000000 1.0
C      1  0.6084050000000  0.5168730000000  0.4757600000000 1.0
C      1  0.5567520000000  0.5436670000000  0.5847650000000 1.0
C      1  0.5066320000000  0.5664930000000  0.4604830000000 1.0
C      1  0.5141930000000  0.5787430000000  0.5664540000000 1.0
C      1  0.4163790000000  0.4876090000000  0.4917790000000 1.0
C      1  0.4452900000000  0.4376610000000  0.4761720000000 1.0
C      1  0.4355690000000  0.5799470000000  0.4940070000000 1.0
C      1  0.4658930000000  0.4953970000000  0.5138680000000 1.0
C      1  0.4527450000000  0.5737940000000  0.4455830000000 1.0
C      1  0.5466530000000  0.4221810000000  0.5013250000000 1.0
C      1  0.5652730000000  0.4277840000000  0.5258620000000 1.0
C      1  0.5376350000000  0.5653360000000  0.5696310000000 1.0
C      1  0.5031950000000  0.5884630000000  0.4165530000000 1.0
C      1  0.4064370000000  0.5336770000000  0.4798440000000 1.0
C      1  0.5058840000000  0.5308550000000  0.4978070000000 1.0
C      1  0.4423600000000  0.4739550000000  0.5525960000000 1.0
C      1  0.4631770000000  0.4271910000000  0.5236770000000 1.0
C      1  0.5682660000000  0.4921580000000  0.5256820000000 1.0
C      1  0.5773210000000  0.5610670000000  0.4795180000000 1.0
C      1  0.5138260000000  0.5496310000000  0.4345940000000 1.0
C      1  0.4547270000000  0.5881620000000  0.5197860000000 1.0
C      1  0.5601650000000  0.5180330000000  0.4897780000000 1.0
C      1  0.4636270000000  0.4569030000000  0.4097410000000 1.0
C      1  0.5772880000000  0.4488730000000  0.4497320000000 1.0
C      1  0.5156620000000  0.6117390000000  0.4616410000000 1.0
C      1  0.5409930000000  0.4223760000000  0.5408830000000 1.0
C      1  0.4858200000000  0.4727830000000  0.4394470000000 1.0
C      1  0.5397040000000  0.6025380000000  0.4397460000000 1.0
C      1  0.5062400000000  0.4027950000000  0.5437590000000 1.0
C      1  0.5137550000000  0.4616420000000  0.5863810000000 1.0
C      1  0.5405700000000  0.5170220000000  0.5117540000000 1.0
C      1  0.4533790000000  0.4111540000000  0.4885990000000 1.0
C      1  0.6089900000000  0.5023550000000  0.5065600000000 1.0
C      1  0.5219600000000  0.5400490000000  0.5260140000000 1.0
C      1  0.4619960000000  0.5388260000000  0.5196000000000 1.0
C      1  0.5322250000000  0.5834960000000  0.4655340000000 1.0
C      1  0.5554550000000  0.5788590000000  0.4826100000000 1.0
C      1  0.5891580000000  0.5036610000000  0.4521360000000 1.0
C      1  0.3990650000000  0.5127460000000  0.5280880000000 1.0
C      1  0.4703300000000  0.4725580000000  0.5683220000000 1.0
C      1  0.4862850000000  0.5228270000000  0.4450320000000 1.0
C      1  0.5730420000000  0.5734220000000  0.5254460000000 1.0
C      1  0.4089050000000  0.4572280000000  0.5386170000000 1.0
C      1  0.4785480000000  0.5359000000000  0.5952230000000 1.0
C      1  0.4704940000000  0.5639290000000  0.5049890000000 1.0
C      1  0.4404760000000  0.4995000000000  0.5983680000000 1.0
C      1  0.4456600000000  0.5188350000000  0.4118280000000 1.0
C      1  0.4904380000000  0.4755450000000  0.5173230000000 1.0
C      1  0.5457390000000  0.4751590000000  0.5379790000000 1.0
C      1  0.4856150000000  0.5778050000000  0.4376410000000 1.0
C      1  0.5794970000000  0.4635560000000  0.5029690000000 1.0
C      1  0.4296200000000  0.5285950000000  0.5836030000000 1.0
C      1  0.5176660000000  0.4963530000000  0.3857910000000 1.0
C      1  0.3992790000000  0.5273910000000  0.5751140000000 1.0
C      1  0.5293240000000  0.4076850000000  0.4502730000000 1.0
C      1  0.4837270000000  0.5098830000000  0.4916730000000 1.0
C      1  0.4468900000000  0.5898930000000  0.4701480000000 1.0
C      1  0.5331460000000  0.4699480000000  0.4436300000000 1.0
C      1  0.5538220000000  0.5884820000000  0.5099690000000 1.0
C      1  0.4850480000000  0.4272070000000  0.5833400000000 1.0
C      1  0.4966630000000  0.4238510000000  0.4170000000000 1.0
C      1  0.4446820000000  0.5371340000000  0.5477130000000 1.0
C      1  0.5099020000000  0.5393840000000  0.5821550000000 1.0
C      1  0.4099590000000  0.4854300000000  0.4299200000000 1.0
C      1  0.5888450000000  0.5580290000000  0.5071830000000 1.0
C      1  0.5982320000000  0.4433420000000  0.4829100000000 1.0
C      1  0.5464880000000  0.5319520000000  0.4640350000000 1.0
C      1  0.4474410000000  0.4495050000000  0.5760870000000 1.0
C      1  0.4901130000000  0.4514980000000  0.4966490000000 1.0
C      1  0.4014780000000  0.5105460000000  0.4997320000000 1.0
C      1  0.4894310000000  0.4324260000000  0.5396130000000 1.0
C      1  0.4601030000000  0.5143700000000  0.5764100000000 1.0
C      1  0.4660220000000  0.4807380000000  0.4661110000000 1.0
C      1  0.5283680000000  0.5918660000000  0.5206300000000 1.0
C      1  0.4958700000000  0.4933700000000  0.4191270000000 1.0
C      1  0.4200690000000  0.5115570000000  0.4258860000000 1.0
C      1  0.5449960000000  0.5114170000000  0.4192770000000 1.0
C      1  0.5107870000000  0.4197460000000  0.5708480000000 1.0
C      1  0.4203930000000  0.4484170000000  0.4653110000000 1.0
C      1  0.5881340000000  0.5281270000000  0.4994290000000 1.0
C      1  0.5245360000000  0.5657790000000  0.4074370000000 1.0
C      1  0.5104660000000  0.4687160000000  0.4006520000000 1.0
C      1  0.4885860000000  0.4340640000000  0.4679540000000 1.0
C      1  0.4821520000000  0.5045990000000  0.6081940000000 1.0
C      1  0.4783590000000  0.6093280000000  0.5072300000000 1.0
C      1  0.4698100000000  0.5204400000000  0.4656810000000 1.0
C      1  0.4856530000000  0.5289160000000  0.5381790000000 1.0
C      1  0.4957070000000  0.6182460000000  0.4789680000000 1.0
C      1  0.4472080000000  0.4945860000000  0.4861390000000 1.0
C      1  0.4202190000000  0.5574050000000  0.4960190000000 1.0
END
