TITL C-2778431-5191-1303 -0.00445744584759984 125000 -1059.47515375548 0 0 183 (C1) n - 1
REM
REM in /home/nfs/bkarasulu/CARBON/AIRSS/Generating-Clusters/REBO/Only-C1/SD-CG/HFTN-CG
REM
REM
REM
REM
REM
REM ./C.cell (11c1c37f851c82e70ff6c80c92926a4b)
REM
REM compiler GCC version 9.2.1 20190827 (Red Hat 9.2.1-1)
REM options -cpp -mtune=generic -march=x86-64 -g -O0 -fpre-include=/usr/include/finclude/math-vector-fortran.h
REM seed 1954018939 -344468242 277988747 -1191065853 924613099 -317336297 -1048036180 -2074375669 1532220222 157219520 -27011956 460322070 803495014 2041854244 -328064026 -1954455209 1804450166 1124151626 1635157295 271568951 675014215 396151827 504880552 -1668498698 -1494999234 -1478657998 -1119026759 -1585781561 -191245282 -1315804667 -1162182146 251280106 -1837802843
REM
CELL 1.54180   50.00000   50.00000   50.00000   90.00000   90.00000   90.00000
LATT -1
SFAC C  
C      1  0.4971360000000  0.4113710000000  0.5426080000000 1.0
C      1  0.5123480000000  0.4562530000000  0.5919530000000 1.0
C      1  0.4670330000000  0.5887750000000  0.5491720000000 1.0
C      1  0.4589410000000  0.4418190000000  0.5210160000000 1.0
C      1  0.5914520000000  0.4992370000000  0.5558850000000 1.0
C      1  0.4551550000000  0.5660750000000  0.4836040000000 1.0
C      1  0.4950590000000  0.4648400000000  0.4969470000000 1.0
C      1  0.4511550000000  0.5557030000000  0.4173240000000 1.0
C      1  0.5011880000000  0.4900410000000  0.3827030000000 1.0
C      1  0.5599620000000  0.5015170000000  0.4906720000000 1.0
C      1  0.4737690000000  0.5105610000000  0.4819820000000 1.0
C      1  0.4163380000000  0.4902160000000  0.5741180000000 1.0
C      1  0.5580940000000  0.5317090000000  0.4241500000000 1.0
C      1  0.5015660000000  0.5222660000000  0.4729790000000 1.0
C      1  0.4355180000000  0.4473770000000  0.5684940000000 1.0
C      1  0.5982890000000  0.5390620000000  0.4971990000000 1.0
C      1  0.5258870000000  0.5319420000000  0.6030800000000 1.0
C      1  0.5069520000000  0.4186120000000  0.4917590000000 1.0
C      1  0.4654810000000  0.5112400000000  0.6137140000000 1.0
C      1  0.5293670000000  0.4209930000000  0.5164430000000 1.0
C      1  0.4837450000000  0.5729690000000  0.4912450000000 1.0
C      1  0.5953670000000  0.5418760000000  0.5294270000000 1.0
C      1  0.3886110000000  0.4858090000000  0.4882460000000 1.0
C      1  0.5852640000000  0.5517820000000  0.4688550000000 1.0
C      1  0.4668590000000  0.4601320000000  0.4036780000000 1.0
C      1  0.4655670000000  0.5120920000000  0.4007460000000 1.0
C      1  0.5104780000000  0.4904930000000  0.5041000000000 1.0
C      1  0.4384920000000  0.5490400000000  0.5060340000000 1.0
C      1  0.4893700000000  0.6049130000000  0.4893890000000 1.0
C      1  0.4858620000000  0.5296930000000  0.5745800000000 1.0
C      1  0.5807180000000  0.4934430000000  0.5824020000000 1.0
C      1  0.4340620000000  0.4507520000000  0.4980370000000 1.0
C      1  0.5845330000000  0.4832570000000  0.5004830000000 1.0
C      1  0.4753280000000  0.5302080000000  0.5323730000000 1.0
C      1  0.4989130000000  0.5764820000000  0.5472210000000 1.0
C      1  0.4878340000000  0.3958160000000  0.4751640000000 1.0
C      1  0.5012930000000  0.4780360000000  0.4364210000000 1.0
C      1  0.4411520000000  0.5389690000000  0.5770550000000 1.0
C      1  0.5035180000000  0.4858310000000  0.5930680000000 1.0
C      1  0.5554410000000  0.5877560000000  0.4488230000000 1.0
C      1  0.4182010000000  0.4825830000000  0.4411480000000 1.0
C      1  0.5180440000000  0.5072470000000  0.6126250000000 1.0
C      1  0.5060540000000  0.5452520000000  0.4304390000000 1.0
C      1  0.5422940000000  0.4935270000000  0.4359990000000 1.0
C      1  0.5653570000000  0.5320210000000  0.4973020000000 1.0
C      1  0.4563590000000  0.4660710000000  0.4766990000000 1.0
C      1  0.6189820000000  0.5159530000000  0.4907280000000 1.0
C      1  0.5296570000000  0.4983260000000  0.5739270000000 1.0
C      1  0.5335380000000  0.5434080000000  0.4447940000000 1.0
C      1  0.4278700000000  0.5933870000000  0.5219810000000 1.0
C      1  0.4554240000000  0.5529500000000  0.4568710000000 1.0
C      1  0.5194770000000  0.5200320000000  0.5295080000000 1.0
C      1  0.4568540000000  0.5862070000000  0.4315430000000 1.0
C      1  0.5149710000000  0.5113630000000  0.3966080000000 1.0
C      1  0.5448510000000  0.4564040000000  0.5896960000000 1.0
C      1  0.4644980000000  0.5637040000000  0.5800960000000 1.0
C      1  0.5843150000000  0.4780640000000  0.5316110000000 1.0
C      1  0.5673520000000  0.5886280000000  0.4982640000000 1.0
C      1  0.5453780000000  0.4767020000000  0.4630500000000 1.0
C      1  0.5413210000000  0.5291350000000  0.5767120000000 1.0
C      1  0.4491690000000  0.5257630000000  0.4241320000000 1.0
C      1  0.5968270000000  0.4402970000000  0.5042020000000 1.0
C      1  0.4071900000000  0.5077720000000  0.4961910000000 1.0
C      1  0.4152150000000  0.5224170000000  0.4709370000000 1.0
C      1  0.4813550000000  0.4682940000000  0.5583160000000 1.0
C      1  0.4297230000000  0.4516360000000  0.4325220000000 1.0
C      1  0.4392170000000  0.5093740000000  0.5478910000000 1.0
C      1  0.4960440000000  0.4690230000000  0.4047700000000 1.0
C      1  0.5215870000000  0.4541070000000  0.4117120000000 1.0
C      1  0.4745380000000  0.4980020000000  0.3716630000000 1.0
C      1  0.4574270000000  0.6108120000000  0.4488620000000 1.0
C      1  0.4830850000000  0.4449960000000  0.4736600000000 1.0
C      1  0.4765010000000  0.5909940000000  0.5178150000000 1.0
C      1  0.4757720000000  0.4243500000000  0.5001050000000 1.0
C      1  0.5431560000000  0.5066760000000  0.4064600000000 1.0
C      1  0.5069560000000  0.4882030000000  0.5534550000000 1.0
C      1  0.4714080000000  0.4133330000000  0.5622640000000 1.0
C      1  0.4938340000000  0.5201970000000  0.4182400000000 1.0
C      1  0.5281450000000  0.5972780000000  0.4529360000000 1.0
C      1  0.3986010000000  0.4724550000000  0.4658030000000 1.0
C      1  0.5234350000000  0.5992810000000  0.5496080000000 1.0
C      1  0.4695630000000  0.4726480000000  0.5137630000000 1.0
C      1  0.5575680000000  0.4328030000000  0.4425340000000 1.0
C      1  0.4676840000000  0.4203990000000  0.4360590000000 1.0
C      1  0.4013730000000  0.5643910000000  0.4955200000000 1.0
C      1  0.4094930000000  0.4472100000000  0.4743170000000 1.0
C      1  0.5220940000000  0.4465130000000  0.4866700000000 1.0
C      1  0.4550620000000  0.4428030000000  0.4223600000000 1.0
C      1  0.4629190000000  0.5598340000000  0.5223110000000 1.0
C      1  0.4808300000000  0.5645750000000  0.4426250000000 1.0
C      1  0.4452550000000  0.4904990000000  0.4557830000000 1.0
C      1  0.5133470000000  0.4263380000000  0.4258150000000 1.0
C      1  0.4251190000000  0.5500190000000  0.4447120000000 1.0
C      1  0.5626560000000  0.4772160000000  0.5965690000000 1.0
C      1  0.4540950000000  0.4987100000000  0.5204780000000 1.0
C      1  0.5248940000000  0.4770540000000  0.5293650000000 1.0
C      1  0.5171620000000  0.4340000000000  0.5683770000000 1.0
C      1  0.5286680000000  0.5505240000000  0.5535940000000 1.0
C      1  0.4144070000000  0.4987320000000  0.5271260000000 1.0
C      1  0.5201430000000  0.6053340000000  0.4852540000000 1.0
C      1  0.4539190000000  0.4818900000000  0.3903450000000 1.0
C      1  0.5692880000000  0.4574580000000  0.4264640000000 1.0
C      1  0.5820920000000  0.4611040000000  0.5591600000000 1.0
C      1  0.5628950000000  0.5814110000000  0.5252440000000 1.0
C      1  0.4196920000000  0.4174700000000  0.5641610000000 1.0
C      1  0.4378650000000  0.5841740000000  0.5472680000000 1.0
C      1  0.4158050000000  0.4650520000000  0.5232670000000 1.0
C      1  0.4695710000000  0.4873320000000  0.5917680000000 1.0
C      1  0.5288680000000  0.6008240000000  0.5178800000000 1.0
C      1  0.5508840000000  0.5324820000000  0.5244270000000 1.0
C      1  0.5587060000000  0.5310760000000  0.4639960000000 1.0
C      1  0.5009060000000  0.3788200000000  0.4995940000000 1.0
C      1  0.4602620000000  0.4113000000000  0.4655070000000 1.0
C      1  0.5685670000000  0.4515600000000  0.5183660000000 1.0
C      1  0.5463310000000  0.4057050000000  0.4547120000000 1.0
C      1  0.4456740000000  0.4255370000000  0.5465200000000 1.0
C      1  0.5333810000000  0.4553610000000  0.4438970000000 1.0
C      1  0.5526090000000  0.4228420000000  0.5411090000000 1.0
C      1  0.5218520000000  0.4012200000000  0.4392820000000 1.0
C      1  0.4775790000000  0.4990060000000  0.5445630000000 1.0
C      1  0.6153790000000  0.4583720000000  0.4958450000000 1.0
C      1  0.5060280000000  0.5288610000000  0.5576810000000 1.0
C      1  0.5692800000000  0.5599500000000  0.4394920000000 1.0
C      1  0.5166600000000  0.5026670000000  0.4534670000000 1.0
C      1  0.5472650000000  0.4729370000000  0.4106820000000 1.0
C      1  0.3862040000000  0.4693220000000  0.5106960000000 1.0
C      1  0.5024330000000  0.5606140000000  0.5169010000000 1.0
C      1  0.4133200000000  0.5288370000000  0.5429110000000 1.0
C      1  0.5772680000000  0.5825320000000  0.4707890000000 1.0
C      1  0.5548350000000  0.4446960000000  0.5608760000000 1.0
C      1  0.5406930000000  0.5801960000000  0.4864230000000 1.0
C      1  0.5190620000000  0.4441570000000  0.5367220000000 1.0
C      1  0.4177640000000  0.4331570000000  0.4510910000000 1.0
C      1  0.6143590000000  0.4893280000000  0.4927980000000 1.0
C      1  0.5474980000000  0.5015340000000  0.5355820000000 1.0
C      1  0.5323200000000  0.3898450000000  0.5023970000000 1.0
C      1  0.5005530000000  0.4473780000000  0.4492730000000 1.0
C      1  0.5108490000000  0.5440650000000  0.4883220000000 1.0
C      1  0.5299650000000  0.4961440000000  0.4834660000000 1.0
C      1  0.4406810000000  0.4211720000000  0.4815700000000 1.0
C      1  0.4340270000000  0.5874770000000  0.4961360000000 1.0
C      1  0.5713080000000  0.4192330000000  0.5126900000000 1.0
C      1  0.5815430000000  0.4770770000000  0.4455600000000 1.0
C      1  0.4385260000000  0.5184100000000  0.5027860000000 1.0
C      1  0.4187110000000  0.4688550000000  0.5562240000000 1.0
C      1  0.5527420000000  0.4789440000000  0.5579180000000 1.0
C      1  0.4718290000000  0.5048780000000  0.4393330000000 1.0
C      1  0.4830410000000  0.4838110000000  0.4640910000000 1.0
C      1  0.4611000000000  0.4581300000000  0.5813740000000 1.0
C      1  0.5138230000000  0.3867310000000  0.5299140000000 1.0
C      1  0.5538800000000  0.4076250000000  0.4878290000000 1.0
C      1  0.5633320000000  0.5544240000000  0.5706250000000 1.0
C      1  0.4445790000000  0.5072120000000  0.5799660000000 1.0
C      1  0.4212200000000  0.5584650000000  0.5573610000000 1.0
C      1  0.4933920000000  0.5686040000000  0.5798850000000 1.0
C      1  0.5686100000000  0.5539040000000  0.5389750000000 1.0
C      1  0.5050370000000  0.5516530000000  0.6018280000000 1.0
C      1  0.4917180000000  0.5145330000000  0.5106350000000 1.0
C      1  0.4131370000000  0.5562650000000  0.5241500000000 1.0
C      1  0.4706410000000  0.6177450000000  0.4687070000000 1.0
C      1  0.5526010000000  0.4393000000000  0.4751940000000 1.0
C      1  0.5425280000000  0.4599690000000  0.5077760000000 1.0
C      1  0.5418990000000  0.5800500000000  0.5641080000000 1.0
C      1  0.5017130000000  0.5718420000000  0.4096800000000 1.0
C      1  0.5788670000000  0.5084080000000  0.4320670000000 1.0
C      1  0.4865550000000  0.4434860000000  0.5408540000000 1.0
C      1  0.5086780000000  0.5841800000000  0.4385150000000 1.0
C      1  0.4780570000000  0.5345610000000  0.6037540000000 1.0
C      1  0.4209880000000  0.5164170000000  0.4378100000000 1.0
C      1  0.4752030000000  0.3947720000000  0.5128340000000 1.0
C      1  0.5324820000000  0.5678840000000  0.5272600000000 1.0
C      1  0.4739530000000  0.5751340000000  0.4041740000000 1.0
C      1  0.6043980000000  0.5223840000000  0.5462480000000 1.0
C      1  0.4915240000000  0.3991900000000  0.4444460000000 1.0
C      1  0.4596160000000  0.5496170000000  0.5519520000000 1.0
C      1  0.4484410000000  0.5227630000000  0.4661740000000 1.0
C      1  0.5308150000000  0.5573680000000  0.4741150000000 1.0
C      1  0.5784480000000  0.5037590000000  0.4645160000000 1.0
C      1  0.4863400000000  0.4362870000000  0.5816500000000 1.0
C      1  0.5724650000000  0.4662060000000  0.4766540000000 1.0
C      1  0.4633480000000  0.3909480000000  0.5378320000000 1.0
C      1  0.5281190000000  0.4055770000000  0.5532340000000 1.0
C      1  0.4061930000000  0.5537480000000  0.4711280000000 1.0
END
