TITL C-2778434-4341-1442 0.298084959226098 125000 -780.554684795164 0 0 137 (C1) n - 1
REM
REM in /home/nfs/bkarasulu/CARBON/AIRSS/Generating-Clusters/REBO/Only-C1/SD-CG/HFTN-CG
REM
REM
REM
REM
REM
REM ./C.cell (11c1c37f851c82e70ff6c80c92926a4b)
REM
REM compiler GCC version 9.2.1 20190827 (Red Hat 9.2.1-1)
REM options -cpp -mtune=generic -march=x86-64 -g -O0 -fpre-include=/usr/include/finclude/math-vector-fortran.h
REM seed -912850111 156693910 583751750 1644399240 -540254673 -1498349503 -1829689147 -2093001358 -83554243 181688520 1928344337 1054896631 -1148034995 -1616777813 2077678124 14844118 -1153516420 -518341543 62317948 -2093112694 -1645786930 -805875567 1766336869 -1509542432 1616116210 837190199 1981979487 -1513386631 1748406033 -617779410 251699483 583259879 -1576315025
REM
CELL 1.54180   50.00000   50.00000   50.00000   90.00000   90.00000   90.00000
LATT -1
SFAC C  
C      1  0.4640350000000  0.5810910000000  0.4421370000000 1.0
C      1  0.4052460000000  0.4992830000000  0.5079440000000 1.0
C      1  0.4952860000000  0.5034180000000  0.4289920000000 1.0
C      1  0.5161130000000  0.4856810000000  0.4918440000000 1.0
C      1  0.5524660000000  0.4755560000000  0.5358160000000 1.0
C      1  0.5872840000000  0.4976660000000  0.5072450000000 1.0
C      1  0.4793770000000  0.4482310000000  0.4667310000000 1.0
C      1  0.4994620000000  0.5929860000000  0.4542370000000 1.0
C      1  0.4928360000000  0.4886110000000  0.4043980000000 1.0
C      1  0.5314160000000  0.4853720000000  0.5850890000000 1.0
C      1  0.5494360000000  0.4767310000000  0.4453060000000 1.0
C      1  0.4737090000000  0.5700140000000  0.4955700000000 1.0
C      1  0.4582790000000  0.4195920000000  0.4651920000000 1.0
C      1  0.4979510000000  0.4231540000000  0.4664450000000 1.0
C      1  0.5494090000000  0.5112100000000  0.4251010000000 1.0
C      1  0.5555320000000  0.4445340000000  0.4535390000000 1.0
C      1  0.5484140000000  0.4942770000000  0.4883240000000 1.0
C      1  0.5181520000000  0.5155750000000  0.5842330000000 1.0
C      1  0.4739590000000  0.5605020000000  0.4198230000000 1.0
C      1  0.5360700000000  0.5731630000000  0.4222900000000 1.0
C      1  0.4474530000000  0.5861080000000  0.5207440000000 1.0
C      1  0.4767050000000  0.5121230000000  0.6103130000000 1.0
C      1  0.4823780000000  0.4052850000000  0.5181130000000 1.0
C      1  0.5851810000000  0.4848600000000  0.5351180000000 1.0
C      1  0.4592590000000  0.4975860000000  0.5912840000000 1.0
C      1  0.5477890000000  0.4625920000000  0.4899430000000 1.0
C      1  0.5184240000000  0.5244470000000  0.4642040000000 1.0
C      1  0.5533460000000  0.5413260000000  0.4989830000000 1.0
C      1  0.4839640000000  0.4781760000000  0.4690540000000 1.0
C      1  0.5372570000000  0.4137710000000  0.4929050000000 1.0
C      1  0.4448900000000  0.5839730000000  0.4865540000000 1.0
C      1  0.4664420000000  0.4243240000000  0.4960660000000 1.0
C      1  0.5826760000000  0.4738010000000  0.4891470000000 1.0
C      1  0.5746010000000  0.5181480000000  0.4481660000000 1.0
C      1  0.5301890000000  0.4250920000000  0.4611310000000 1.0
C      1  0.5131910000000  0.5489640000000  0.4442700000000 1.0
C      1  0.5052910000000  0.4227220000000  0.5319290000000 1.0
C      1  0.4127870000000  0.5452580000000  0.4535250000000 1.0
C      1  0.5434520000000  0.5764900000000  0.5137150000000 1.0
C      1  0.5222190000000  0.5324270000000  0.4960030000000 1.0
C      1  0.4659710000000  0.4463940000000  0.5628970000000 1.0
C      1  0.5525030000000  0.5446820000000  0.4305220000000 1.0
C      1  0.4455210000000  0.4618220000000  0.4923280000000 1.0
C      1  0.4688950000000  0.5032940000000  0.4505590000000 1.0
C      1  0.5303670000000  0.4535380000000  0.5358530000000 1.0
C      1  0.4722220000000  0.4235770000000  0.4361500000000 1.0
C      1  0.4941270000000  0.4743960000000  0.5571300000000 1.0
C      1  0.5045820000000  0.4715620000000  0.5956320000000 1.0
C      1  0.4641400000000  0.5556150000000  0.5246370000000 1.0
C      1  0.5152290000000  0.4550790000000  0.4829680000000 1.0
C      1  0.4482740000000  0.5213040000000  0.5712650000000 1.0
C      1  0.4991940000000  0.5810480000000  0.5509910000000 1.0
C      1  0.4142030000000  0.4518250000000  0.5143680000000 1.0
C      1  0.5007780000000  0.5571260000000  0.6075520000000 1.0
C      1  0.5719610000000  0.4481590000000  0.5293130000000 1.0
C      1  0.4666220000000  0.4595360000000  0.5324350000000 1.0
C      1  0.4923430000000  0.3969400000000  0.4806120000000 1.0
C      1  0.4290300000000  0.5612540000000  0.5065060000000 1.0
C      1  0.4623600000000  0.4259660000000  0.5357670000000 1.0
C      1  0.5806570000000  0.4455010000000  0.5026810000000 1.0
C      1  0.5266120000000  0.5425290000000  0.5954500000000 1.0
C      1  0.4137980000000  0.4729970000000  0.4873100000000 1.0
C      1  0.5162170000000  0.5073560000000  0.5153020000000 1.0
C      1  0.4410160000000  0.4357950000000  0.5129950000000 1.0
C      1  0.5552560000000  0.4204840000000  0.5527610000000 1.0
C      1  0.5635480000000  0.5078140000000  0.5567080000000 1.0
C      1  0.4268470000000  0.5304610000000  0.5510770000000 1.0
C      1  0.4671150000000  0.5901670000000  0.5443350000000 1.0
C      1  0.4205030000000  0.5118110000000  0.4832480000000 1.0
C      1  0.4143880000000  0.5190060000000  0.4415520000000 1.0
C      1  0.4960850000000  0.5071450000000  0.4795030000000 1.0
C      1  0.4466510000000  0.4511610000000  0.4620360000000 1.0
C      1  0.4505180000000  0.4993090000000  0.4794730000000 1.0
C      1  0.4711110000000  0.5678970000000  0.5664640000000 1.0
C      1  0.4185680000000  0.4892190000000  0.4576770000000 1.0
C      1  0.4481520000000  0.5108800000000  0.5119840000000 1.0
C      1  0.5168190000000  0.5451830000000  0.5569740000000 1.0
C      1  0.5573880000000  0.4998880000000  0.4625450000000 1.0
C      1  0.5198500000000  0.4934180000000  0.4502060000000 1.0
C      1  0.5474150000000  0.5672030000000  0.4539900000000 1.0
C      1  0.4775660000000  0.5211670000000  0.4987810000000 1.0
C      1  0.5376390000000  0.5044590000000  0.5348420000000 1.0
C      1  0.4866660000000  0.5615300000000  0.4576470000000 1.0
C      1  0.5587680000000  0.5526400000000  0.5295860000000 1.0
C      1  0.5035700000000  0.5765310000000  0.4252710000000 1.0
C      1  0.5032560000000  0.6056280000000  0.4776160000000 1.0
C      1  0.4189600000000  0.4794640000000  0.5263510000000 1.0
C      1  0.4833220000000  0.4141770000000  0.5818800000000 1.0
C      1  0.5069680000000  0.4236760000000  0.4352090000000 1.0
C      1  0.5012070000000  0.5530430000000  0.5068300000000 1.0
C      1  0.4218310000000  0.5417930000000  0.4820890000000 1.0
C      1  0.5744360000000  0.5223890000000  0.5276880000000 1.0
C      1  0.5432280000000  0.5341950000000  0.5494840000000 1.0
C      1  0.5115530000000  0.3952960000000  0.5035650000000 1.0
C      1  0.5149230000000  0.4682260000000  0.4008330000000 1.0
C      1  0.5140560000000  0.5798200000000  0.5237690000000 1.0
C      1  0.4690120000000  0.5366100000000  0.4579010000000 1.0
C      1  0.5820260000000  0.5275040000000  0.4945330000000 1.0
C      1  0.5841610000000  0.4570840000000  0.4448560000000 1.0
C      1  0.4940210000000  0.4534980000000  0.4231770000000 1.0
C      1  0.5742300000000  0.4612030000000  0.5760770000000 1.0
C      1  0.4682700000000  0.5044350000000  0.5523750000000 1.0
C      1  0.4539060000000  0.5392530000000  0.4846810000000 1.0
C      1  0.5444660000000  0.4797420000000  0.4131570000000 1.0
C      1  0.4624110000000  0.4525880000000  0.4254730000000 1.0
C      1  0.4956950000000  0.5194310000000  0.5592020000000 1.0
C      1  0.5910340000000  0.5309620000000  0.4655860000000 1.0
C      1  0.5191000000000  0.5238360000000  0.4243110000000 1.0
C      1  0.4953000000000  0.4403970000000  0.5041820000000 1.0
C      1  0.4377220000000  0.5359480000000  0.5252620000000 1.0
C      1  0.4173420000000  0.5722410000000  0.4460080000000 1.0
C      1  0.5138790000000  0.4598950000000  0.4502640000000 1.0
C      1  0.4851630000000  0.5003150000000  0.5235600000000 1.0
C      1  0.4767220000000  0.5412850000000  0.6057990000000 1.0
C      1  0.4965390000000  0.5919800000000  0.5001170000000 1.0
C      1  0.4716070000000  0.4814800000000  0.4995620000000 1.0
C      1  0.5137810000000  0.5691680000000  0.5784630000000 1.0
C      1  0.5027700000000  0.5001680000000  0.6082090000000 1.0
C      1  0.5218380000000  0.5475040000000  0.4052920000000 1.0
C      1  0.5946330000000  0.4728440000000  0.4617890000000 1.0
C      1  0.4404410000000  0.4724180000000  0.4387620000000 1.0
C      1  0.5290450000000  0.4335520000000  0.5619630000000 1.0
C      1  0.5779900000000  0.4394030000000  0.5576330000000 1.0
C      1  0.4736780000000  0.4707990000000  0.5828910000000 1.0
C      1  0.5578200000000  0.4844370000000  0.5762290000000 1.0
C      1  0.4405430000000  0.5852140000000  0.4567630000000 1.0
C      1  0.5362900000000  0.4217220000000  0.5244750000000 1.0
C      1  0.4420310000000  0.5052210000000  0.4296780000000 1.0
C      1  0.4612940000000  0.5329220000000  0.4249460000000 1.0
C      1  0.4621240000000  0.5470930000000  0.5820150000000 1.0
C      1  0.5478100000000  0.5690540000000  0.4811080000000 1.0
C      1  0.5325140000000  0.4489650000000  0.4233940000000 1.0
C      1  0.5004860000000  0.4622640000000  0.5298470000000 1.0
C      1  0.5018230000000  0.4221230000000  0.5638010000000 1.0
C      1  0.4910960000000  0.5443390000000  0.5367750000000 1.0
C      1  0.5632780000000  0.4294850000000  0.4827910000000 1.0
C      1  0.4493950000000  0.4851230000000  0.5324740000000 1.0
END
