TITL C-2778423-5760-637 0.00248284881127388 125000 -990.049005195957 0 0 170 (C1) n - 1
REM
REM in /home/nfs/bkarasulu/CARBON/AIRSS/Generating-Clusters/REBO/Only-C1/SD-CG/HFTN-CG
REM
REM
REM
REM
REM
REM ./C.cell (11c1c37f851c82e70ff6c80c92926a4b)
REM
REM compiler GCC version 9.2.1 20190827 (Red Hat 9.2.1-1)
REM options -cpp -mtune=generic -march=x86-64 -g -O0 -fpre-include=/usr/include/finclude/math-vector-fortran.h
REM seed -31879740 816328176 1996207963 1049908962 1888538346 551075600 -1002461044 -1366350911 1013953826 1343819273 -633699035 -1172796405 -2141153345 1882698116 200487663 -1585444890 -760110716 265136023 -471347548 216147383 -1838883511 -791335574 -1502450810 318673628 1204747066 892613310 908842387 -881154653 1889483874 -1593955359 -1931077094 1972410743 1679928916
REM
CELL 1.54180   50.00000   50.00000   50.00000   90.00000   90.00000   90.00000
LATT -1
SFAC C  
C      1  0.5359660000000  0.5610700000000  0.4278030000000 1.0
C      1  0.4680000000000  0.4950660000000  0.4895380000000 1.0
C      1  0.4831540000000  0.4599290000000  0.5580660000000 1.0
C      1  0.5065120000000  0.4635070000000  0.4164760000000 1.0
C      1  0.4401760000000  0.4270170000000  0.4868200000000 1.0
C      1  0.6075520000000  0.4988850000000  0.4700640000000 1.0
C      1  0.4570500000000  0.4670930000000  0.5062790000000 1.0
C      1  0.5762640000000  0.5378710000000  0.4723700000000 1.0
C      1  0.4593230000000  0.4916120000000  0.5865510000000 1.0
C      1  0.4250930000000  0.5046350000000  0.4856630000000 1.0
C      1  0.5524070000000  0.5190970000000  0.4775350000000 1.0
C      1  0.4012650000000  0.5480010000000  0.5177610000000 1.0
C      1  0.5257700000000  0.5136850000000  0.4078920000000 1.0
C      1  0.4965990000000  0.6096140000000  0.4588570000000 1.0
C      1  0.4938930000000  0.3941120000000  0.5289680000000 1.0
C      1  0.5527140000000  0.4042270000000  0.4853120000000 1.0
C      1  0.5640070000000  0.4687720000000  0.5751050000000 1.0
C      1  0.5198710000000  0.5657540000000  0.5989000000000 1.0
C      1  0.5108750000000  0.4821980000000  0.5955750000000 1.0
C      1  0.5888750000000  0.4394860000000  0.4945990000000 1.0
C      1  0.5632260000000  0.5619410000000  0.4861580000000 1.0
C      1  0.4511330000000  0.5379160000000  0.4052290000000 1.0
C      1  0.5387340000000  0.4757590000000  0.5352120000000 1.0
C      1  0.4935560000000  0.5962180000000  0.4897520000000 1.0
C      1  0.4990810000000  0.4955130000000  0.5662250000000 1.0
C      1  0.5977780000000  0.4903910000000  0.5019580000000 1.0
C      1  0.5778230000000  0.5544040000000  0.5560390000000 1.0
C      1  0.5143580000000  0.5210080000000  0.5395730000000 1.0
C      1  0.5321370000000  0.5828270000000  0.5560330000000 1.0
C      1  0.4949850000000  0.5184300000000  0.4149620000000 1.0
C      1  0.5051300000000  0.4619050000000  0.5188700000000 1.0
C      1  0.5911520000000  0.5254840000000  0.4145810000000 1.0
C      1  0.4328230000000  0.5568370000000  0.5186820000000 1.0
C      1  0.5599840000000  0.4918940000000  0.5912020000000 1.0
C      1  0.5512770000000  0.4311120000000  0.4338260000000 1.0
C      1  0.5275700000000  0.5632680000000  0.4668150000000 1.0
C      1  0.5780990000000  0.4762770000000  0.5214820000000 1.0
C      1  0.5942090000000  0.4505170000000  0.4499000000000 1.0
C      1  0.4794230000000  0.4448670000000  0.5145220000000 1.0
C      1  0.4156790000000  0.5301790000000  0.4450800000000 1.0
C      1  0.4663880000000  0.4512200000000  0.4412360000000 1.0
C      1  0.4670800000000  0.5820130000000  0.5468970000000 1.0
C      1  0.4158630000000  0.4841810000000  0.5104620000000 1.0
C      1  0.5032450000000  0.4967370000000  0.5182260000000 1.0
C      1  0.5379390000000  0.4953910000000  0.4332330000000 1.0
C      1  0.4421530000000  0.5804430000000  0.4709800000000 1.0
C      1  0.4742860000000  0.4411420000000  0.4110240000000 1.0
C      1  0.5490540000000  0.5521320000000  0.5116790000000 1.0
C      1  0.4740300000000  0.5860800000000  0.4637220000000 1.0
C      1  0.5639250000000  0.5459610000000  0.4183870000000 1.0
C      1  0.5198860000000  0.5796470000000  0.4921300000000 1.0
C      1  0.4463590000000  0.4457490000000  0.5633520000000 1.0
C      1  0.4705890000000  0.4132720000000  0.4795240000000 1.0
C      1  0.4950490000000  0.4093430000000  0.4985100000000 1.0
C      1  0.4777350000000  0.5351970000000  0.4864490000000 1.0
C      1  0.4620150000000  0.5119430000000  0.5148360000000 1.0
C      1  0.5202340000000  0.4194020000000  0.4340720000000 1.0
C      1  0.5745250000000  0.4291110000000  0.4509980000000 1.0
C      1  0.5293350000000  0.5334040000000  0.4790080000000 1.0
C      1  0.5535990000000  0.5682780000000  0.5759840000000 1.0
C      1  0.4661140000000  0.5505280000000  0.5896100000000 1.0
C      1  0.5993080000000  0.5258610000000  0.4878780000000 1.0
C      1  0.3831360000000  0.5040440000000  0.4991420000000 1.0
C      1  0.5643360000000  0.4942020000000  0.5442330000000 1.0
C      1  0.5579480000000  0.4879510000000  0.4826000000000 1.0
C      1  0.4158640000000  0.4479940000000  0.4917330000000 1.0
C      1  0.5419020000000  0.5343830000000  0.3987030000000 1.0
C      1  0.4461730000000  0.4941700000000  0.4377250000000 1.0
C      1  0.4014550000000  0.4654180000000  0.4763250000000 1.0
C      1  0.5118080000000  0.5434600000000  0.4445720000000 1.0
C      1  0.5572210000000  0.5705190000000  0.5364210000000 1.0
C      1  0.4582290000000  0.5810040000000  0.4997170000000 1.0
C      1  0.5149670000000  0.6016950000000  0.5358160000000 1.0
C      1  0.3893260000000  0.4916500000000  0.4736900000000 1.0
C      1  0.5227620000000  0.4270800000000  0.4670160000000 1.0
C      1  0.5889800000000  0.5194870000000  0.5176030000000 1.0
C      1  0.4706600000000  0.5547350000000  0.4605290000000 1.0
C      1  0.5103530000000  0.4628000000000  0.4795850000000 1.0
C      1  0.5104250000000  0.5192000000000  0.5810300000000 1.0
C      1  0.4310860000000  0.5088570000000  0.5249740000000 1.0
C      1  0.5042190000000  0.5573160000000  0.4157980000000 1.0
C      1  0.5418420000000  0.5172730000000  0.5450040000000 1.0
C      1  0.5110290000000  0.4718570000000  0.5485030000000 1.0
C      1  0.4644790000000  0.4733830000000  0.4176050000000 1.0
C      1  0.5985830000000  0.5105740000000  0.5655950000000 1.0
C      1  0.5955150000000  0.5297030000000  0.5454950000000 1.0
C      1  0.5186360000000  0.4929330000000  0.4879160000000 1.0
C      1  0.4906560000000  0.3994710000000  0.5558400000000 1.0
C      1  0.5554650000000  0.4598550000000  0.5025830000000 1.0
C      1  0.4961100000000  0.4106180000000  0.4564930000000 1.0
C      1  0.5364060000000  0.5895050000000  0.5172400000000 1.0
C      1  0.4121370000000  0.4799040000000  0.5449670000000 1.0
C      1  0.5513710000000  0.4587300000000  0.4255220000000 1.0
C      1  0.5044250000000  0.5274120000000  0.4960080000000 1.0
C      1  0.6006850000000  0.4664690000000  0.4778430000000 1.0
C      1  0.4845070000000  0.5647280000000  0.5125490000000 1.0
C      1  0.4274010000000  0.5623180000000  0.4485780000000 1.0
C      1  0.5254370000000  0.5276910000000  0.6095040000000 1.0
C      1  0.3903100000000  0.5539640000000  0.4881430000000 1.0
C      1  0.5045810000000  0.4335790000000  0.4114170000000 1.0
C      1  0.5343900000000  0.4969230000000  0.6036360000000 1.0
C      1  0.4144790000000  0.5301420000000  0.4848970000000 1.0
C      1  0.4866930000000  0.5964000000000  0.5232080000000 1.0
C      1  0.5093990000000  0.4872410000000  0.3947830000000 1.0
C      1  0.5844360000000  0.4432430000000  0.5255520000000 1.0
C      1  0.4876000000000  0.4012830000000  0.6090320000000 1.0
C      1  0.4801410000000  0.5728600000000  0.5708450000000 1.0
C      1  0.5608220000000  0.5849360000000  0.4710960000000 1.0
C      1  0.4779320000000  0.4950900000000  0.3998700000000 1.0
C      1  0.5276800000000  0.3985530000000  0.4944660000000 1.0
C      1  0.5674600000000  0.4545050000000  0.5531480000000 1.0
C      1  0.4375220000000  0.4911650000000  0.4641500000000 1.0
C      1  0.4345640000000  0.4755820000000  0.5701640000000 1.0
C      1  0.5585630000000  0.5237050000000  0.5180310000000 1.0
C      1  0.5146000000000  0.4360490000000  0.4988770000000 1.0
C      1  0.4944670000000  0.4705900000000  0.4439120000000 1.0
C      1  0.4335780000000  0.5546120000000  0.4175090000000 1.0
C      1  0.5825870000000  0.5376100000000  0.4443360000000 1.0
C      1  0.5712280000000  0.5413030000000  0.5868920000000 1.0
C      1  0.4264460000000  0.4791250000000  0.4067160000000 1.0
C      1  0.4478900000000  0.4641660000000  0.4741640000000 1.0
C      1  0.4229620000000  0.5630440000000  0.4882630000000 1.0
C      1  0.4596560000000  0.5430300000000  0.5114250000000 1.0
C      1  0.4796520000000  0.5016350000000  0.5420330000000 1.0
C      1  0.4426190000000  0.5673800000000  0.5448750000000 1.0
C      1  0.4703400000000  0.5393150000000  0.5515040000000 1.0
C      1  0.4476820000000  0.4975850000000  0.5488620000000 1.0
C      1  0.5711130000000  0.4168720000000  0.5411480000000 1.0
C      1  0.4171000000000  0.5262910000000  0.5687090000000 1.0
C      1  0.5535890000000  0.4745920000000  0.4534740000000 1.0
C      1  0.4959960000000  0.5167530000000  0.4470350000000 1.0
C      1  0.5142170000000  0.4939480000000  0.4550600000000 1.0
C      1  0.5458490000000  0.5508640000000  0.6046380000000 1.0
C      1  0.4805900000000  0.4680590000000  0.4741620000000 1.0
C      1  0.5376240000000  0.4152910000000  0.5427280000000 1.0
C      1  0.5401800000000  0.5867350000000  0.4463970000000 1.0
C      1  0.4481380000000  0.5327530000000  0.4476410000000 1.0
C      1  0.6019350000000  0.5099800000000  0.4409850000000 1.0
C      1  0.3987370000000  0.5182970000000  0.5223300000000 1.0
C      1  0.4024850000000  0.5090540000000  0.5527620000000 1.0
C      1  0.4256940000000  0.4608170000000  0.4240850000000 1.0
C      1  0.4694750000000  0.5151590000000  0.4625160000000 1.0
C      1  0.4813140000000  0.4696060000000  0.5907430000000 1.0
C      1  0.5172540000000  0.4144520000000  0.5665070000000 1.0
C      1  0.4656110000000  0.3983330000000  0.4492950000000 1.0
C      1  0.4382920000000  0.4127320000000  0.4562830000000 1.0
C      1  0.5734740000000  0.4213020000000  0.4785390000000 1.0
C      1  0.5233600000000  0.3962650000000  0.5231610000000 1.0
C      1  0.3995450000000  0.5102230000000  0.4536070000000 1.0
C      1  0.5102480000000  0.5658630000000  0.5695790000000 1.0
C      1  0.4359570000000  0.4350850000000  0.5357380000000 1.0
C      1  0.4976990000000  0.5413090000000  0.5506490000000 1.0
C      1  0.4666220000000  0.5163620000000  0.5906070000000 1.0
C      1  0.5201780000000  0.6101970000000  0.4446650000000 1.0
C      1  0.4723100000000  0.4388120000000  0.5817560000000 1.0
C      1  0.4885140000000  0.4146280000000  0.5847870000000 1.0
C      1  0.4923040000000  0.5343680000000  0.6040760000000 1.0
C      1  0.5163800000000  0.5529520000000  0.5113270000000 1.0
C      1  0.4464500000000  0.5067890000000  0.4059070000000 1.0
C      1  0.4583200000000  0.4679980000000  0.5391130000000 1.0
C      1  0.4788390000000  0.5440790000000  0.4057010000000 1.0
C      1  0.5405810000000  0.4772100000000  0.4040550000000 1.0
C      1  0.4410610000000  0.5450880000000  0.5678870000000 1.0
C      1  0.4377220000000  0.4441870000000  0.4508980000000 1.0
C      1  0.5449210000000  0.4445010000000  0.5299370000000 1.0
C      1  0.4147730000000  0.4534610000000  0.5238250000000 1.0
C      1  0.5412940000000  0.4528810000000  0.4744800000000 1.0
C      1  0.5425340000000  0.4967150000000  0.5107950000000 1.0
C      1  0.5790360000000  0.5125770000000  0.5866730000000 1.0
C      1  0.4546380000000  0.4281420000000  0.5150410000000 1.0
END
