TITL C-2778425-5191-685 0.00354562255764436 125000 -978.135385938776 0 0 166 (C1) n - 1
REM
REM in /home/nfs/bkarasulu/CARBON/AIRSS/Generating-Clusters/REBO/Only-C1/SD-CG/HFTN-CG
REM
REM
REM
REM
REM
REM ./C.cell (11c1c37f851c82e70ff6c80c92926a4b)
REM
REM compiler GCC version 9.2.1 20190827 (Red Hat 9.2.1-1)
REM options -cpp -mtune=generic -march=x86-64 -g -O0 -fpre-include=/usr/include/finclude/math-vector-fortran.h
REM seed 1668405040 -1097046163 2028035259 -1872862020 251627519 -1698832152 -459433934 335340393 65845677 -290936479 -864257996 -1896787315 1024663528 -457378524 484054309 281478812 196921091 -423071131 1555630850 886291315 1067458650 1323837706 -964575842 402455230 2111492509 -260008468 -249945814 79601465 -1272020771 -2018648062 278612787 -795204634 1110133968
REM
CELL 1.54180   50.00000   50.00000   50.00000   90.00000   90.00000   90.00000
LATT -1
SFAC C  
C      1  0.4240550000000  0.4849430000000  0.4987530000000 1.0
C      1  0.4551630000000  0.5162470000000  0.4184620000000 1.0
C      1  0.5058740000000  0.4475960000000  0.4628230000000 1.0
C      1  0.5319230000000  0.4481440000000  0.5424940000000 1.0
C      1  0.5596840000000  0.5026800000000  0.5392230000000 1.0
C      1  0.4783850000000  0.5559520000000  0.5314170000000 1.0
C      1  0.4046750000000  0.4716140000000  0.4666790000000 1.0
C      1  0.5340270000000  0.4722810000000  0.4906970000000 1.0
C      1  0.5372630000000  0.4838110000000  0.4404360000000 1.0
C      1  0.4053820000000  0.4401070000000  0.5091140000000 1.0
C      1  0.5502940000000  0.5432290000000  0.3802600000000 1.0
C      1  0.4298860000000  0.5312830000000  0.4860780000000 1.0
C      1  0.5767680000000  0.4796250000000  0.4445760000000 1.0
C      1  0.4790760000000  0.4859220000000  0.4805600000000 1.0
C      1  0.5620820000000  0.4319190000000  0.4489140000000 1.0
C      1  0.5351500000000  0.4808760000000  0.4072660000000 1.0
C      1  0.3935290000000  0.5372730000000  0.5070770000000 1.0
C      1  0.4092290000000  0.4763280000000  0.5458180000000 1.0
C      1  0.5770520000000  0.5626460000000  0.4606460000000 1.0
C      1  0.4237270000000  0.4608580000000  0.4421480000000 1.0
C      1  0.4366700000000  0.4304590000000  0.4508020000000 1.0
C      1  0.5536920000000  0.5830140000000  0.5051760000000 1.0
C      1  0.4716010000000  0.4260100000000  0.4926220000000 1.0
C      1  0.4332180000000  0.4810420000000  0.4240920000000 1.0
C      1  0.6081260000000  0.5326110000000  0.5329500000000 1.0
C      1  0.5237960000000  0.5926850000000  0.5194570000000 1.0
C      1  0.4336220000000  0.4901090000000  0.4673830000000 1.0
C      1  0.5059480000000  0.4120490000000  0.6017670000000 1.0
C      1  0.5059680000000  0.4818870000000  0.3956910000000 1.0
C      1  0.3961810000000  0.4923080000000  0.5263290000000 1.0
C      1  0.5755470000000  0.4549650000000  0.4906440000000 1.0
C      1  0.5917800000000  0.5062360000000  0.4845720000000 1.0
C      1  0.3840790000000  0.5175570000000  0.4852240000000 1.0
C      1  0.5250420000000  0.5082040000000  0.4555840000000 1.0
C      1  0.5779370000000  0.5606620000000  0.4267070000000 1.0
C      1  0.5292510000000  0.5576150000000  0.4488020000000 1.0
C      1  0.4652150000000  0.4834430000000  0.5313640000000 1.0
C      1  0.3909670000000  0.4878470000000  0.4934360000000 1.0
C      1  0.4728370000000  0.5246080000000  0.5074500000000 1.0
C      1  0.5598960000000  0.5449790000000  0.5156860000000 1.0
C      1  0.4922320000000  0.4918510000000  0.5470260000000 1.0
C      1  0.4020370000000  0.5202960000000  0.5293760000000 1.0
C      1  0.4887660000000  0.5235080000000  0.5347180000000 1.0
C      1  0.4999980000000  0.5976050000000  0.4678590000000 1.0
C      1  0.4564870000000  0.5447550000000  0.4770480000000 1.0
C      1  0.5507300000000  0.4511860000000  0.4015170000000 1.0
C      1  0.6002970000000  0.4903230000000  0.5627690000000 1.0
C      1  0.4618210000000  0.4496780000000  0.4450540000000 1.0
C      1  0.4551080000000  0.5154950000000  0.4596240000000 1.0
C      1  0.4527080000000  0.5637880000000  0.4402780000000 1.0
C      1  0.5112820000000  0.5537580000000  0.5938730000000 1.0
C      1  0.5895200000000  0.5385510000000  0.5077630000000 1.0
C      1  0.5825890000000  0.5080470000000  0.4591500000000 1.0
C      1  0.4821940000000  0.4615440000000  0.4067460000000 1.0
C      1  0.4534490000000  0.4235920000000  0.5208950000000 1.0
C      1  0.4777220000000  0.5016370000000  0.3971990000000 1.0
C      1  0.4288880000000  0.5057470000000  0.5796640000000 1.0
C      1  0.5560770000000  0.5674930000000  0.5355380000000 1.0
C      1  0.5762590000000  0.4518690000000  0.4609340000000 1.0
C      1  0.5385700000000  0.5239760000000  0.6271060000000 1.0
C      1  0.4347880000000  0.5124080000000  0.5079190000000 1.0
C      1  0.4332000000000  0.5246840000000  0.5373830000000 1.0
C      1  0.5620150000000  0.4658820000000  0.5945450000000 1.0
C      1  0.4830590000000  0.5364320000000  0.4613890000000 1.0
C      1  0.5212190000000  0.5987540000000  0.5509640000000 1.0
C      1  0.5007340000000  0.4923550000000  0.4280920000000 1.0
C      1  0.6049730000000  0.4688640000000  0.5443940000000 1.0
C      1  0.4760750000000  0.5213220000000  0.5724730000000 1.0
C      1  0.4654800000000  0.5520620000000  0.5761490000000 1.0
C      1  0.4376750000000  0.5581370000000  0.5585940000000 1.0
C      1  0.3943670000000  0.4445630000000  0.4804260000000 1.0
C      1  0.5304890000000  0.4966480000000  0.5130720000000 1.0
C      1  0.5818900000000  0.4400310000000  0.5189270000000 1.0
C      1  0.4910580000000  0.5873240000000  0.5276920000000 1.0
C      1  0.4110560000000  0.5614170000000  0.5038680000000 1.0
C      1  0.4310150000000  0.5573180000000  0.5279550000000 1.0
C      1  0.5688350000000  0.5316260000000  0.4524660000000 1.0
C      1  0.4254590000000  0.5107170000000  0.4267330000000 1.0
C      1  0.5411240000000  0.5322440000000  0.4469940000000 1.0
C      1  0.5375550000000  0.5225550000000  0.5558290000000 1.0
C      1  0.4885770000000  0.4159050000000  0.4458400000000 1.0
C      1  0.5682650000000  0.4109410000000  0.5209660000000 1.0
C      1  0.5049350000000  0.5197570000000  0.4079330000000 1.0
C      1  0.4559780000000  0.5521950000000  0.5090620000000 1.0
C      1  0.4622310000000  0.4957680000000  0.5034550000000 1.0
C      1  0.4564860000000  0.4775730000000  0.4083520000000 1.0
C      1  0.5467380000000  0.6003310000000  0.4336320000000 1.0
C      1  0.5059040000000  0.5733140000000  0.4894330000000 1.0
C      1  0.4611780000000  0.4762530000000  0.4571770000000 1.0
C      1  0.4984300000000  0.5099500000000  0.4704670000000 1.0
C      1  0.4261860000000  0.5705970000000  0.4797600000000 1.0
C      1  0.5388940000000  0.5562280000000  0.5554990000000 1.0
C      1  0.6077470000000  0.5158450000000  0.5539450000000 1.0
C      1  0.5274650000000  0.5451310000000  0.4054180000000 1.0
C      1  0.4701110000000  0.5854700000000  0.4559270000000 1.0
C      1  0.5172810000000  0.5094670000000  0.5354040000000 1.0
C      1  0.5824350000000  0.4822880000000  0.5836690000000 1.0
C      1  0.5514160000000  0.4014460000000  0.4997250000000 1.0
C      1  0.5454900000000  0.4476940000000  0.5050630000000 1.0
C      1  0.4752550000000  0.3791900000000  0.5573440000000 1.0
C      1  0.4069080000000  0.5288460000000  0.4703490000000 1.0
C      1  0.4643710000000  0.4147040000000  0.4632190000000 1.0
C      1  0.4998690000000  0.4359550000000  0.4876420000000 1.0
C      1  0.5243080000000  0.4044690000000  0.4846760000000 1.0
C      1  0.4828750000000  0.4396240000000  0.4259960000000 1.0
C      1  0.5121530000000  0.5543650000000  0.5106530000000 1.0
C      1  0.4185080000000  0.4212300000000  0.4766960000000 1.0
C      1  0.4668650000000  0.5905420000000  0.5060160000000 1.0
C      1  0.4947750000000  0.4018380000000  0.5447830000000 1.0
C      1  0.4562780000000  0.5087360000000  0.5508360000000 1.0
C      1  0.5529020000000  0.4830580000000  0.4684820000000 1.0
C      1  0.5157010000000  0.4521110000000  0.5711260000000 1.0
C      1  0.4739290000000  0.4979900000000  0.4379510000000 1.0
C      1  0.4734310000000  0.5165450000000  0.6230020000000 1.0
C      1  0.4641580000000  0.4034310000000  0.5391830000000 1.0
C      1  0.4957760000000  0.5884410000000  0.5615810000000 1.0
C      1  0.4890910000000  0.5694320000000  0.5806390000000 1.0
C      1  0.5923890000000  0.4727680000000  0.5144950000000 1.0
C      1  0.5420850000000  0.5106240000000  0.4843320000000 1.0
C      1  0.5235110000000  0.6011010000000  0.4194010000000 1.0
C      1  0.4525280000000  0.5847260000000  0.4834680000000 1.0
C      1  0.5606350000000  0.5520360000000  0.4086980000000 1.0
C      1  0.4520840000000  0.4541960000000  0.5345130000000 1.0
C      1  0.5229450000000  0.4279440000000  0.5086040000000 1.0
C      1  0.5161340000000  0.4094100000000  0.4571560000000 1.0
C      1  0.4437760000000  0.4414050000000  0.4867090000000 1.0
C      1  0.5047800000000  0.4760090000000  0.4906020000000 1.0
C      1  0.5792510000000  0.5660620000000  0.4903630000000 1.0
C      1  0.4568350000000  0.4644450000000  0.5654400000000 1.0
C      1  0.5485960000000  0.4433720000000  0.5778760000000 1.0
C      1  0.4275310000000  0.5580440000000  0.4525790000000 1.0
C      1  0.4958980000000  0.5944020000000  0.4358750000000 1.0
C      1  0.5284510000000  0.5972990000000  0.4868690000000 1.0
C      1  0.4889320000000  0.5480470000000  0.4130150000000 1.0
C      1  0.5503010000000  0.5777390000000  0.4498980000000 1.0
C      1  0.5461720000000  0.4981820000000  0.6281090000000 1.0
C      1  0.5254300000000  0.4536770000000  0.6208700000000 1.0
C      1  0.5965330000000  0.4448330000000  0.5554730000000 1.0
C      1  0.5097780000000  0.5558680000000  0.5431710000000 1.0
C      1  0.5141120000000  0.4620580000000  0.4366380000000 1.0
C      1  0.5260140000000  0.5446560000000  0.6152670000000 1.0
C      1  0.5466160000000  0.4723170000000  0.6173550000000 1.0
C      1  0.4910400000000  0.4682490000000  0.5671690000000 1.0
C      1  0.5836920000000  0.5056020000000  0.5164370000000 1.0
C      1  0.5251680000000  0.4428260000000  0.4141840000000 1.0
C      1  0.5154590000000  0.4378780000000  0.5995760000000 1.0
C      1  0.5410030000000  0.4143210000000  0.5614420000000 1.0
C      1  0.5032160000000  0.5261620000000  0.4975610000000 1.0
C      1  0.4740140000000  0.5046980000000  0.5981380000000 1.0
C      1  0.5677100000000  0.4754120000000  0.4161700000000 1.0
C      1  0.5037580000000  0.5584680000000  0.4612880000000 1.0
C      1  0.5360090000000  0.5348300000000  0.5029750000000 1.0
C      1  0.4630930000000  0.5452900000000  0.4224140000000 1.0
C      1  0.5075230000000  0.5338980000000  0.5683780000000 1.0
C      1  0.5172810000000  0.4184900000000  0.5392780000000 1.0
C      1  0.4321430000000  0.4587510000000  0.5100070000000 1.0
C      1  0.5475330000000  0.4728220000000  0.5282000000000 1.0
C      1  0.4378520000000  0.5318460000000  0.5777620000000 1.0
C      1  0.5625800000000  0.4026620000000  0.5479160000000 1.0
C      1  0.4728810000000  0.4770730000000  0.5926110000000 1.0
C      1  0.4133520000000  0.5319960000000  0.4414140000000 1.0
C      1  0.5084610000000  0.5720140000000  0.4139340000000 1.0
C      1  0.5392200000000  0.4184400000000  0.4425320000000 1.0
C      1  0.4251310000000  0.4154200000000  0.5098140000000 1.0
C      1  0.4291210000000  0.4807300000000  0.5658560000000 1.0
C      1  0.5651480000000  0.4425760000000  0.5480850000000 1.0
END
