TITL C-2778433-5640-1408 -0.0067829388420067 125000 -1124.74270640763 0 0 195 (C1) n - 1
REM
REM in /home/nfs/bkarasulu/CARBON/AIRSS/Generating-Clusters/REBO/Only-C1/SD-CG/HFTN-CG
REM
REM
REM
REM
REM
REM ./C.cell (11c1c37f851c82e70ff6c80c92926a4b)
REM
REM compiler GCC version 9.2.1 20190827 (Red Hat 9.2.1-1)
REM options -cpp -mtune=generic -march=x86-64 -g -O0 -fpre-include=/usr/include/finclude/math-vector-fortran.h
REM seed -275030889 561123835 976530339 1527174062 -1649094533 497744153 1000251355 -2050360037 -1687382457 -1458800013 -1128090285 1602594632 1292679196 15928496 -992648432 -1577689065 1149229753 -1952206640 -1920656367 520009616 1784238763 2036061261 160386793 604747365 -759256009 10660596 -355330643 -387194690 1656962918 -844195826 -203194851 11176186 -2114254163
REM
CELL 1.54180   50.00000   50.00000   50.00000   90.00000   90.00000   90.00000
LATT -1
SFAC C  
C      1  0.4788570000000  0.5989470000000  0.5753790000000 1.0
C      1  0.6138490000000  0.4649950000000  0.5016750000000 1.0
C      1  0.4820420000000  0.4022070000000  0.4882640000000 1.0
C      1  0.5258190000000  0.4822020000000  0.4370380000000 1.0
C      1  0.4627820000000  0.4814220000000  0.5058140000000 1.0
C      1  0.4705850000000  0.4293010000000  0.5047900000000 1.0
C      1  0.4817150000000  0.4020700000000  0.5222970000000 1.0
C      1  0.4294160000000  0.4513070000000  0.5716710000000 1.0
C      1  0.5687630000000  0.4615420000000  0.5380020000000 1.0
C      1  0.6086510000000  0.5206390000000  0.5371970000000 1.0
C      1  0.6024770000000  0.4858200000000  0.5664590000000 1.0
C      1  0.5928430000000  0.5116970000000  0.4082640000000 1.0
C      1  0.3676240000000  0.5101310000000  0.5404720000000 1.0
C      1  0.5023210000000  0.5302340000000  0.4150380000000 1.0
C      1  0.4337360000000  0.5834070000000  0.4556560000000 1.0
C      1  0.5776920000000  0.4859360000000  0.4099950000000 1.0
C      1  0.5024470000000  0.5001270000000  0.5471450000000 1.0
C      1  0.5328790000000  0.5662910000000  0.5301710000000 1.0
C      1  0.5589840000000  0.5516420000000  0.4178500000000 1.0
C      1  0.4883120000000  0.5943370000000  0.5168180000000 1.0
C      1  0.5072120000000  0.4347250000000  0.5365420000000 1.0
C      1  0.4221950000000  0.5998680000000  0.5015210000000 1.0
C      1  0.4413730000000  0.4805190000000  0.6015720000000 1.0
C      1  0.4306620000000  0.4446770000000  0.4901370000000 1.0
C      1  0.4977260000000  0.5451850000000  0.4837350000000 1.0
C      1  0.5190830000000  0.4875010000000  0.5131210000000 1.0
C      1  0.4175570000000  0.4780770000000  0.5599270000000 1.0
C      1  0.5347550000000  0.5770220000000  0.4977600000000 1.0
C      1  0.4062150000000  0.5434450000000  0.5226760000000 1.0
C      1  0.5309410000000  0.4951810000000  0.3904290000000 1.0
C      1  0.5403760000000  0.4354720000000  0.5283480000000 1.0
C      1  0.5868350000000  0.4850540000000  0.5393070000000 1.0
C      1  0.5032460000000  0.5707370000000  0.5008790000000 1.0
C      1  0.4751800000000  0.4396240000000  0.4228270000000 1.0
C      1  0.4964980000000  0.4885280000000  0.5767760000000 1.0
C      1  0.4893570000000  0.4152820000000  0.4383060000000 1.0
C      1  0.5054250000000  0.5708120000000  0.5442440000000 1.0
C      1  0.5778110000000  0.4715810000000  0.4368270000000 1.0
C      1  0.5038810000000  0.6157720000000  0.5212310000000 1.0
C      1  0.5141350000000  0.4275930000000  0.5845270000000 1.0
C      1  0.5050730000000  0.4421790000000  0.4524130000000 1.0
C      1  0.5539360000000  0.4754730000000  0.3971700000000 1.0
C      1  0.5316100000000  0.4128240000000  0.4578150000000 1.0
C      1  0.4168050000000  0.5116870000000  0.5151640000000 1.0
C      1  0.5313300000000  0.5286700000000  0.3982470000000 1.0
C      1  0.3869510000000  0.4601230000000  0.4758030000000 1.0
C      1  0.5913260000000  0.5293890000000  0.4329130000000 1.0
C      1  0.5604110000000  0.4188620000000  0.5050870000000 1.0
C      1  0.4734990000000  0.4881360000000  0.4459360000000 1.0
C      1  0.5351700000000  0.4452130000000  0.4680820000000 1.0
C      1  0.4918490000000  0.4780790000000  0.6088740000000 1.0
C      1  0.5219970000000  0.5276680000000  0.6196260000000 1.0
C      1  0.5195340000000  0.4136870000000  0.4287390000000 1.0
C      1  0.5082720000000  0.6025210000000  0.4832610000000 1.0
C      1  0.4945960000000  0.5254080000000  0.5313810000000 1.0
C      1  0.4013630000000  0.4944020000000  0.4378950000000 1.0
C      1  0.4422700000000  0.5398440000000  0.4775960000000 1.0
C      1  0.4727700000000  0.5251210000000  0.4808300000000 1.0
C      1  0.4973070000000  0.4693650000000  0.4376040000000 1.0
C      1  0.3982780000000  0.5205080000000  0.4289440000000 1.0
C      1  0.5905290000000  0.5414240000000  0.4709260000000 1.0
C      1  0.5000520000000  0.5936750000000  0.5584850000000 1.0
C      1  0.4498720000000  0.5363460000000  0.4011900000000 1.0
C      1  0.5845080000000  0.5505890000000  0.5092350000000 1.0
C      1  0.4395970000000  0.5062570000000  0.5847620000000 1.0
C      1  0.5100910000000  0.4246440000000  0.5055760000000 1.0
C      1  0.4558840000000  0.5046660000000  0.4039400000000 1.0
C      1  0.5323810000000  0.4973760000000  0.5536490000000 1.0
C      1  0.4416570000000  0.4313450000000  0.5564320000000 1.0
C      1  0.5286260000000  0.5599700000000  0.4126550000000 1.0
C      1  0.4222650000000  0.4868120000000  0.4639060000000 1.0
C      1  0.5297840000000  0.5860900000000  0.4647610000000 1.0
C      1  0.4322630000000  0.5324960000000  0.4460640000000 1.0
C      1  0.5398560000000  0.5180660000000  0.4981780000000 1.0
C      1  0.5456480000000  0.5527750000000  0.4494650000000 1.0
C      1  0.4113270000000  0.5102280000000  0.5682150000000 1.0
C      1  0.4190300000000  0.5399680000000  0.5820270000000 1.0
C      1  0.4318000000000  0.5689850000000  0.5726660000000 1.0
C      1  0.4298710000000  0.5703710000000  0.5404310000000 1.0
C      1  0.4793020000000  0.5905830000000  0.4760600000000 1.0
C      1  0.4243010000000  0.4229310000000  0.5346740000000 1.0
C      1  0.5271080000000  0.4006960000000  0.5429420000000 1.0
C      1  0.4691430000000  0.4783590000000  0.5495670000000 1.0
C      1  0.4128650000000  0.4724460000000  0.5297000000000 1.0
C      1  0.5144350000000  0.5779660000000  0.4381940000000 1.0
C      1  0.5984420000000  0.4293370000000  0.5111130000000 1.0
C      1  0.6030820000000  0.5262390000000  0.5058780000000 1.0
C      1  0.4448220000000  0.5266570000000  0.5231740000000 1.0
C      1  0.5682080000000  0.5182460000000  0.4793840000000 1.0
C      1  0.4752690000000  0.4310610000000  0.5500100000000 1.0
C      1  0.5411270000000  0.5127240000000  0.5790790000000 1.0
C      1  0.4428590000000  0.5513120000000  0.4228690000000 1.0
C      1  0.5154080000000  0.5462470000000  0.4594140000000 1.0
C      1  0.5459770000000  0.5065960000000  0.4280010000000 1.0
C      1  0.4673790000000  0.5511110000000  0.5759180000000 1.0
C      1  0.5811960000000  0.4275960000000  0.4817670000000 1.0
C      1  0.5621520000000  0.4106010000000  0.5381940000000 1.0
C      1  0.4617160000000  0.4398930000000  0.4541170000000 1.0
C      1  0.4067970000000  0.4927490000000  0.4938210000000 1.0
C      1  0.4136800000000  0.5757730000000  0.5142920000000 1.0
C      1  0.5089420000000  0.5003410000000  0.4151560000000 1.0
C      1  0.5589760000000  0.5463240000000  0.5306530000000 1.0
C      1  0.4459260000000  0.5949760000000  0.4810360000000 1.0
C      1  0.4899010000000  0.4775850000000  0.5256940000000 1.0
C      1  0.6030030000000  0.4524500000000  0.4791290000000 1.0
C      1  0.4796840000000  0.5424220000000  0.4355600000000 1.0
C      1  0.5628340000000  0.5235690000000  0.4487100000000 1.0
C      1  0.5536350000000  0.5972950000000  0.5161990000000 1.0
C      1  0.4334600000000  0.5389850000000  0.5515670000000 1.0
C      1  0.4476600000000  0.4818490000000  0.4248660000000 1.0
C      1  0.4818840000000  0.5502160000000  0.5456500000000 1.0
C      1  0.4200230000000  0.4531600000000  0.4213560000000 1.0
C      1  0.3907950000000  0.4653360000000  0.5060470000000 1.0
C      1  0.5666350000000  0.5720390000000  0.5761170000000 1.0
C      1  0.5838830000000  0.5568240000000  0.5508610000000 1.0
C      1  0.5462140000000  0.5040520000000  0.5264610000000 1.0
C      1  0.3824630000000  0.4835380000000  0.4617150000000 1.0
C      1  0.6199780000000  0.5069950000000  0.5573740000000 1.0
C      1  0.5716160000000  0.5163920000000  0.5851730000000 1.0
C      1  0.3905720000000  0.5119620000000  0.4720630000000 1.0
C      1  0.4912550000000  0.4141570000000  0.5722280000000 1.0
C      1  0.4372760000000  0.4599760000000  0.4492760000000 1.0
C      1  0.4997450000000  0.4810720000000  0.3907450000000 1.0
C      1  0.5617050000000  0.4278090000000  0.4572660000000 1.0
C      1  0.4605350000000  0.5178840000000  0.4354970000000 1.0
C      1  0.4562520000000  0.5585230000000  0.5253930000000 1.0
C      1  0.5030810000000  0.4481640000000  0.4913550000000 1.0
C      1  0.5468080000000  0.4915440000000  0.6039390000000 1.0
C      1  0.4640840000000  0.5776570000000  0.5039040000000 1.0
C      1  0.5778210000000  0.4901580000000  0.4853360000000 1.0
C      1  0.4593960000000  0.5797720000000  0.5820200000000 1.0
C      1  0.5792850000000  0.5697690000000  0.4826940000000 1.0
C      1  0.4966870000000  0.3975660000000  0.5461010000000 1.0
C      1  0.5113900000000  0.4567700000000  0.5959410000000 1.0
C      1  0.5362640000000  0.5042090000000  0.6264020000000 1.0
C      1  0.5804630000000  0.5421940000000  0.5805590000000 1.0
C      1  0.4753540000000  0.4821100000000  0.4755690000000 1.0
C      1  0.4753370000000  0.5055850000000  0.6056130000000 1.0
C      1  0.4045290000000  0.5370660000000  0.4651490000000 1.0
C      1  0.5807550000000  0.5794370000000  0.5254740000000 1.0
C      1  0.5525420000000  0.4790410000000  0.4561100000000 1.0
C      1  0.4016110000000  0.4723750000000  0.4163710000000 1.0
C      1  0.5672710000000  0.4429300000000  0.4307200000000 1.0
C      1  0.5922180000000  0.4738060000000  0.4630040000000 1.0
C      1  0.4759970000000  0.4510340000000  0.4791680000000 1.0
C      1  0.5151780000000  0.4007950000000  0.4818320000000 1.0
C      1  0.4580900000000  0.5319440000000  0.5951730000000 1.0
C      1  0.5751180000000  0.5164050000000  0.5327030000000 1.0
C      1  0.5984060000000  0.4927610000000  0.5104940000000 1.0
C      1  0.5792140000000  0.5593060000000  0.4441630000000 1.0
C      1  0.4072470000000  0.4412630000000  0.4690770000000 1.0
C      1  0.4692950000000  0.5108670000000  0.5178160000000 1.0
C      1  0.5052380000000  0.4561540000000  0.5582320000000 1.0
C      1  0.5191590000000  0.5305110000000  0.5916120000000 1.0
C      1  0.4657440000000  0.5096500000000  0.5631690000000 1.0
C      1  0.5490580000000  0.4483920000000  0.4081980000000 1.0
C      1  0.4571150000000  0.4611670000000  0.5986490000000 1.0
C      1  0.4824010000000  0.5737030000000  0.4493920000000 1.0
C      1  0.5440670000000  0.4655220000000  0.5164530000000 1.0
C      1  0.4943860000000  0.5026470000000  0.4951140000000 1.0
C      1  0.6206030000000  0.5317420000000  0.4788080000000 1.0
C      1  0.4320080000000  0.4195210000000  0.4711490000000 1.0
C      1  0.4445680000000  0.5069280000000  0.4739360000000 1.0
C      1  0.5319680000000  0.4711810000000  0.5729180000000 1.0
C      1  0.4411040000000  0.4946950000000  0.5466020000000 1.0
C      1  0.4770900000000  0.4610120000000  0.5759630000000 1.0
C      1  0.4494820000000  0.4514420000000  0.4122300000000 1.0
C      1  0.4382770000000  0.4633150000000  0.5120200000000 1.0
C      1  0.4607590000000  0.4080250000000  0.4651610000000 1.0
C      1  0.5371590000000  0.4233220000000  0.5663030000000 1.0
C      1  0.5231300000000  0.5197420000000  0.4495360000000 1.0
C      1  0.5615830000000  0.5853490000000  0.4694370000000 1.0
C      1  0.5288730000000  0.6155820000000  0.5064810000000 1.0
C      1  0.4173530000000  0.5511930000000  0.4926170000000 1.0
C      1  0.5331330000000  0.5017550000000  0.4708630000000 1.0
C      1  0.4930660000000  0.5209420000000  0.5799730000000 1.0
C      1  0.5524540000000  0.4674160000000  0.4872660000000 1.0
C      1  0.5555610000000  0.5845370000000  0.5478780000000 1.0
C      1  0.4072980000000  0.4402580000000  0.5223210000000 1.0
C      1  0.4525940000000  0.5740270000000  0.4368800000000 1.0
C      1  0.5631040000000  0.5228590000000  0.4054430000000 1.0
C      1  0.5240820000000  0.4354500000000  0.4095500000000 1.0
C      1  0.4614130000000  0.4484440000000  0.5271060000000 1.0
C      1  0.4104330000000  0.5691600000000  0.4576140000000 1.0
C      1  0.4956480000000  0.5631770000000  0.4136150000000 1.0
C      1  0.5834080000000  0.4335370000000  0.5342240000000 1.0
C      1  0.5335520000000  0.4007650000000  0.5101890000000 1.0
C      1  0.3969440000000  0.5174390000000  0.5416470000000 1.0
C      1  0.4742040000000  0.4915480000000  0.3822870000000 1.0
C      1  0.4993790000000  0.4540580000000  0.4078580000000 1.0
C      1  0.4700510000000  0.3891590000000  0.4403340000000 1.0
C      1  0.5831150000000  0.4901480000000  0.5864880000000 1.0
C      1  0.5583240000000  0.4428750000000  0.5644200000000 1.0
C      1  0.5146410000000  0.5338490000000  0.5085980000000 1.0
C      1  0.5612650000000  0.4662770000000  0.5881950000000 1.0
END
