TITL C-2778423-5760-1030 -0.00243715346371523 125000 -570.441883107577 0 0 100 (C1) n - 1
REM
REM in /home/nfs/bkarasulu/CARBON/AIRSS/Generating-Clusters/REBO/Only-C1/SD-CG/HFTN-CG
REM
REM
REM
REM
REM
REM ./C.cell (11c1c37f851c82e70ff6c80c92926a4b)
REM
REM compiler GCC version 9.2.1 20190827 (Red Hat 9.2.1-1)
REM options -cpp -mtune=generic -march=x86-64 -g -O0 -fpre-include=/usr/include/finclude/math-vector-fortran.h
REM seed -582127393 1481618382 -2123442176 304114881 -1295931538 670331069 797258592 158552555 -735963309 -1320284456 188502842 223444875 1526966468 1308215354 878731044 -1231162797 -1722101786 -1466398394 1481292312 1692904420 -2144313146 -1905641889 -598694613 -1743249357 922010457 -1197538346 1921459097 1078786380 2145984116 -247384595 1728524674 -721598409 2030969152
REM
CELL 1.54180   50.00000   50.00000   50.00000   90.00000   90.00000   90.00000
LATT -1
SFAC C  
C      1  0.5422190000000  0.4831550000000  0.4575010000000 1.0
C      1  0.5146200000000  0.4652960000000  0.4231120000000 1.0
C      1  0.4466240000000  0.5380990000000  0.4490090000000 1.0
C      1  0.5166110000000  0.5191090000000  0.5407050000000 1.0
C      1  0.4955940000000  0.4947370000000  0.5437220000000 1.0
C      1  0.4659450000000  0.4735910000000  0.5728230000000 1.0
C      1  0.5607030000000  0.4412840000000  0.5379420000000 1.0
C      1  0.4999100000000  0.4835680000000  0.5135260000000 1.0
C      1  0.5474690000000  0.4415130000000  0.5128780000000 1.0
C      1  0.4665110000000  0.4537510000000  0.5457900000000 1.0
C      1  0.5664660000000  0.5137690000000  0.5531680000000 1.0
C      1  0.4840860000000  0.4477560000000  0.5207660000000 1.0
C      1  0.4512500000000  0.5606450000000  0.4660860000000 1.0
C      1  0.4805070000000  0.5531140000000  0.4962070000000 1.0
C      1  0.5233400000000  0.5924370000000  0.5254230000000 1.0
C      1  0.4853500000000  0.5832200000000  0.4942890000000 1.0
C      1  0.4954250000000  0.5891520000000  0.5212390000000 1.0
C      1  0.5494170000000  0.4578440000000  0.4410740000000 1.0
C      1  0.4194170000000  0.5132750000000  0.5209240000000 1.0
C      1  0.5106370000000  0.5072120000000  0.5786060000000 1.0
C      1  0.4405270000000  0.5531600000000  0.4951710000000 1.0
C      1  0.4567610000000  0.4855370000000  0.4084350000000 1.0
C      1  0.5847290000000  0.4981950000000  0.5098290000000 1.0
C      1  0.5453730000000  0.5741290000000  0.5223240000000 1.0
C      1  0.4469080000000  0.4320930000000  0.4605990000000 1.0
C      1  0.5458060000000  0.5404280000000  0.4552240000000 1.0
C      1  0.4622900000000  0.4080450000000  0.4995030000000 1.0
C      1  0.5391900000000  0.5152040000000  0.5619240000000 1.0
C      1  0.5200560000000  0.4173980000000  0.4965680000000 1.0
C      1  0.4732300000000  0.4163480000000  0.4708700000000 1.0
C      1  0.4663070000000  0.5085260000000  0.5285580000000 1.0
C      1  0.4492440000000  0.4895030000000  0.5481180000000 1.0
C      1  0.5418920000000  0.5498350000000  0.5367170000000 1.0
C      1  0.4782560000000  0.5689850000000  0.5369540000000 1.0
C      1  0.4363580000000  0.4810160000000  0.4762230000000 1.0
C      1  0.4441800000000  0.5002000000000  0.5037960000000 1.0
C      1  0.4784620000000  0.5017670000000  0.5725220000000 1.0
C      1  0.5126650000000  0.4373290000000  0.5500600000000 1.0
C      1  0.4405460000000  0.4281050000000  0.4902440000000 1.0
C      1  0.5504030000000  0.5096610000000  0.4411810000000 1.0
C      1  0.4839230000000  0.5318400000000  0.4727850000000 1.0
C      1  0.5195970000000  0.4711590000000  0.5497960000000 1.0
C      1  0.5863860000000  0.5280060000000  0.5058590000000 1.0
C      1  0.4909300000000  0.4516370000000  0.5695220000000 1.0
C      1  0.4758280000000  0.5507330000000  0.5646410000000 1.0
C      1  0.5781860000000  0.4842960000000  0.4850110000000 1.0
C      1  0.5086070000000  0.5082170000000  0.4933740000000 1.0
C      1  0.4793190000000  0.4154160000000  0.5205500000000 1.0
C      1  0.4307540000000  0.5132440000000  0.4664140000000 1.0
C      1  0.4947740000000  0.4591200000000  0.4721000000000 1.0
C      1  0.5031860000000  0.4277630000000  0.4721870000000 1.0
C      1  0.5196800000000  0.5315690000000  0.4351810000000 1.0
C      1  0.4677960000000  0.5322710000000  0.4313360000000 1.0
C      1  0.5110650000000  0.5330690000000  0.5113580000000 1.0
C      1  0.5206710000000  0.5575590000000  0.4653520000000 1.0
C      1  0.5794960000000  0.5365630000000  0.5354230000000 1.0
C      1  0.5200470000000  0.5582200000000  0.4958270000000 1.0
C      1  0.4410040000000  0.4578890000000  0.5008320000000 1.0
C      1  0.5582890000000  0.5697860000000  0.4949750000000 1.0
C      1  0.5450470000000  0.4772590000000  0.5305950000000 1.0
C      1  0.5672580000000  0.5428900000000  0.4818360000000 1.0
C      1  0.4802280000000  0.5370270000000  0.5249730000000 1.0
C      1  0.5430630000000  0.4476330000000  0.5578870000000 1.0
C      1  0.5340540000000  0.4539690000000  0.4774990000000 1.0
C      1  0.4560540000000  0.5242950000000  0.4851720000000 1.0
C      1  0.4491210000000  0.5633100000000  0.5215150000000 1.0
C      1  0.5496910000000  0.4193280000000  0.4932560000000 1.0
C      1  0.5698070000000  0.4909250000000  0.5346080000000 1.0
C      1  0.5051020000000  0.5402250000000  0.5724730000000 1.0
C      1  0.5216930000000  0.4426440000000  0.4477770000000 1.0
C      1  0.4622100000000  0.5243280000000  0.5762770000000 1.0
C      1  0.5259590000000  0.5527720000000  0.5600810000000 1.0
C      1  0.4597590000000  0.4651300000000  0.4293860000000 1.0
C      1  0.4427150000000  0.4587260000000  0.4512730000000 1.0
C      1  0.5491040000000  0.5252430000000  0.5192440000000 1.0
C      1  0.5332310000000  0.5880680000000  0.4869910000000 1.0
C      1  0.5320920000000  0.4928220000000  0.4205260000000 1.0
C      1  0.5093850000000  0.4174220000000  0.5239270000000 1.0
C      1  0.4921410000000  0.5469620000000  0.4291660000000 1.0
C      1  0.5676990000000  0.5109280000000  0.4699620000000 1.0
C      1  0.4271580000000  0.5263330000000  0.5451120000000 1.0
C      1  0.4795860000000  0.4921560000000  0.4884840000000 1.0
C      1  0.5125730000000  0.4875940000000  0.4666110000000 1.0
C      1  0.4383930000000  0.4620360000000  0.5302690000000 1.0
C      1  0.4894350000000  0.4672200000000  0.4409320000000 1.0
C      1  0.4737140000000  0.5024650000000  0.4305890000000 1.0
C      1  0.5105000000000  0.4521890000000  0.3958580000000 1.0
C      1  0.4754140000000  0.5774260000000  0.4652130000000 1.0
C      1  0.5164210000000  0.4553120000000  0.5133290000000 1.0
C      1  0.4177250000000  0.4818340000000  0.5455420000000 1.0
C      1  0.4177490000000  0.5285240000000  0.4940190000000 1.0
C      1  0.4722630000000  0.4611420000000  0.4955220000000 1.0
C      1  0.4468640000000  0.5467240000000  0.5470430000000 1.0
C      1  0.5041630000000  0.4746720000000  0.5862190000000 1.0
C      1  0.5661960000000  0.4605080000000  0.4800510000000 1.0
C      1  0.4982010000000  0.5142750000000  0.4513880000000 1.0
C      1  0.4701390000000  0.4879670000000  0.4600250000000 1.0
C      1  0.5371090000000  0.4792080000000  0.5000220000000 1.0
C      1  0.5482770000000  0.5079980000000  0.4967340000000 1.0
C      1  0.4978850000000  0.5661650000000  0.4504810000000 1.0
END
