TITL C-2778425-5191-1440 -0.000771237642287006 125000 -187.204375407897 0 0 34 (C1) n - 1
REM
REM in /home/nfs/bkarasulu/CARBON/AIRSS/Generating-Clusters/REBO/Only-C1/SD-CG/HFTN-CG
REM
REM
REM
REM
REM
REM ./C.cell (11c1c37f851c82e70ff6c80c92926a4b)
REM
REM compiler GCC version 9.2.1 20190827 (Red Hat 9.2.1-1)
REM options -cpp -mtune=generic -march=x86-64 -g -O0 -fpre-include=/usr/include/finclude/math-vector-fortran.h
REM seed 390654152 -599492445 1581506533 -1887753058 871541245 49058057 1840611971 1473563601 -753479913 317534165 1338999343 -1580923216 -1120531007 1711315243 479743170 824699368 -19162170 -225580687 549874171 538529866 -1895114631 -518687884 1352386461 -232372530 -369222003 1145315445 344369406 848440911 1318307488 731471053 -425650799 -1007981457 603267262
REM
CELL 1.54180   50.00000   50.00000   50.00000   90.00000   90.00000   90.00000
LATT -1
SFAC C  
C      1  0.4624750000000  0.5124950000000  0.5317860000000 1.0
C      1  0.5027710000000  0.4948210000000  0.5730060000000 1.0
C      1  0.4152470000000  0.5183970000000  0.4305600000000 1.0
C      1  0.4836980000000  0.4547590000000  0.4626120000000 1.0
C      1  0.5457520000000  0.4684340000000  0.5123880000000 1.0
C      1  0.4540260000000  0.4935700000000  0.4515740000000 1.0
C      1  0.4924450000000  0.4708830000000  0.5647530000000 1.0
C      1  0.5169750000000  0.5263360000000  0.5116910000000 1.0
C      1  0.4410610000000  0.5366750000000  0.4701340000000 1.0
C      1  0.5535480000000  0.4945830000000  0.5055140000000 1.0
C      1  0.5368940000000  0.4383820000000  0.5194550000000 1.0
C      1  0.4328490000000  0.5605730000000  0.4797780000000 1.0
C      1  0.4915880000000  0.4663350000000  0.4908730000000 1.0
C      1  0.4846640000000  0.5240980000000  0.5008940000000 1.0
C      1  0.5475660000000  0.5009360000000  0.4777960000000 1.0
C      1  0.4350110000000  0.5164090000000  0.4489490000000 1.0
C      1  0.5450600000000  0.5180440000000  0.5212810000000 1.0
C      1  0.5174300000000  0.5146720000000  0.4803070000000 1.0
C      1  0.5174660000000  0.4572470000000  0.5022230000000 1.0
C      1  0.4511940000000  0.4400640000000  0.5030310000000 1.0
C      1  0.4919240000000  0.5264480000000  0.5341030000000 1.0
C      1  0.5028890000000  0.5197870000000  0.5620810000000 1.0
C      1  0.5423220000000  0.5283510000000  0.4622460000000 1.0
C      1  0.5634180000000  0.5389160000000  0.5261010000000 1.0
C      1  0.5739720000000  0.5583240000000  0.5100080000000 1.0
C      1  0.5416780000000  0.4153890000000  0.5315020000000 1.0
C      1  0.4915580000000  0.4961370000000  0.4830660000000 1.0
C      1  0.4691460000000  0.4598400000000  0.5105760000000 1.0
C      1  0.4640360000000  0.5144310000000  0.4762770000000 1.0
C      1  0.4767560000000  0.4639950000000  0.5430400000000 1.0
C      1  0.4595470000000  0.4861470000000  0.5283530000000 1.0
C      1  0.4662250000000  0.4691810000000  0.4473570000000 1.0
C      1  0.5712400000000  0.5638980000000  0.4834000000000 1.0
C      1  0.5575690000000  0.5514420000000  0.4632860000000 1.0
END
