TITL C-2778425-5191-1063 -0.006309272575889 125000 -435.485499619176 0 0 76 (C1) n - 1
REM
REM in /home/nfs/bkarasulu/CARBON/AIRSS/Generating-Clusters/REBO/Only-C1/SD-CG/HFTN-CG
REM
REM
REM
REM
REM
REM ./C.cell (11c1c37f851c82e70ff6c80c92926a4b)
REM
REM compiler GCC version 9.2.1 20190827 (Red Hat 9.2.1-1)
REM options -cpp -mtune=generic -march=x86-64 -g -O0 -fpre-include=/usr/include/finclude/math-vector-fortran.h
REM seed -1742912667 -1346013120 -1953070361 260970282 -578062097 -2093379201 -1140152131 1559171829 -877225468 -1955665642 1361617003 -663013952 1234481585 2130689250 -931958907 1483066001 -2094412166 -1706240934 1489995612 -1416011555 959832593 -1206070400 -1685614691 1429631920 -1063951063 1288629247 1038219995 -1136644068 1208948767 -317405161 -255848385 -1429041656 -1940377516
REM
CELL 1.54180   50.00000   50.00000   50.00000   90.00000   90.00000   90.00000
LATT -1
SFAC C  
C      1  0.4944550000000  0.5227680000000  0.4283810000000 1.0
C      1  0.5368850000000  0.4449780000000  0.4624610000000 1.0
C      1  0.4643340000000  0.5104190000000  0.5564630000000 1.0
C      1  0.4393200000000  0.5174120000000  0.5091320000000 1.0
C      1  0.4829350000000  0.5338570000000  0.5299250000000 1.0
C      1  0.4591540000000  0.5018500000000  0.4958810000000 1.0
C      1  0.4696920000000  0.4766290000000  0.5561940000000 1.0
C      1  0.5040620000000  0.4867850000000  0.4575250000000 1.0
C      1  0.5659730000000  0.4727480000000  0.5414900000000 1.0
C      1  0.4273550000000  0.5092750000000  0.4709340000000 1.0
C      1  0.4942370000000  0.5489830000000  0.4412970000000 1.0
C      1  0.5225060000000  0.4254750000000  0.4844800000000 1.0
C      1  0.5097730000000  0.5606640000000  0.4626590000000 1.0
C      1  0.5411690000000  0.5288930000000  0.5076910000000 1.0
C      1  0.5398990000000  0.4522670000000  0.5429800000000 1.0
C      1  0.5696760000000  0.4851220000000  0.5166110000000 1.0
C      1  0.5465010000000  0.4728810000000  0.5694130000000 1.0
C      1  0.5405560000000  0.5166070000000  0.4521200000000 1.0
C      1  0.4430530000000  0.5043790000000  0.4404620000000 1.0
C      1  0.5053050000000  0.5277590000000  0.4847010000000 1.0
C      1  0.5262770000000  0.5477900000000  0.5885980000000 1.0
C      1  0.5386070000000  0.5502290000000  0.5411920000000 1.0
C      1  0.4882690000000  0.4985550000000  0.5759530000000 1.0
C      1  0.5642430000000  0.4654470000000  0.4648500000000 1.0
C      1  0.4877980000000  0.4645160000000  0.4863680000000 1.0
C      1  0.4965980000000  0.4288960000000  0.5067880000000 1.0
C      1  0.5594880000000  0.5467130000000  0.4844750000000 1.0
C      1  0.4358030000000  0.4723260000000  0.5107340000000 1.0
C      1  0.5257580000000  0.4680670000000  0.5913790000000 1.0
C      1  0.4577150000000  0.5577030000000  0.4875420000000 1.0
C      1  0.4221250000000  0.4568810000000  0.4446230000000 1.0
C      1  0.5667520000000  0.5309770000000  0.5377100000000 1.0
C      1  0.4642900000000  0.5183820000000  0.4598390000000 1.0
C      1  0.5063160000000  0.4773160000000  0.5402070000000 1.0
C      1  0.5771290000000  0.5121920000000  0.5143750000000 1.0
C      1  0.5076840000000  0.5666430000000  0.4933120000000 1.0
C      1  0.5503070000000  0.4753000000000  0.4943560000000 1.0
C      1  0.5211930000000  0.5089000000000  0.4289390000000 1.0
C      1  0.4596620000000  0.5571870000000  0.5338090000000 1.0
C      1  0.4581790000000  0.5841550000000  0.5246550000000 1.0
C      1  0.4978130000000  0.4694300000000  0.4321920000000 1.0
C      1  0.4834360000000  0.5482710000000  0.5002140000000 1.0
C      1  0.4225570000000  0.4872900000000  0.4891890000000 1.0
C      1  0.4356010000000  0.5426650000000  0.5289040000000 1.0
C      1  0.5035910000000  0.4485350000000  0.4691620000000 1.0
C      1  0.5246680000000  0.5689460000000  0.5160680000000 1.0
C      1  0.4473710000000  0.4471570000000  0.5049730000000 1.0
C      1  0.5294250000000  0.4618390000000  0.5117070000000 1.0
C      1  0.4891650000000  0.5089730000000  0.4655420000000 1.0
C      1  0.5406120000000  0.5111910000000  0.5321570000000 1.0
C      1  0.4443220000000  0.4830810000000  0.5355530000000 1.0
C      1  0.4588350000000  0.4747370000000  0.4781270000000 1.0
C      1  0.4366470000000  0.5137080000000  0.5425820000000 1.0
C      1  0.5346930000000  0.4281050000000  0.5139030000000 1.0
C      1  0.5005130000000  0.4796930000000  0.5097900000000 1.0
C      1  0.4701810000000  0.5063110000000  0.4222930000000 1.0
C      1  0.5760720000000  0.5204140000000  0.4871540000000 1.0
C      1  0.4908460000000  0.4517650000000  0.5557410000000 1.0
C      1  0.4702520000000  0.4328960000000  0.5034500000000 1.0
C      1  0.5325410000000  0.4887700000000  0.4685520000000 1.0
C      1  0.4769820000000  0.4792330000000  0.4157160000000 1.0
C      1  0.5201730000000  0.5417120000000  0.5635200000000 1.0
C      1  0.5255280000000  0.4796720000000  0.4246220000000 1.0
C      1  0.4994600000000  0.4700340000000  0.5820350000000 1.0
C      1  0.5104440000000  0.4368920000000  0.5364150000000 1.0
C      1  0.4591250000000  0.4448210000000  0.4669370000000 1.0
C      1  0.4516710000000  0.5838060000000  0.4974340000000 1.0
C      1  0.5302100000000  0.4907380000000  0.5473670000000 1.0
C      1  0.4879270000000  0.5091940000000  0.5067700000000 1.0
C      1  0.4448180000000  0.5367950000000  0.4745340000000 1.0
C      1  0.4384360000000  0.4757060000000  0.4527190000000 1.0
C      1  0.5326780000000  0.5396080000000  0.4701880000000 1.0
C      1  0.5458430000000  0.4640540000000  0.4365470000000 1.0
C      1  0.5558480000000  0.5601560000000  0.5131880000000 1.0
C      1  0.5657560000000  0.4994950000000  0.4666470000000 1.0
C      1  0.4949310000000  0.5263820000000  0.5576010000000 1.0
END
