TITL C-2778427-5640-398 0.512627436001604 125000 -611.399630956404 0 0 105 (C1) n - 1
REM
REM in /home/nfs/bkarasulu/CARBON/AIRSS/Generating-Clusters/REBO/Only-C1/SD-CG/HFTN-CG
REM
REM
REM
REM
REM
REM ./C.cell (11c1c37f851c82e70ff6c80c92926a4b)
REM
REM compiler GCC version 9.2.1 20190827 (Red Hat 9.2.1-1)
REM options -cpp -mtune=generic -march=x86-64 -g -O0 -fpre-include=/usr/include/finclude/math-vector-fortran.h
REM seed -953198311 -258708083 -116072636 2017070198 -218925687 1883516701 919969112 261222317 691039424 71315956 -154168079 -290226129 -2027223209 1161906022 1024911472 1652716579 -287908214 -1397259759 -2124985245 -224315668 1731045589 -1481326926 1226268302 -1477211313 -1779228849 -429473650 -1779580852 -2081475943 2099326477 -1320106849 114752773 -1069144443 -1779423697
REM
CELL 1.54180   50.00000   50.00000   50.00000   90.00000   90.00000   90.00000
LATT -1
SFAC C  
C      1  0.4589510000000  0.4319150000000  0.4871500000000 1.0
C      1  0.4975300000000  0.4109620000000  0.5688200000000 1.0
C      1  0.4654900000000  0.4467670000000  0.5164210000000 1.0
C      1  0.5302580000000  0.4194920000000  0.5190610000000 1.0
C      1  0.5398410000000  0.4020150000000  0.4557700000000 1.0
C      1  0.5193940000000  0.5383070000000  0.5556550000000 1.0
C      1  0.4745210000000  0.5628490000000  0.5594410000000 1.0
C      1  0.4784490000000  0.4851430000000  0.5999380000000 1.0
C      1  0.4997870000000  0.4746630000000  0.5610240000000 1.0
C      1  0.4480800000000  0.5538690000000  0.5526940000000 1.0
C      1  0.5527170000000  0.4394440000000  0.5251620000000 1.0
C      1  0.5245880000000  0.5813970000000  0.4947390000000 1.0
C      1  0.5785980000000  0.5254710000000  0.5514750000000 1.0
C      1  0.4323380000000  0.5000610000000  0.5563920000000 1.0
C      1  0.4318720000000  0.4992810000000  0.4667350000000 1.0
C      1  0.4417940000000  0.5539570000000  0.5202830000000 1.0
C      1  0.4993200000000  0.4335900000000  0.4503870000000 1.0
C      1  0.4841900000000  0.5229740000000  0.4983870000000 1.0
C      1  0.4793280000000  0.4974950000000  0.4263470000000 1.0
C      1  0.5026670000000  0.5481580000000  0.4663440000000 1.0
C      1  0.4961490000000  0.5920130000000  0.4888590000000 1.0
C      1  0.5605990000000  0.3908230000000  0.4443380000000 1.0
C      1  0.4729000000000  0.4233230000000  0.5709690000000 1.0
C      1  0.4804330000000  0.5544020000000  0.5104140000000 1.0
C      1  0.5690840000000  0.5558180000000  0.4762710000000 1.0
C      1  0.5414030000000  0.4538510000000  0.5475590000000 1.0
C      1  0.4265520000000  0.5246440000000  0.5107740000000 1.0
C      1  0.5101510000000  0.5197740000000  0.5828440000000 1.0
C      1  0.4741590000000  0.5858060000000  0.5117340000000 1.0
C      1  0.5847960000000  0.4915530000000  0.5029130000000 1.0
C      1  0.5047890000000  0.5039140000000  0.5259090000000 1.0
C      1  0.4637780000000  0.5215890000000  0.4757300000000 1.0
C      1  0.5367930000000  0.5065440000000  0.5195510000000 1.0
C      1  0.5375880000000  0.5058660000000  0.5702880000000 1.0
C      1  0.5506930000000  0.4799060000000  0.5188650000000 1.0
C      1  0.5248920000000  0.4867860000000  0.4691600000000 1.0
C      1  0.4428040000000  0.5560590000000  0.4422050000000 1.0
C      1  0.5038020000000  0.4562520000000  0.5124190000000 1.0
C      1  0.4869590000000  0.4940000000000  0.5455250000000 1.0
C      1  0.5084870000000  0.5544760000000  0.4949440000000 1.0
C      1  0.4285750000000  0.4413320000000  0.4884120000000 1.0
C      1  0.4813720000000  0.4136410000000  0.5007060000000 1.0
C      1  0.5115820000000  0.5367070000000  0.5237710000000 1.0
C      1  0.5559390000000  0.4695330000000  0.4872300000000 1.0
C      1  0.4715150000000  0.5469010000000  0.4584480000000 1.0
C      1  0.4572860000000  0.4658290000000  0.5857100000000 1.0
C      1  0.5175550000000  0.5738550000000  0.5372760000000 1.0
C      1  0.5565810000000  0.4709620000000  0.4314860000000 1.0
C      1  0.5289550000000  0.5402920000000  0.4161250000000 1.0
C      1  0.5721610000000  0.4939780000000  0.5407140000000 1.0
C      1  0.5179110000000  0.4138380000000  0.4678460000000 1.0
C      1  0.4890980000000  0.5793420000000  0.5402150000000 1.0
C      1  0.4651290000000  0.5294080000000  0.5261980000000 1.0
C      1  0.4515910000000  0.4939400000000  0.4327760000000 1.0
C      1  0.4632950000000  0.5117650000000  0.5504200000000 1.0
C      1  0.4922950000000  0.4292970000000  0.5264170000000 1.0
C      1  0.5121930000000  0.4146820000000  0.5448530000000 1.0
C      1  0.5165890000000  0.4446320000000  0.4280740000000 1.0
C      1  0.4924260000000  0.5460030000000  0.5730500000000 1.0
C      1  0.5071980000000  0.4877270000000  0.5888100000000 1.0
C      1  0.5383190000000  0.4958650000000  0.4390480000000 1.0
C      1  0.4532500000000  0.5276270000000  0.4268580000000 1.0
C      1  0.4778140000000  0.4727400000000  0.4979450000000 1.0
C      1  0.5756570000000  0.5206100000000  0.5182810000000 1.0
C      1  0.4909780000000  0.4854460000000  0.4713920000000 1.0
C      1  0.5145650000000  0.5080960000000  0.4936980000000 1.0
C      1  0.4502020000000  0.4716510000000  0.4571790000000 1.0
C      1  0.4736870000000  0.4500060000000  0.4652950000000 1.0
C      1  0.5392360000000  0.4799640000000  0.5923340000000 1.0
C      1  0.5422410000000  0.4488210000000  0.4411270000000 1.0
C      1  0.4479840000000  0.4550000000000  0.5395140000000 1.0
C      1  0.5024270000000  0.5568900000000  0.4190930000000 1.0
C      1  0.4312830000000  0.5259970000000  0.4532200000000 1.0
C      1  0.5454150000000  0.5233320000000  0.5442370000000 1.0
C      1  0.4285730000000  0.4918660000000  0.5069270000000 1.0
C      1  0.4539270000000  0.4983140000000  0.5803990000000 1.0
C      1  0.5610850000000  0.5025110000000  0.4819960000000 1.0
C      1  0.5768430000000  0.4591060000000  0.5111450000000 1.0
C      1  0.5088830000000  0.4662510000000  0.4112690000000 1.0
C      1  0.5173470000000  0.4930460000000  0.4154300000000 1.0
C      1  0.5699720000000  0.5466550000000  0.4513140000000 1.0
C      1  0.4273580000000  0.5282950000000  0.5446820000000 1.0
C      1  0.5161220000000  0.5237860000000  0.4570050000000 1.0
C      1  0.5076010000000  0.5190590000000  0.4081530000000 1.0
C      1  0.4261230000000  0.4692740000000  0.4814410000000 1.0
C      1  0.5351730000000  0.4554630000000  0.4703090000000 1.0
C      1  0.5139990000000  0.4577310000000  0.5440280000000 1.0
C      1  0.4372820000000  0.5414530000000  0.4830190000000 1.0
C      1  0.4963060000000  0.5041540000000  0.4478410000000 1.0
C      1  0.5451860000000  0.5209630000000  0.4690880000000 1.0
C      1  0.4566830000000  0.4461400000000  0.5657560000000 1.0
C      1  0.4566820000000  0.4933880000000  0.4899970000000 1.0
C      1  0.4553080000000  0.5760230000000  0.4650870000000 1.0
C      1  0.4848280000000  0.5870580000000  0.4629380000000 1.0
C      1  0.5412160000000  0.5626780000000  0.5293230000000 1.0
C      1  0.4314280000000  0.4781270000000  0.5348800000000 1.0
C      1  0.5121270000000  0.4133440000000  0.4955640000000 1.0
C      1  0.5633410000000  0.5470730000000  0.5086360000000 1.0
C      1  0.5542940000000  0.4769020000000  0.5621880000000 1.0
C      1  0.4477640000000  0.5718050000000  0.4952910000000 1.0
C      1  0.5517150000000  0.5759500000000  0.4933430000000 1.0
C      1  0.5492460000000  0.5275460000000  0.4353360000000 1.0
C      1  0.5048510000000  0.4495210000000  0.4802330000000 1.0
C      1  0.5000160000000  0.5708360000000  0.4438360000000 1.0
C      1  0.4798930000000  0.5347670000000  0.4122890000000 1.0
END
