TITL C-2778434-4341-494 -1.41351773455207e-07 125000 -35.0646505491266 0 0 7 (Cs) n - 1
REM
REM in /home/nfs/bkarasulu/CARBON/AIRSS/Generating-Clusters/REBO/Only-C1/SD-CG/HFTN-CG
REM
REM
REM
REM
REM
REM ./C.cell (11c1c37f851c82e70ff6c80c92926a4b)
REM
REM compiler GCC version 9.2.1 20190827 (Red Hat 9.2.1-1)
REM options -cpp -mtune=generic -march=x86-64 -g -O0 -fpre-include=/usr/include/finclude/math-vector-fortran.h
REM seed -591765941 -1590148480 -595312646 -863548455 1223454176 -841385178 123431298 223608653 1031368786 -1788335557 -393115300 2079011513 -112055263 -1293867740 -527041907 -1255162854 -706117864 -1078721678 -290906137 1301843579 -882718807 -1915323399 2058082806 1352858948 884118104 -1053345492 1360540692 1926578900 1968879721 -745949829 1346333637 -380725215 -1779533054
REM
CELL 1.54180   50.00000   50.00000   50.00000   90.00000   90.00000   90.00000
LATT -1
SFAC C  
C      1  0.4919060000000  0.4813900000000  0.5339420000000 1.0
C      1  0.5003810000000  0.4963910000000  0.5136360000000 1.0
C      1  0.4835670000000  0.4666280000000  0.5539260000000 1.0
C      1  0.5092810000000  0.5121460000000  0.4923080000000 1.0
C      1  0.4983790000000  0.5080240000000  0.4668820000000 1.0
C      1  0.5283220000000  0.5312600000000  0.4962480000000 1.0
C      1  0.4881640000000  0.5041610000000  0.4430580000000 1.0
END
