TITL C-2778424-3986-607 -0.000141387326393185 125000 -545.941172566429 0 0 95 (C1) n - 1
REM
REM in /home/nfs/bkarasulu/CARBON/AIRSS/Generating-Clusters/REBO/Only-C1/SD-CG/HFTN-CG
REM
REM
REM
REM
REM
REM ./C.cell (11c1c37f851c82e70ff6c80c92926a4b)
REM
REM compiler GCC version 9.2.1 20190827 (Red Hat 9.2.1-1)
REM options -cpp -mtune=generic -march=x86-64 -g -O0 -fpre-include=/usr/include/finclude/math-vector-fortran.h
REM seed 1991758040 1753105717 989840369 -1269923993 -1506175096 -1202882743 -1695385812 -1435627133 581521458 1411139847 463680373 997434388 1289786949 1001311302 1528337254 -2107347859 -1321952627 1423795773 -1187940669 1518753871 -1395466180 1386502124 -553288296 -1253128000 1278837326 -1376698706 -202273261 1927277977 -1208025691 -1310626487 -1360065922 33860101 -1067319698
REM
CELL 1.54180   50.00000   50.00000   50.00000   90.00000   90.00000   90.00000
LATT -1
SFAC C  
C      1  0.5065980000000  0.4135780000000  0.5223470000000 1.0
C      1  0.5110970000000  0.4777640000000  0.4730180000000 1.0
C      1  0.4609880000000  0.4506970000000  0.5224900000000 1.0
C      1  0.5229740000000  0.4037720000000  0.4999460000000 1.0
C      1  0.5089650000000  0.4921120000000  0.5385430000000 1.0
C      1  0.5198340000000  0.5709210000000  0.4613460000000 1.0
C      1  0.5419680000000  0.5498710000000  0.5055370000000 1.0
C      1  0.4969560000000  0.5361740000000  0.4323390000000 1.0
C      1  0.5362360000000  0.4960090000000  0.5771480000000 1.0
C      1  0.5700730000000  0.5320650000000  0.4810270000000 1.0
C      1  0.5064000000000  0.4379140000000  0.4577580000000 1.0
C      1  0.4622710000000  0.5640160000000  0.4943650000000 1.0
C      1  0.5340480000000  0.5139550000000  0.5478450000000 1.0
C      1  0.5485830000000  0.5921040000000  0.5503700000000 1.0
C      1  0.5707640000000  0.5016530000000  0.4848940000000 1.0
C      1  0.4741030000000  0.4977770000000  0.5206620000000 1.0
C      1  0.5390740000000  0.4272880000000  0.4875380000000 1.0
C      1  0.4726580000000  0.5551610000000  0.4389830000000 1.0
C      1  0.4769630000000  0.4888050000000  0.5515990000000 1.0
C      1  0.4605370000000  0.4043110000000  0.4623130000000 1.0
C      1  0.5623650000000  0.4887910000000  0.5139660000000 1.0
C      1  0.4882730000000  0.5085380000000  0.4310420000000 1.0
C      1  0.4899730000000  0.5119910000000  0.4708440000000 1.0
C      1  0.5377330000000  0.4972710000000  0.4404300000000 1.0
C      1  0.4168680000000  0.4985140000000  0.4523470000000 1.0
C      1  0.5338780000000  0.4442940000000  0.4386910000000 1.0
C      1  0.4878320000000  0.5505610000000  0.5217600000000 1.0
C      1  0.4214130000000  0.4709850000000  0.5028630000000 1.0
C      1  0.5217770000000  0.4275290000000  0.5461310000000 1.0
C      1  0.5382490000000  0.4568720000000  0.4762890000000 1.0
C      1  0.5232940000000  0.5151340000000  0.4656520000000 1.0
C      1  0.4724730000000  0.5256410000000  0.5039020000000 1.0
C      1  0.5740830000000  0.5457430000000  0.5105470000000 1.0
C      1  0.4748020000000  0.4697570000000  0.5020860000000 1.0
C      1  0.4743950000000  0.4274840000000  0.4615210000000 1.0
C      1  0.5042920000000  0.4589050000000  0.4317120000000 1.0
C      1  0.4163260000000  0.4986540000000  0.5071430000000 1.0
C      1  0.5415240000000  0.5682130000000  0.5615750000000 1.0
C      1  0.4401860000000  0.4316320000000  0.4832490000000 1.0
C      1  0.4325330000000  0.4585470000000  0.5261790000000 1.0
C      1  0.4884470000000  0.4490690000000  0.4838360000000 1.0
C      1  0.4386850000000  0.5162270000000  0.4343980000000 1.0
C      1  0.4337010000000  0.5301910000000  0.4632540000000 1.0
C      1  0.5343910000000  0.5433260000000  0.5651220000000 1.0
C      1  0.5225100000000  0.5309160000000  0.5203810000000 1.0
C      1  0.4566400000000  0.4181790000000  0.4996230000000 1.0
C      1  0.4287870000000  0.5226920000000  0.5148270000000 1.0
C      1  0.4526590000000  0.5194150000000  0.5598640000000 1.0
C      1  0.4719880000000  0.5761380000000  0.4646380000000 1.0
C      1  0.5428930000000  0.4216600000000  0.4563330000000 1.0
C      1  0.4548510000000  0.4709150000000  0.4374000000000 1.0
C      1  0.4778880000000  0.4421040000000  0.5501670000000 1.0
C      1  0.5040590000000  0.4436990000000  0.5617080000000 1.0
C      1  0.4765950000000  0.5225230000000  0.5752740000000 1.0
C      1  0.4275640000000  0.4707830000000  0.5511000000000 1.0
C      1  0.4614880000000  0.4988790000000  0.4293850000000 1.0
C      1  0.4741510000000  0.4506100000000  0.4381970000000 1.0
C      1  0.5419560000000  0.4906120000000  0.4796170000000 1.0
C      1  0.4965920000000  0.4951150000000  0.5763420000000 1.0
C      1  0.5072510000000  0.4881960000000  0.4409570000000 1.0
C      1  0.4950800000000  0.5551490000000  0.4894400000000 1.0
C      1  0.5803850000000  0.5300670000000  0.5318800000000 1.0
C      1  0.4935310000000  0.5219680000000  0.5373070000000 1.0
C      1  0.4413650000000  0.5002850000000  0.4759940000000 1.0
C      1  0.5633210000000  0.5648820000000  0.4753500000000 1.0
C      1  0.4673060000000  0.4928850000000  0.4815730000000 1.0
C      1  0.4773920000000  0.4208990000000  0.5236900000000 1.0
C      1  0.5389860000000  0.4678530000000  0.5202410000000 1.0
C      1  0.5635040000000  0.5077350000000  0.5356790000000 1.0
C      1  0.4770740000000  0.5393890000000  0.4667800000000 1.0
C      1  0.5562360000000  0.5796640000000  0.5004060000000 1.0
C      1  0.4567700000000  0.5583440000000  0.5275870000000 1.0
C      1  0.5563040000000  0.5985570000000  0.5195450000000 1.0
C      1  0.4991360000000  0.5885440000000  0.4649810000000 1.0
C      1  0.5537910000000  0.5420340000000  0.4523490000000 1.0
C      1  0.5523110000000  0.4687030000000  0.4478100000000 1.0
C      1  0.5741520000000  0.4912740000000  0.4549000000000 1.0
C      1  0.4444560000000  0.5369390000000  0.4914180000000 1.0
C      1  0.5157930000000  0.5227170000000  0.5823200000000 1.0
C      1  0.5161000000000  0.4689870000000  0.5719690000000 1.0
C      1  0.5226870000000  0.5469510000000  0.4414490000000 1.0
C      1  0.4276730000000  0.4565110000000  0.4784580000000 1.0
C      1  0.5572350000000  0.6222150000000  0.5417630000000 1.0
C      1  0.4884090000000  0.5682590000000  0.6009770000000 1.0
C      1  0.5046080000000  0.5129910000000  0.5004500000000 1.0
C      1  0.4912030000000  0.5437470000000  0.5899020000000 1.0
C      1  0.4299760000000  0.4697620000000  0.4530330000000 1.0
C      1  0.5345210000000  0.4375970000000  0.5181660000000 1.0
C      1  0.5233640000000  0.3790310000000  0.4903730000000 1.0
C      1  0.5135790000000  0.4823350000000  0.5068300000000 1.0
C      1  0.5422460000000  0.4749530000000  0.5510990000000 1.0
C      1  0.4418940000000  0.5355000000000  0.5377950000000 1.0
C      1  0.5638190000000  0.5165750000000  0.4370820000000 1.0
C      1  0.5239740000000  0.5442700000000  0.4811550000000 1.0
C      1  0.4453610000000  0.4901770000000  0.5598230000000 1.0
END
