TITL C-2778426-5645-1001 0.000265620495868388 125000 -321.383723568909 0 0 55 (C1) n - 1
REM
REM in /home/nfs/bkarasulu/CARBON/AIRSS/Generating-Clusters/REBO/Only-C1/SD-CG/HFTN-CG
REM
REM
REM
REM
REM
REM ./C.cell (11c1c37f851c82e70ff6c80c92926a4b)
REM
REM compiler GCC version 9.2.1 20190827 (Red Hat 9.2.1-1)
REM options -cpp -mtune=generic -march=x86-64 -g -O0 -fpre-include=/usr/include/finclude/math-vector-fortran.h
REM seed -1111797367 363424642 115143357 355752296 1278164654 -1218076087 1274065323 -161104795 -781614320 358099604 -535734176 82743526 -425747727 887235563 -489095677 -72892354 392765144 -1594581418 65298338 -681759622 -111017584 -430408257 1481244149 -736233224 1338489447 -1431108194 611932344 -1766755157 -2100018254 173048820 -1070535410 -602848611 -1315945258
REM
CELL 1.54180   50.00000   50.00000   50.00000   90.00000   90.00000   90.00000
LATT -1
SFAC C  
C      1  0.4454340000000  0.4554070000000  0.5140400000000 1.0
C      1  0.4340590000000  0.4874910000000  0.5157190000000 1.0
C      1  0.5077370000000  0.5615350000000  0.5009790000000 1.0
C      1  0.5434220000000  0.5047150000000  0.4498600000000 1.0
C      1  0.4473160000000  0.5148570000000  0.4451710000000 1.0
C      1  0.5063390000000  0.5194700000000  0.4509770000000 1.0
C      1  0.4380100000000  0.5108910000000  0.5391800000000 1.0
C      1  0.4675800000000  0.4956680000000  0.4935720000000 1.0
C      1  0.4897010000000  0.5108020000000  0.5480360000000 1.0
C      1  0.4672970000000  0.4523480000000  0.4670740000000 1.0
C      1  0.5058250000000  0.4616220000000  0.4719770000000 1.0
C      1  0.5028110000000  0.4259900000000  0.5377570000000 1.0
C      1  0.5680640000000  0.5217240000000  0.5290630000000 1.0
C      1  0.4624890000000  0.5075780000000  0.4267540000000 1.0
C      1  0.4666200000000  0.4872580000000  0.5255700000000 1.0
C      1  0.5076260000000  0.5089260000000  0.4774440000000 1.0
C      1  0.5352910000000  0.4787560000000  0.4481420000000 1.0
C      1  0.4580210000000  0.4870730000000  0.5816110000000 1.0
C      1  0.5242530000000  0.4575330000000  0.5734990000000 1.0
C      1  0.5283880000000  0.5538850000000  0.4748920000000 1.0
C      1  0.4930910000000  0.5004730000000  0.4314430000000 1.0
C      1  0.5095860000000  0.4717160000000  0.4335250000000 1.0
C      1  0.5630020000000  0.4963060000000  0.5094130000000 1.0
C      1  0.4320830000000  0.4959600000000  0.4842070000000 1.0
C      1  0.4817010000000  0.5583500000000  0.4550580000000 1.0
C      1  0.4436950000000  0.4651770000000  0.4841340000000 1.0
C      1  0.4758870000000  0.4728660000000  0.4413820000000 1.0
C      1  0.4530160000000  0.5209700000000  0.4758540000000 1.0
C      1  0.4622880000000  0.5531040000000  0.5244490000000 1.0
C      1  0.4676740000000  0.5479560000000  0.4776880000000 1.0
C      1  0.4879620000000  0.4679070000000  0.5158570000000 1.0
C      1  0.5097520000000  0.5215840000000  0.5026650000000 1.0
C      1  0.5691760000000  0.5450120000000  0.5068260000000 1.0
C      1  0.5362500000000  0.4813860000000  0.5765320000000 1.0
C      1  0.5469900000000  0.4725300000000  0.5050590000000 1.0
C      1  0.5499920000000  0.5264580000000  0.5512050000000 1.0
C      1  0.5385990000000  0.4618280000000  0.4738240000000 1.0
C      1  0.5274700000000  0.5651110000000  0.5248190000000 1.0
C      1  0.5283540000000  0.4423820000000  0.4987530000000 1.0
C      1  0.5120590000000  0.4373510000000  0.5605110000000 1.0
C      1  0.5458580000000  0.5056020000000  0.5697880000000 1.0
C      1  0.5070050000000  0.5240630000000  0.5308650000000 1.0
C      1  0.5647870000000  0.5201680000000  0.4895280000000 1.0
C      1  0.5474130000000  0.5631980000000  0.5016040000000 1.0
C      1  0.5267950000000  0.5419460000000  0.5426550000000 1.0
C      1  0.5136510000000  0.4698230000000  0.5114220000000 1.0
C      1  0.5015720000000  0.4307320000000  0.5109370000000 1.0
C      1  0.4935520000000  0.4443670000000  0.4467020000000 1.0
C      1  0.4922230000000  0.4847430000000  0.4798930000000 1.0
C      1  0.4422760000000  0.5372270000000  0.5339390000000 1.0
C      1  0.5465390000000  0.5258440000000  0.4682260000000 1.0
C      1  0.4797350000000  0.5557100000000  0.5024020000000 1.0
C      1  0.4621380000000  0.4974320000000  0.5566650000000 1.0
C      1  0.5078800000000  0.5475890000000  0.4517140000000 1.0
C      1  0.4736700000000  0.4436000000000  0.4991380000000 1.0
END
