TITL C-2778424-3986-2 0.00392130960456613 125000 -1145.49066654182 0 0 199 (C1) n - 1
REM
REM in /home/nfs/bkarasulu/CARBON/AIRSS/Generating-Clusters/REBO/Only-C1/SD-CG/HFTN-CG
REM
REM
REM
REM
REM
REM ./C.cell (11c1c37f851c82e70ff6c80c92926a4b)
REM
REM compiler GCC version 9.2.1 20190827 (Red Hat 9.2.1-1)
REM options -cpp -mtune=generic -march=x86-64 -g -O0 -fpre-include=/usr/include/finclude/math-vector-fortran.h
REM seed -638323076 -890778070 -1940884966 -1343599742 1596255829 -994593439 -576935468 -610954511 -2005192133 -460296934 870809136 1354619132 240066412 1048941312 -1375773338 -1891151070 -996006759 209757425 628669897 1469851650 -1619530310 240386180 673172609 673472398 -2139049128 -1612664199 -164590591 -1999362020 117964666 -242920449 511057168 428607152 -261810736
REM
CELL 1.54180   50.00000   50.00000   50.00000   90.00000   90.00000   90.00000
LATT -1
SFAC C  
C      1  0.4844760000000  0.4781560000000  0.4349410000000 1.0
C      1  0.5023690000000  0.4082300000000  0.4319300000000 1.0
C      1  0.5592580000000  0.4564160000000  0.4407150000000 1.0
C      1  0.5278540000000  0.6102380000000  0.5087120000000 1.0
C      1  0.4360110000000  0.4250240000000  0.4618020000000 1.0
C      1  0.4912980000000  0.5400800000000  0.4835630000000 1.0
C      1  0.4604600000000  0.4637500000000  0.5492380000000 1.0
C      1  0.5197020000000  0.5787720000000  0.5761280000000 1.0
C      1  0.5307040000000  0.4165090000000  0.5588640000000 1.0
C      1  0.4478080000000  0.5062240000000  0.4686060000000 1.0
C      1  0.5155680000000  0.5161390000000  0.6118870000000 1.0
C      1  0.5685180000000  0.4458560000000  0.5824080000000 1.0
C      1  0.3848320000000  0.4677280000000  0.4423390000000 1.0
C      1  0.5120130000000  0.5995290000000  0.5342770000000 1.0
C      1  0.4855590000000  0.4537440000000  0.3612690000000 1.0
C      1  0.5135760000000  0.5438850000000  0.5547040000000 1.0
C      1  0.5119330000000  0.5307990000000  0.4313170000000 1.0
C      1  0.4337240000000  0.5087410000000  0.5891040000000 1.0
C      1  0.4101430000000  0.5420420000000  0.4605870000000 1.0
C      1  0.5325090000000  0.5370080000000  0.5201880000000 1.0
C      1  0.4794310000000  0.5273340000000  0.4318430000000 1.0
C      1  0.6107670000000  0.4850660000000  0.5122400000000 1.0
C      1  0.4375750000000  0.4483690000000  0.4156600000000 1.0
C      1  0.4572520000000  0.4133630000000  0.4427160000000 1.0
C      1  0.5422460000000  0.5302230000000  0.5960850000000 1.0
C      1  0.4102690000000  0.4449120000000  0.4630070000000 1.0
C      1  0.6123610000000  0.5415230000000  0.4979460000000 1.0
C      1  0.4536800000000  0.5716630000000  0.5782110000000 1.0
C      1  0.4318350000000  0.4617320000000  0.4455030000000 1.0
C      1  0.5717380000000  0.4881210000000  0.5795980000000 1.0
C      1  0.5637770000000  0.5947340000000  0.5157690000000 1.0
C      1  0.4600830000000  0.4449400000000  0.4678580000000 1.0
C      1  0.4813190000000  0.4005800000000  0.4508980000000 1.0
C      1  0.4721180000000  0.3984740000000  0.5403770000000 1.0
C      1  0.4523740000000  0.5213810000000  0.5160700000000 1.0
C      1  0.4659940000000  0.5488680000000  0.4012380000000 1.0
C      1  0.5700620000000  0.5715460000000  0.5803960000000 1.0
C      1  0.4335100000000  0.5392520000000  0.4857510000000 1.0
C      1  0.4764730000000  0.4445570000000  0.5263380000000 1.0
C      1  0.4577880000000  0.5778960000000  0.4419780000000 1.0
C      1  0.5759280000000  0.5124550000000  0.5094950000000 1.0
C      1  0.5470230000000  0.5445840000000  0.5475320000000 1.0
C      1  0.4756780000000  0.5179240000000  0.3993740000000 1.0
C      1  0.4758200000000  0.4708760000000  0.4943620000000 1.0
C      1  0.4513300000000  0.5223010000000  0.4443650000000 1.0
C      1  0.5953890000000  0.4725440000000  0.4358380000000 1.0
C      1  0.4176140000000  0.4804110000000  0.5429010000000 1.0
C      1  0.4322650000000  0.5835510000000  0.4608480000000 1.0
C      1  0.5003970000000  0.5090280000000  0.3835750000000 1.0
C      1  0.5124880000000  0.3851360000000  0.4727980000000 1.0
C      1  0.5522800000000  0.4810970000000  0.4596540000000 1.0
C      1  0.4167940000000  0.4987450000000  0.5662710000000 1.0
C      1  0.4984870000000  0.5525890000000  0.4076990000000 1.0
C      1  0.4858470000000  0.5600710000000  0.4384660000000 1.0
C      1  0.5455230000000  0.5096180000000  0.5131780000000 1.0
C      1  0.4200070000000  0.5702060000000  0.4871320000000 1.0
C      1  0.5732880000000  0.4823920000000  0.5256180000000 1.0
C      1  0.5311990000000  0.4112030000000  0.4346420000000 1.0
C      1  0.3934850000000  0.4983190000000  0.4838720000000 1.0
C      1  0.5814260000000  0.4169920000000  0.4650980000000 1.0
C      1  0.4311060000000  0.5121610000000  0.4203490000000 1.0
C      1  0.5083810000000  0.4643840000000  0.4856620000000 1.0
C      1  0.4627590000000  0.5240900000000  0.6086660000000 1.0
C      1  0.4208370000000  0.5299890000000  0.5579570000000 1.0
C      1  0.4650420000000  0.4908360000000  0.6017230000000 1.0
C      1  0.6172810000000  0.5184240000000  0.5113210000000 1.0
C      1  0.5627180000000  0.4793570000000  0.4871710000000 1.0
C      1  0.4964940000000  0.4888960000000  0.6146200000000 1.0
C      1  0.4656080000000  0.4843260000000  0.5227320000000 1.0
C      1  0.4501790000000  0.4515310000000  0.5058820000000 1.0
C      1  0.5658550000000  0.5191040000000  0.5741540000000 1.0
C      1  0.3905280000000  0.4708380000000  0.4730230000000 1.0
C      1  0.4867040000000  0.5747720000000  0.5778740000000 1.0
C      1  0.5272230000000  0.5658670000000  0.4202390000000 1.0
C      1  0.4798860000000  0.5493270000000  0.5581180000000 1.0
C      1  0.5426340000000  0.4746510000000  0.5912100000000 1.0
C      1  0.4012070000000  0.5418040000000  0.5090510000000 1.0
C      1  0.4104030000000  0.4485460000000  0.5495480000000 1.0
C      1  0.4827600000000  0.4239800000000  0.5873330000000 1.0
C      1  0.5104940000000  0.5934930000000  0.4319590000000 1.0
C      1  0.4486050000000  0.5520130000000  0.4261050000000 1.0
C      1  0.5501620000000  0.5572460000000  0.4440600000000 1.0
C      1  0.5710480000000  0.4964970000000  0.4374290000000 1.0
C      1  0.5311040000000  0.4058850000000  0.4739590000000 1.0
C      1  0.5944750000000  0.4767830000000  0.4855340000000 1.0
C      1  0.4248140000000  0.5602820000000  0.5664710000000 1.0
C      1  0.5556510000000  0.4041040000000  0.4558140000000 1.0
C      1  0.4989840000000  0.5317620000000  0.5257760000000 1.0
C      1  0.5437780000000  0.5953520000000  0.5383020000000 1.0
C      1  0.4616930000000  0.5913890000000  0.5519210000000 1.0
C      1  0.4603760000000  0.4292550000000  0.4188920000000 1.0
C      1  0.4612380000000  0.4951590000000  0.4167960000000 1.0
C      1  0.4340230000000  0.4934670000000  0.5194200000000 1.0
C      1  0.5272980000000  0.4395050000000  0.4786660000000 1.0
C      1  0.5122200000000  0.5667460000000  0.4875240000000 1.0
C      1  0.5329750000000  0.4403350000000  0.4472050000000 1.0
C      1  0.4319670000000  0.4811410000000  0.4106150000000 1.0
C      1  0.4944970000000  0.4561830000000  0.3893850000000 1.0
C      1  0.4823130000000  0.6128250000000  0.4804210000000 1.0
C      1  0.4414850000000  0.5419760000000  0.5899690000000 1.0
C      1  0.3702630000000  0.5068930000000  0.5041230000000 1.0
C      1  0.5736750000000  0.5239060000000  0.5420960000000 1.0
C      1  0.5432150000000  0.4317010000000  0.5055280000000 1.0
C      1  0.5357590000000  0.5340460000000  0.4100560000000 1.0
C      1  0.4981900000000  0.6024660000000  0.5635450000000 1.0
C      1  0.5903970000000  0.5161760000000  0.4567900000000 1.0
C      1  0.5786260000000  0.5274340000000  0.4818420000000 1.0
C      1  0.5182890000000  0.4095200000000  0.5114900000000 1.0
C      1  0.4565970000000  0.5846290000000  0.4811830000000 1.0
C      1  0.5562140000000  0.6141380000000  0.4942240000000 1.0
C      1  0.5723810000000  0.5751190000000  0.4626210000000 1.0
C      1  0.5086620000000  0.6146170000000  0.4587670000000 1.0
C      1  0.4734150000000  0.6206190000000  0.5125690000000 1.0
C      1  0.5462680000000  0.5752780000000  0.5602630000000 1.0
C      1  0.5095450000000  0.4557080000000  0.5590200000000 1.0
C      1  0.4179150000000  0.5405160000000  0.4334670000000 1.0
C      1  0.5675320000000  0.4397010000000  0.5361530000000 1.0
C      1  0.4675270000000  0.5172670000000  0.4908410000000 1.0
C      1  0.4067850000000  0.4627950000000  0.4240460000000 1.0
C      1  0.4780740000000  0.5538400000000  0.5184650000000 1.0
C      1  0.4538950000000  0.5533770000000  0.5399870000000 1.0
C      1  0.5708990000000  0.5465250000000  0.5923990000000 1.0
C      1  0.5474910000000  0.5027070000000  0.4188620000000 1.0
C      1  0.5020390000000  0.4520910000000  0.4481350000000 1.0
C      1  0.5556480000000  0.4876080000000  0.5512160000000 1.0
C      1  0.5087570000000  0.4807350000000  0.5372990000000 1.0
C      1  0.4954190000000  0.4177570000000  0.4875330000000 1.0
C      1  0.4504950000000  0.6045210000000  0.5031430000000 1.0
C      1  0.4020670000000  0.4476120000000  0.4951260000000 1.0
C      1  0.5044310000000  0.5106280000000  0.4726750000000 1.0
C      1  0.4297360000000  0.4273250000000  0.4930910000000 1.0
C      1  0.5130530000000  0.5026210000000  0.5144090000000 1.0
C      1  0.5691540000000  0.4540880000000  0.5071140000000 1.0
C      1  0.5162370000000  0.5477980000000  0.5877360000000 1.0
C      1  0.4788170000000  0.4157990000000  0.5128370000000 1.0
C      1  0.5101330000000  0.5620160000000  0.4561410000000 1.0
C      1  0.5386230000000  0.5555920000000  0.4980980000000 1.0
C      1  0.5048950000000  0.4566510000000  0.5173650000000 1.0
C      1  0.3943330000000  0.5317640000000  0.4841970000000 1.0
C      1  0.4622350000000  0.5565690000000  0.4901210000000 1.0
C      1  0.4533000000000  0.4167080000000  0.5616250000000 1.0
C      1  0.4259930000000  0.5384270000000  0.5269390000000 1.0
C      1  0.5204500000000  0.4987880000000  0.5845230000000 1.0
C      1  0.5481050000000  0.4548020000000  0.4131980000000 1.0
C      1  0.5053830000000  0.4069520000000  0.5411570000000 1.0
C      1  0.5128550000000  0.4662910000000  0.6062150000000 1.0
C      1  0.5371540000000  0.4787010000000  0.5093310000000 1.0
C      1  0.5315160000000  0.3813970000000  0.5075450000000 1.0
C      1  0.4207180000000  0.4560000000000  0.5191260000000 1.0
C      1  0.5186760000000  0.4523350000000  0.4118880000000 1.0
C      1  0.4866980000000  0.4369810000000  0.4665840000000 1.0
C      1  0.4294020000000  0.5766360000000  0.5375980000000 1.0
C      1  0.4912000000000  0.4318660000000  0.4122930000000 1.0
C      1  0.4831030000000  0.4884300000000  0.4665930000000 1.0
C      1  0.5548580000000  0.4123170000000  0.5443460000000 1.0
C      1  0.4932880000000  0.5006630000000  0.5698080000000 1.0
C      1  0.5255910000000  0.5216690000000  0.3807330000000 1.0
C      1  0.4590590000000  0.3904600000000  0.5096700000000 1.0
C      1  0.5944020000000  0.4799220000000  0.5554160000000 1.0
C      1  0.4024900000000  0.4309150000000  0.5663510000000 1.0
C      1  0.4520980000000  0.4432920000000  0.5706840000000 1.0
C      1  0.4800130000000  0.3882950000000  0.4827550000000 1.0
C      1  0.4491340000000  0.5149290000000  0.5494940000000 1.0
C      1  0.5363590000000  0.4444040000000  0.5766570000000 1.0
C      1  0.4809300000000  0.5983320000000  0.4488370000000 1.0
C      1  0.6024720000000  0.5059750000000  0.5382230000000 1.0
C      1  0.5107840000000  0.5972500000000  0.4879560000000 1.0
C      1  0.5510670000000  0.5396650000000  0.4732200000000 1.0
C      1  0.4924570000000  0.5382340000000  0.6081840000000 1.0
C      1  0.5964690000000  0.4444440000000  0.4795840000000 1.0
C      1  0.4978230000000  0.4850900000000  0.4044340000000 1.0
C      1  0.4812950000000  0.5089830000000  0.5401860000000 1.0
C      1  0.4245070000000  0.5068610000000  0.4915490000000 1.0
C      1  0.5871550000000  0.4441140000000  0.4474310000000 1.0
C      1  0.4325180000000  0.4009650000000  0.5049100000000 1.0
C      1  0.5659480000000  0.5695240000000  0.5041360000000 1.0
C      1  0.5877190000000  0.5584740000000  0.4850960000000 1.0
C      1  0.5582460000000  0.6024350000000  0.4685490000000 1.0
C      1  0.6108240000000  0.4221920000000  0.5095040000000 1.0
C      1  0.5980890000000  0.4062710000000  0.4911100000000 1.0
C      1  0.4989690000000  0.4483580000000  0.5894940000000 1.0
C      1  0.4273720000000  0.5864030000000  0.5108430000000 1.0
C      1  0.5499990000000  0.5054450000000  0.3863930000000 1.0
C      1  0.4532820000000  0.4597700000000  0.5939710000000 1.0
C      1  0.4852440000000  0.5803200000000  0.5329990000000 1.0
C      1  0.5351010000000  0.5855370000000  0.4537520000000 1.0
C      1  0.6035520000000  0.4898600000000  0.4595290000000 1.0
C      1  0.5365790000000  0.4532990000000  0.5296540000000 1.0
C      1  0.4788900000000  0.5272570000000  0.5791170000000 1.0
C      1  0.6126460000000  0.4512490000000  0.5089680000000 1.0
C      1  0.4612500000000  0.4890670000000  0.5679460000000 1.0
C      1  0.5229430000000  0.5328860000000  0.4601790000000 1.0
C      1  0.5232930000000  0.4828950000000  0.4271380000000 1.0
C      1  0.5218970000000  0.4838900000000  0.4611220000000 1.0
C      1  0.4530440000000  0.4754320000000  0.4618860000000 1.0
C      1  0.5828300000000  0.4513620000000  0.5590300000000 1.0
C      1  0.4897930000000  0.4311430000000  0.5547800000000 1.0
C      1  0.5300570000000  0.4898340000000  0.5564120000000 1.0
C      1  0.4773810000000  0.6181250000000  0.5411410000000 1.0
END
