TITL C-2778435-5768-680 0.00281503190647869 125000 -1074.91442412378 0 0 188 (C1) n - 1
REM
REM in /home/nfs/bkarasulu/CARBON/AIRSS/Generating-Clusters/REBO/Only-C1/SD-CG/HFTN-CG
REM
REM
REM
REM
REM
REM ./C.cell (11c1c37f851c82e70ff6c80c92926a4b)
REM
REM compiler GCC version 9.2.1 20190827 (Red Hat 9.2.1-1)
REM options -cpp -mtune=generic -march=x86-64 -g -O0 -fpre-include=/usr/include/finclude/math-vector-fortran.h
REM seed -1669202042 -1026873884 47602762 -523181282 -664701226 831048247 -851338676 1840317519 1986650853 -1290189882 1865266555 236307673 -398293607 -1248548133 932980624 534987644 -187455775 -1927836110 -16540471 -858397935 600285706 -1368544463 -1580296443 1757353534 -415567543 529414692 1560500564 -1831066128 1101948739 -1458014928 -1027273257 1321193398 -1365005840
REM
CELL 1.54180   50.00000   50.00000   50.00000   90.00000   90.00000   90.00000
LATT -1
SFAC C  
C      1  0.5130910000000  0.6048110000000  0.5355460000000 1.0
C      1  0.4790300000000  0.5472830000000  0.4073830000000 1.0
C      1  0.5594430000000  0.4887950000000  0.4910070000000 1.0
C      1  0.4358730000000  0.5697690000000  0.4451260000000 1.0
C      1  0.4111270000000  0.5422510000000  0.4814730000000 1.0
C      1  0.4927050000000  0.5263730000000  0.3884600000000 1.0
C      1  0.5223130000000  0.4325780000000  0.5806440000000 1.0
C      1  0.6015650000000  0.4524790000000  0.5754750000000 1.0
C      1  0.5890600000000  0.5426140000000  0.4724330000000 1.0
C      1  0.4342850000000  0.5106320000000  0.5634380000000 1.0
C      1  0.5948800000000  0.4607460000000  0.5500630000000 1.0
C      1  0.4186420000000  0.4879010000000  0.4181940000000 1.0
C      1  0.3968000000000  0.5398740000000  0.5294270000000 1.0
C      1  0.5102680000000  0.5820090000000  0.6438400000000 1.0
C      1  0.4416300000000  0.4926900000000  0.5103080000000 1.0
C      1  0.4691940000000  0.4060670000000  0.4316220000000 1.0
C      1  0.5167230000000  0.5598620000000  0.5917430000000 1.0
C      1  0.6221310000000  0.4837030000000  0.5189080000000 1.0
C      1  0.3917910000000  0.4830090000000  0.4565950000000 1.0
C      1  0.4563030000000  0.5138370000000  0.5407260000000 1.0
C      1  0.4203310000000  0.4652910000000  0.5406620000000 1.0
C      1  0.4286530000000  0.5099640000000  0.4424160000000 1.0
C      1  0.4664810000000  0.4463470000000  0.4012660000000 1.0
C      1  0.5506480000000  0.4627650000000  0.5722030000000 1.0
C      1  0.6085550000000  0.4813860000000  0.4602110000000 1.0
C      1  0.4794180000000  0.5605770000000  0.5233850000000 1.0
C      1  0.5815950000000  0.5115920000000  0.4964390000000 1.0
C      1  0.5527830000000  0.4909570000000  0.5860830000000 1.0
C      1  0.4762920000000  0.3910660000000  0.5140780000000 1.0
C      1  0.5107130000000  0.4337540000000  0.4106100000000 1.0
C      1  0.5732440000000  0.5082290000000  0.5465200000000 1.0
C      1  0.5134790000000  0.4890340000000  0.5224490000000 1.0
C      1  0.4901810000000  0.5531530000000  0.4940160000000 1.0
C      1  0.4650490000000  0.5346820000000  0.4903370000000 1.0
C      1  0.5129010000000  0.4241610000000  0.5522030000000 1.0
C      1  0.4908770000000  0.6074320000000  0.4803480000000 1.0
C      1  0.5098280000000  0.4340470000000  0.4586910000000 1.0
C      1  0.4853990000000  0.4871050000000  0.5014810000000 1.0
C      1  0.5734900000000  0.5740260000000  0.5000660000000 1.0
C      1  0.5500450000000  0.4325140000000  0.5642670000000 1.0
C      1  0.4416610000000  0.4732670000000  0.4906590000000 1.0
C      1  0.5716740000000  0.4606110000000  0.4353190000000 1.0
C      1  0.4852810000000  0.5572050000000  0.4471860000000 1.0
C      1  0.4779740000000  0.4188030000000  0.5338690000000 1.0
C      1  0.5327600000000  0.4471800000000  0.5058050000000 1.0
C      1  0.5236630000000  0.5333800000000  0.4713210000000 1.0
C      1  0.4136740000000  0.4940270000000  0.5543130000000 1.0
C      1  0.5344150000000  0.4803380000000  0.5345970000000 1.0
C      1  0.5725380000000  0.5271820000000  0.5212300000000 1.0
C      1  0.5188650000000  0.5106160000000  0.3985520000000 1.0
C      1  0.4670180000000  0.5262870000000  0.4299710000000 1.0
C      1  0.4546310000000  0.4999810000000  0.4574300000000 1.0
C      1  0.4065840000000  0.5101340000000  0.5047190000000 1.0
C      1  0.5176780000000  0.5892230000000  0.4339790000000 1.0
C      1  0.4537430000000  0.4281580000000  0.4511070000000 1.0
C      1  0.5544030000000  0.5750290000000  0.4714500000000 1.0
C      1  0.5923570000000  0.5499770000000  0.5474520000000 1.0
C      1  0.4468610000000  0.4405260000000  0.4196510000000 1.0
C      1  0.5271600000000  0.5533410000000  0.5389900000000 1.0
C      1  0.4962880000000  0.4587960000000  0.5656120000000 1.0
C      1  0.4909320000000  0.4783320000000  0.4259800000000 1.0
C      1  0.5441400000000  0.5891110000000  0.5335030000000 1.0
C      1  0.5200590000000  0.6129340000000  0.4935010000000 1.0
C      1  0.4971550000000  0.5170000000000  0.5663400000000 1.0
C      1  0.5438040000000  0.5390860000000  0.5179060000000 1.0
C      1  0.3931350000000  0.5261510000000  0.4336990000000 1.0
C      1  0.3746820000000  0.4798160000000  0.4774910000000 1.0
C      1  0.5351810000000  0.4790690000000  0.4553870000000 1.0
C      1  0.6124160000000  0.5240410000000  0.4888020000000 1.0
C      1  0.5460190000000  0.5174200000000  0.6065310000000 1.0
C      1  0.6225970000000  0.5055040000000  0.5374840000000 1.0
C      1  0.5264130000000  0.4965680000000  0.4271930000000 1.0
C      1  0.5091110000000  0.5085340000000  0.4880080000000 1.0
C      1  0.4451280000000  0.3938420000000  0.5247080000000 1.0
C      1  0.5268360000000  0.3944640000000  0.5009620000000 1.0
C      1  0.5779690000000  0.4277960000000  0.5252100000000 1.0
C      1  0.4366080000000  0.5575350000000  0.4745700000000 1.0
C      1  0.4026540000000  0.4525700000000  0.5150360000000 1.0
C      1  0.5036650000000  0.4391580000000  0.4898720000000 1.0
C      1  0.5644110000000  0.4575870000000  0.5151000000000 1.0
C      1  0.5080400000000  0.5733910000000  0.5231780000000 1.0
C      1  0.4780240000000  0.4733070000000  0.5319810000000 1.0
C      1  0.5544710000000  0.5180620000000  0.5675690000000 1.0
C      1  0.4209000000000  0.4303550000000  0.5041550000000 1.0
C      1  0.4679390000000  0.6208010000000  0.4286790000000 1.0
C      1  0.5456480000000  0.5429540000000  0.4220880000000 1.0
C      1  0.4220240000000  0.4787990000000  0.4664660000000 1.0
C      1  0.4424400000000  0.5311690000000  0.4083730000000 1.0
C      1  0.4144060000000  0.5113930000000  0.4732830000000 1.0
C      1  0.5023310000000  0.5182220000000  0.5195660000000 1.0
C      1  0.5195290000000  0.4949560000000  0.6067380000000 1.0
C      1  0.4899310000000  0.5752460000000  0.4717250000000 1.0
C      1  0.3920010000000  0.4981910000000  0.4324150000000 1.0
C      1  0.5760840000000  0.4214750000000  0.5543150000000 1.0
C      1  0.4895080000000  0.4314980000000  0.4336700000000 1.0
C      1  0.4711190000000  0.5744220000000  0.5527790000000 1.0
C      1  0.5441540000000  0.4639500000000  0.4812860000000 1.0
C      1  0.4756680000000  0.5034520000000  0.3811540000000 1.0
C      1  0.5391140000000  0.5110730000000  0.5005990000000 1.0
C      1  0.5020580000000  0.4377160000000  0.6025350000000 1.0
C      1  0.6105120000000  0.4592060000000  0.5263700000000 1.0
C      1  0.5220530000000  0.5593700000000  0.4886390000000 1.0
C      1  0.4755590000000  0.5129840000000  0.5923760000000 1.0
C      1  0.5310740000000  0.5883610000000  0.5041320000000 1.0
C      1  0.5660010000000  0.4754280000000  0.5443640000000 1.0
C      1  0.5277080000000  0.4611110000000  0.4089340000000 1.0
C      1  0.5592140000000  0.5459740000000  0.4883780000000 1.0
C      1  0.4941760000000  0.4453830000000  0.5351360000000 1.0
C      1  0.4443140000000  0.4002640000000  0.5521990000000 1.0
C      1  0.3885200000000  0.4818990000000  0.5044640000000 1.0
C      1  0.4274500000000  0.5256120000000  0.5270930000000 1.0
C      1  0.5859660000000  0.4364430000000  0.4636820000000 1.0
C      1  0.4614670000000  0.5899150000000  0.4353190000000 1.0
C      1  0.5235740000000  0.5072820000000  0.5755050000000 1.0
C      1  0.4588970000000  0.5397180000000  0.4576370000000 1.0
C      1  0.4528300000000  0.5644250000000  0.5024510000000 1.0
C      1  0.5161300000000  0.4603150000000  0.4400110000000 1.0
C      1  0.4464370000000  0.4486350000000  0.5856700000000 1.0
C      1  0.6022440000000  0.5225620000000  0.5472360000000 1.0
C      1  0.4805900000000  0.4740550000000  0.3954390000000 1.0
C      1  0.4769960000000  0.4600530000000  0.4474280000000 1.0
C      1  0.5863170000000  0.5035040000000  0.4652880000000 1.0
C      1  0.3861100000000  0.4732670000000  0.5365150000000 1.0
C      1  0.5190230000000  0.5342540000000  0.6140360000000 1.0
C      1  0.4719470000000  0.4792190000000  0.5892850000000 1.0
C      1  0.5973560000000  0.4399080000000  0.5017310000000 1.0
C      1  0.4954140000000  0.5084560000000  0.4308450000000 1.0
C      1  0.5763490000000  0.4172350000000  0.4870470000000 1.0
C      1  0.5373300000000  0.4204680000000  0.4615060000000 1.0
C      1  0.5705070000000  0.5725900000000  0.5339340000000 1.0
C      1  0.4972440000000  0.5289400000000  0.4558820000000 1.0
C      1  0.4395580000000  0.4760150000000  0.5974040000000 1.0
C      1  0.4039940000000  0.5819000000000  0.5064020000000 1.0
C      1  0.4434150000000  0.5064810000000  0.5894020000000 1.0
C      1  0.5886050000000  0.4722870000000  0.4956760000000 1.0
C      1  0.4433190000000  0.5620820000000  0.5616340000000 1.0
C      1  0.4952350000000  0.5732720000000  0.5721500000000 1.0
C      1  0.4865550000000  0.6063220000000  0.5142940000000 1.0
C      1  0.3959740000000  0.5554340000000  0.5021460000000 1.0
C      1  0.5805210000000  0.5304020000000  0.4444780000000 1.0
C      1  0.4252180000000  0.4577820000000  0.4181140000000 1.0
C      1  0.5185890000000  0.5425970000000  0.4054810000000 1.0
C      1  0.4771030000000  0.5052200000000  0.4661330000000 1.0
C      1  0.5571230000000  0.4996920000000  0.4525920000000 1.0
C      1  0.5444060000000  0.4271950000000  0.5307870000000 1.0
C      1  0.5146180000000  0.4142130000000  0.3932360000000 1.0
C      1  0.4867870000000  0.4571770000000  0.6043790000000 1.0
C      1  0.4902660000000  0.6054290000000  0.4462430000000 1.0
C      1  0.5479350000000  0.4062980000000  0.4846630000000 1.0
C      1  0.3918210000000  0.5070700000000  0.5352490000000 1.0
C      1  0.4712480000000  0.4346850000000  0.4796810000000 1.0
C      1  0.5469460000000  0.5719360000000  0.4382760000000 1.0
C      1  0.5947890000000  0.5478940000000  0.5059870000000 1.0
C      1  0.5552490000000  0.4446640000000  0.4579420000000 1.0
C      1  0.4642490000000  0.5124630000000  0.5089100000000 1.0
C      1  0.4722960000000  0.4680840000000  0.4801580000000 1.0
C      1  0.5015170000000  0.5660300000000  0.4206390000000 1.0
C      1  0.6157110000000  0.4921720000000  0.4898730000000 1.0
C      1  0.4472710000000  0.4193010000000  0.5789030000000 1.0
C      1  0.5262580000000  0.4006270000000  0.5313740000000 1.0
C      1  0.4486340000000  0.4443960000000  0.5020350000000 1.0
C      1  0.5121090000000  0.4806020000000  0.3922180000000 1.0
C      1  0.4627210000000  0.5962200000000  0.5276390000000 1.0
C      1  0.4525990000000  0.5627330000000  0.4168300000000 1.0
C      1  0.4237940000000  0.4036380000000  0.5087760000000 1.0
C      1  0.5651680000000  0.5563880000000  0.5635450000000 1.0
C      1  0.4224340000000  0.5421390000000  0.4327960000000 1.0
C      1  0.4245920000000  0.5571710000000  0.5395540000000 1.0
C      1  0.5547450000000  0.4794550000000  0.4184380000000 1.0
C      1  0.4498010000000  0.4562550000000  0.5335080000000 1.0
C      1  0.4962350000000  0.3913390000000  0.5420680000000 1.0
C      1  0.5220910000000  0.5846380000000  0.4657410000000 1.0
C      1  0.4437210000000  0.4606640000000  0.4533140000000 1.0
C      1  0.5007170000000  0.3876270000000  0.4931470000000 1.0
C      1  0.5033130000000  0.5336940000000  0.5425440000000 1.0
C      1  0.4746990000000  0.4048220000000  0.5648920000000 1.0
C      1  0.5620950000000  0.5129280000000  0.4213770000000 1.0
C      1  0.5196270000000  0.4688590000000  0.5847790000000 1.0
C      1  0.4328680000000  0.5831370000000  0.5195160000000 1.0
C      1  0.4321550000000  0.5074870000000  0.3969790000000 1.0
C      1  0.5449860000000  0.5445530000000  0.5854870000000 1.0
C      1  0.5234260000000  0.5813210000000  0.5586950000000 1.0
C      1  0.4763440000000  0.4926390000000  0.5581610000000 1.0
C      1  0.5999030000000  0.4584140000000  0.4473150000000 1.0
C      1  0.5138480000000  0.5655520000000  0.6245610000000 1.0
C      1  0.5468750000000  0.5306180000000  0.4535690000000 1.0
C      1  0.4947460000000  0.5140620000000  0.6163760000000 1.0
C      1  0.4655200000000  0.4507100000000  0.5622100000000 1.0
END
