TITL C-2778423-5760-814 0.00285791241497763 125000 -541.982399614531 0 0 92 (C1) n - 1
REM
REM in /home/nfs/bkarasulu/CARBON/AIRSS/Generating-Clusters/REBO/Only-C1/SD-CG/HFTN-CG
REM
REM
REM
REM
REM
REM ./C.cell (11c1c37f851c82e70ff6c80c92926a4b)
REM
REM compiler GCC version 9.2.1 20190827 (Red Hat 9.2.1-1)
REM options -cpp -mtune=generic -march=x86-64 -g -O0 -fpre-include=/usr/include/finclude/math-vector-fortran.h
REM seed 552282409 1872226842 211260661 933176208 1484873154 -1309836533 1257893046 527528623 -465250324 1189223350 -1950761626 554633859 -1104130802 1833000793 -830516986 305153156 1787569314 708273838 -308380870 -650404776 309694628 -700202555 1609564747 -1874043682 -1563604524 387048068 -1666691276 1743456760 310935323 1117876179 1354365232 2115626980 1484666759
REM
CELL 1.54180   50.00000   50.00000   50.00000   90.00000   90.00000   90.00000
LATT -1
SFAC C  
C      1  0.4697520000000  0.5471490000000  0.4905120000000 1.0
C      1  0.4683780000000  0.5077730000000  0.4561980000000 1.0
C      1  0.5217360000000  0.5790010000000  0.5011200000000 1.0
C      1  0.4857680000000  0.5145840000000  0.5353070000000 1.0
C      1  0.5031120000000  0.4895820000000  0.4629270000000 1.0
C      1  0.4256870000000  0.5003250000000  0.5441480000000 1.0
C      1  0.5226550000000  0.5728110000000  0.4009320000000 1.0
C      1  0.4725800000000  0.4559490000000  0.5811720000000 1.0
C      1  0.4652040000000  0.4125650000000  0.4583940000000 1.0
C      1  0.5186030000000  0.4962260000000  0.4857520000000 1.0
C      1  0.5131680000000  0.5324010000000  0.4596610000000 1.0
C      1  0.5052070000000  0.4326890000000  0.5518560000000 1.0
C      1  0.4685860000000  0.4083520000000  0.4848240000000 1.0
C      1  0.4948380000000  0.4715300000000  0.5902680000000 1.0
C      1  0.4426620000000  0.4828770000000  0.4364910000000 1.0
C      1  0.4697820000000  0.5195420000000  0.4868720000000 1.0
C      1  0.5402520000000  0.4541800000000  0.4291820000000 1.0
C      1  0.4398250000000  0.4831170000000  0.4680140000000 1.0
C      1  0.4552190000000  0.5261560000000  0.5366120000000 1.0
C      1  0.4383680000000  0.4994200000000  0.5739320000000 1.0
C      1  0.4875700000000  0.4895510000000  0.5554570000000 1.0
C      1  0.5088990000000  0.5339380000000  0.5257280000000 1.0
C      1  0.4534310000000  0.5608140000000  0.5170990000000 1.0
C      1  0.5763690000000  0.4889800000000  0.5104230000000 1.0
C      1  0.5058400000000  0.4805390000000  0.5293530000000 1.0
C      1  0.5229180000000  0.4696030000000  0.5779850000000 1.0
C      1  0.5084260000000  0.5343300000000  0.5770630000000 1.0
C      1  0.4950830000000  0.4592800000000  0.5122280000000 1.0
C      1  0.4784450000000  0.4143020000000  0.5092850000000 1.0
C      1  0.5892320000000  0.5494990000000  0.4906540000000 1.0
C      1  0.4913890000000  0.4432770000000  0.4261280000000 1.0
C      1  0.4648000000000  0.4889320000000  0.4211670000000 1.0
C      1  0.4639530000000  0.5044680000000  0.5124020000000 1.0
C      1  0.5682800000000  0.5026400000000  0.4817810000000 1.0
C      1  0.5181680000000  0.5020600000000  0.5800480000000 1.0
C      1  0.5472880000000  0.4303520000000  0.4802990000000 1.0
C      1  0.4941560000000  0.5874710000000  0.5074970000000 1.0
C      1  0.4374750000000  0.5197960000000  0.4638500000000 1.0
C      1  0.4270420000000  0.4932820000000  0.4935950000000 1.0
C      1  0.4873200000000  0.4712080000000  0.4215740000000 1.0
C      1  0.5736390000000  0.4600770000000  0.5140190000000 1.0
C      1  0.4255260000000  0.5234100000000  0.4924980000000 1.0
C      1  0.5205910000000  0.5278230000000  0.4983490000000 1.0
C      1  0.4384150000000  0.4547890000000  0.5258940000000 1.0
C      1  0.4258950000000  0.4799140000000  0.5185520000000 1.0
C      1  0.5527210000000  0.5024670000000  0.4294300000000 1.0
C      1  0.4520210000000  0.4729050000000  0.5726320000000 1.0
C      1  0.5876390000000  0.5631730000000  0.5153290000000 1.0
C      1  0.5621730000000  0.5670300000000  0.5269510000000 1.0
C      1  0.5016970000000  0.5654060000000  0.5326870000000 1.0
C      1  0.4732920000000  0.4768690000000  0.4693090000000 1.0
C      1  0.5275080000000  0.4988380000000  0.5297490000000 1.0
C      1  0.5094340000000  0.5647840000000  0.4505560000000 1.0
C      1  0.4553850000000  0.4384740000000  0.5404830000000 1.0
C      1  0.5350480000000  0.5716620000000  0.5270180000000 1.0
C      1  0.5434560000000  0.5245180000000  0.4732280000000 1.0
C      1  0.4716060000000  0.4252670000000  0.4352860000000 1.0
C      1  0.5173070000000  0.4399690000000  0.4379830000000 1.0
C      1  0.5673570000000  0.4491100000000  0.4866850000000 1.0
C      1  0.5287040000000  0.4498580000000  0.5580360000000 1.0
C      1  0.4218210000000  0.5317200000000  0.5415070000000 1.0
C      1  0.5129740000000  0.5553260000000  0.4199030000000 1.0
C      1  0.5160240000000  0.4365540000000  0.4672970000000 1.0
C      1  0.5390770000000  0.4769710000000  0.4910980000000 1.0
C      1  0.5248900000000  0.5064990000000  0.4222880000000 1.0
C      1  0.5827650000000  0.5305800000000  0.4716040000000 1.0
C      1  0.5220050000000  0.4292810000000  0.4991500000000 1.0
C      1  0.6101300000000  0.5724230000000  0.5276290000000 1.0
C      1  0.4770320000000  0.5181950000000  0.4249980000000 1.0
C      1  0.5223430000000  0.5573160000000  0.4811720000000 1.0
C      1  0.5067820000000  0.5278610000000  0.4165830000000 1.0
C      1  0.5345710000000  0.4547810000000  0.5092950000000 1.0
C      1  0.4838020000000  0.5429270000000  0.4456440000000 1.0
C      1  0.5227230000000  0.5198410000000  0.5518720000000 1.0
C      1  0.4277720000000  0.5423900000000  0.5126870000000 1.0
C      1  0.4939560000000  0.4568030000000  0.4834740000000 1.0
C      1  0.5567320000000  0.4752810000000  0.4386150000000 1.0
C      1  0.4815080000000  0.5456920000000  0.5747310000000 1.0
C      1  0.4918020000000  0.4336750000000  0.5246860000000 1.0
C      1  0.5636830000000  0.5219820000000  0.4472320000000 1.0
C      1  0.4445860000000  0.5461700000000  0.5615490000000 1.0
C      1  0.5522060000000  0.5030680000000  0.5183760000000 1.0
C      1  0.5637250000000  0.4744010000000  0.4676830000000 1.0
C      1  0.4712850000000  0.5612470000000  0.5461550000000 1.0
C      1  0.4760430000000  0.4358430000000  0.5612690000000 1.0
C      1  0.4846180000000  0.5035800000000  0.5863150000000 1.0
C      1  0.4704380000000  0.5786260000000  0.4953430000000 1.0
C      1  0.5488630000000  0.4531020000000  0.5364160000000 1.0
C      1  0.4575400000000  0.4869170000000  0.5413460000000 1.0
C      1  0.5089440000000  0.4859080000000  0.4352110000000 1.0
C      1  0.4546340000000  0.5450500000000  0.4535960000000 1.0
C      1  0.4578510000000  0.5230960000000  0.5828120000000 1.0
END
