TITL C-2778431-5191-31 -0.000575965260566008 125000 -785.732351553866 0 0 138 (C1) n - 1
REM
REM in /home/nfs/bkarasulu/CARBON/AIRSS/Generating-Clusters/REBO/Only-C1/SD-CG/HFTN-CG
REM
REM
REM
REM
REM
REM ./C.cell (11c1c37f851c82e70ff6c80c92926a4b)
REM
REM compiler GCC version 9.2.1 20190827 (Red Hat 9.2.1-1)
REM options -cpp -mtune=generic -march=x86-64 -g -O0 -fpre-include=/usr/include/finclude/math-vector-fortran.h
REM seed -1970699578 131250115 -900354837 789983029 -1845873807 156941792 1433431506 -1277447491 338856992 -529837876 -490007500 1618552389 -59493500 2027624009 1710415055 1088153126 1598068952 1931618057 -124799559 -1537008566 -343120737 1543040088 -1054899487 1824654039 -685214635 625019400 1444218292 1388650390 -2106008360 -814822102 1182793901 2083903163 642916753
REM
CELL 1.54180   50.00000   50.00000   50.00000   90.00000   90.00000   90.00000
LATT -1
SFAC C  
C      1  0.5565040000000  0.5209400000000  0.4559030000000 1.0
C      1  0.5616060000000  0.5135680000000  0.5393110000000 1.0
C      1  0.5644850000000  0.5361490000000  0.5628470000000 1.0
C      1  0.5035040000000  0.4218170000000  0.4951100000000 1.0
C      1  0.4635590000000  0.5331100000000  0.5345140000000 1.0
C      1  0.5332540000000  0.4429060000000  0.4408010000000 1.0
C      1  0.5041730000000  0.5682090000000  0.4901340000000 1.0
C      1  0.4862090000000  0.5710810000000  0.4346460000000 1.0
C      1  0.4720230000000  0.4495300000000  0.5402450000000 1.0
C      1  0.4364130000000  0.4757400000000  0.5213150000000 1.0
C      1  0.4721730000000  0.5223890000000  0.5815950000000 1.0
C      1  0.5807320000000  0.5457750000000  0.5803580000000 1.0
C      1  0.4486200000000  0.4759940000000  0.4725770000000 1.0
C      1  0.5801320000000  0.5663400000000  0.4842210000000 1.0
C      1  0.4917340000000  0.5353020000000  0.5493570000000 1.0
C      1  0.4604050000000  0.5939130000000  0.5144950000000 1.0
C      1  0.4693150000000  0.4826300000000  0.4989060000000 1.0
C      1  0.5372240000000  0.4866310000000  0.4628330000000 1.0
C      1  0.4455700000000  0.4317040000000  0.4553480000000 1.0
C      1  0.4470840000000  0.5083130000000  0.5234350000000 1.0
C      1  0.5283290000000  0.4006690000000  0.5573680000000 1.0
C      1  0.5683190000000  0.4604500000000  0.4340380000000 1.0
C      1  0.4668850000000  0.5181640000000  0.4050050000000 1.0
C      1  0.5130360000000  0.6018260000000  0.5097950000000 1.0
C      1  0.4412860000000  0.5574490000000  0.5602720000000 1.0
C      1  0.4464860000000  0.4692950000000  0.5512960000000 1.0
C      1  0.4636430000000  0.5493090000000  0.5815520000000 1.0
C      1  0.4723920000000  0.6018740000000  0.4646400000000 1.0
C      1  0.5456290000000  0.5399720000000  0.5010210000000 1.0
C      1  0.5290270000000  0.5513080000000  0.4264930000000 1.0
C      1  0.5319130000000  0.5168690000000  0.5756810000000 1.0
C      1  0.5201230000000  0.4291390000000  0.5706720000000 1.0
C      1  0.5838480000000  0.5586400000000  0.5156760000000 1.0
C      1  0.5076770000000  0.3876830000000  0.5438360000000 1.0
C      1  0.5591440000000  0.4435240000000  0.4611440000000 1.0
C      1  0.5691030000000  0.4819550000000  0.4592280000000 1.0
C      1  0.4726660000000  0.5433140000000  0.4198740000000 1.0
C      1  0.5024790000000  0.5649790000000  0.5492420000000 1.0
C      1  0.4893530000000  0.4817120000000  0.4326640000000 1.0
C      1  0.5147880000000  0.5351670000000  0.5256800000000 1.0
C      1  0.4091990000000  0.4963820000000  0.5249790000000 1.0
C      1  0.5426890000000  0.4581500000000  0.4135900000000 1.0
C      1  0.4182220000000  0.4367510000000  0.5268950000000 1.0
C      1  0.5329030000000  0.5612020000000  0.4894330000000 1.0
C      1  0.5195350000000  0.4163000000000  0.4444570000000 1.0
C      1  0.5130440000000  0.5026960000000  0.4807270000000 1.0
C      1  0.5333700000000  0.5500250000000  0.5832210000000 1.0
C      1  0.4802010000000  0.4558330000000  0.4124610000000 1.0
C      1  0.4479130000000  0.5873980000000  0.5458850000000 1.0
C      1  0.4854050000000  0.4656370000000  0.5781650000000 1.0
C      1  0.4290060000000  0.5270010000000  0.5536880000000 1.0
C      1  0.4469310000000  0.4499550000000  0.5028380000000 1.0
C      1  0.5155270000000  0.4869600000000  0.5537030000000 1.0
C      1  0.4543770000000  0.4171480000000  0.5026930000000 1.0
C      1  0.4267090000000  0.4541650000000  0.4650410000000 1.0
C      1  0.5683630000000  0.5517430000000  0.4560600000000 1.0
C      1  0.4830660000000  0.5391430000000  0.4582630000000 1.0
C      1  0.5454120000000  0.4896940000000  0.5748720000000 1.0
C      1  0.5454550000000  0.5687470000000  0.4431460000000 1.0
C      1  0.4855450000000  0.4905190000000  0.4724300000000 1.0
C      1  0.4825230000000  0.4009160000000  0.5478930000000 1.0
C      1  0.5372150000000  0.4356010000000  0.5295660000000 1.0
C      1  0.5107280000000  0.5053620000000  0.5116810000000 1.0
C      1  0.5380350000000  0.4542360000000  0.5556640000000 1.0
C      1  0.4712960000000  0.4311700000000  0.4773730000000 1.0
C      1  0.5934040000000  0.4838590000000  0.5067830000000 1.0
C      1  0.4672110000000  0.5645330000000  0.5307520000000 1.0
C      1  0.5118700000000  0.4572240000000  0.5856580000000 1.0
C      1  0.5444460000000  0.4865380000000  0.5015210000000 1.0
C      1  0.5648130000000  0.4734930000000  0.5559120000000 1.0
C      1  0.5534980000000  0.5143010000000  0.4857780000000 1.0
C      1  0.5593070000000  0.4321210000000  0.5121160000000 1.0
C      1  0.5626400000000  0.5428280000000  0.5238500000000 1.0
C      1  0.5005230000000  0.5129770000000  0.5697670000000 1.0
C      1  0.5329810000000  0.5391700000000  0.5500920000000 1.0
C      1  0.5891250000000  0.4989770000000  0.4760600000000 1.0
C      1  0.5061430000000  0.5199090000000  0.4547940000000 1.0
C      1  0.4792520000000  0.4542120000000  0.5096300000000 1.0
C      1  0.4535620000000  0.5522050000000  0.4469610000000 1.0
C      1  0.5039400000000  0.5565570000000  0.4145960000000 1.0
C      1  0.4850820000000  0.5356170000000  0.5100920000000 1.0
C      1  0.5116600000000  0.4656850000000  0.4040950000000 1.0
C      1  0.4049470000000  0.4812750000000  0.4972770000000 1.0
C      1  0.5858880000000  0.4939530000000  0.5383360000000 1.0
C      1  0.4646280000000  0.4917170000000  0.4484780000000 1.0
C      1  0.4464070000000  0.5222700000000  0.4842660000000 1.0
C      1  0.5823690000000  0.5145350000000  0.5043280000000 1.0
C      1  0.4746820000000  0.4859050000000  0.5563090000000 1.0
C      1  0.4958680000000  0.5757420000000  0.5202290000000 1.0
C      1  0.4935050000000  0.4580980000000  0.4786510000000 1.0
C      1  0.4184400000000  0.5246510000000  0.5127060000000 1.0
C      1  0.4333050000000  0.5733850000000  0.5117100000000 1.0
C      1  0.5082730000000  0.4300110000000  0.5222100000000 1.0
C      1  0.4140390000000  0.4516670000000  0.4965640000000 1.0
C      1  0.5593360000000  0.5906230000000  0.4855170000000 1.0
C      1  0.5290620000000  0.5264200000000  0.4403600000000 1.0
C      1  0.4152010000000  0.4825540000000  0.4517210000000 1.0
C      1  0.4411240000000  0.4994700000000  0.4088080000000 1.0
C      1  0.4948640000000  0.5690130000000  0.4631740000000 1.0
C      1  0.4430100000000  0.4316860000000  0.5381730000000 1.0
C      1  0.5525930000000  0.4242170000000  0.4861030000000 1.0
C      1  0.4506910000000  0.5052070000000  0.5679960000000 1.0
C      1  0.4708250000000  0.4406350000000  0.5790960000000 1.0
C      1  0.5252870000000  0.4338800000000  0.4798540000000 1.0
C      1  0.4731500000000  0.5303590000000  0.4857130000000 1.0
C      1  0.5325470000000  0.4719080000000  0.5949010000000 1.0
C      1  0.4747280000000  0.4337460000000  0.4378420000000 1.0
C      1  0.4802660000000  0.4981120000000  0.5250560000000 1.0
C      1  0.5052110000000  0.4557170000000  0.5448760000000 1.0
C      1  0.6106690000000  0.5025190000000  0.5538150000000 1.0
C      1  0.5013790000000  0.4535360000000  0.4461040000000 1.0
C      1  0.5406970000000  0.4904960000000  0.4152730000000 1.0
C      1  0.4608080000000  0.4068780000000  0.5313500000000 1.0
C      1  0.5646490000000  0.4635870000000  0.4880590000000 1.0
C      1  0.5600730000000  0.5047690000000  0.4278280000000 1.0
C      1  0.3985750000000  0.4989070000000  0.4705520000000 1.0
C      1  0.5388880000000  0.6023010000000  0.5028500000000 1.0
C      1  0.5114180000000  0.4973940000000  0.4147590000000 1.0
C      1  0.4874490000000  0.4198870000000  0.5688990000000 1.0
C      1  0.4680840000000  0.4847010000000  0.3990640000000 1.0
C      1  0.4951230000000  0.4167610000000  0.4600410000000 1.0
C      1  0.4818270000000  0.6045040000000  0.4964320000000 1.0
C      1  0.4405220000000  0.4062850000000  0.4737910000000 1.0
C      1  0.4543720000000  0.5843120000000  0.4543920000000 1.0
C      1  0.5369220000000  0.4972870000000  0.5307980000000 1.0
C      1  0.4281210000000  0.5510320000000  0.5292740000000 1.0
C      1  0.5053130000000  0.6060660000000  0.4710960000000 1.0
C      1  0.4225420000000  0.4934940000000  0.5541550000000 1.0
C      1  0.4071120000000  0.5260240000000  0.4806120000000 1.0
C      1  0.5182200000000  0.5711930000000  0.5704280000000 1.0
C      1  0.5861380000000  0.4545800000000  0.5443180000000 1.0
C      1  0.5310400000000  0.5870390000000  0.4667440000000 1.0
C      1  0.4356490000000  0.4942270000000  0.4360930000000 1.0
C      1  0.5876890000000  0.5334030000000  0.4773150000000 1.0
C      1  0.4307080000000  0.5389710000000  0.4638750000000 1.0
C      1  0.4337960000000  0.4972320000000  0.4882720000000 1.0
C      1  0.5840350000000  0.4527400000000  0.5126670000000 1.0
C      1  0.5249560000000  0.4648410000000  0.4845770000000 1.0
END
