TITL C-2778428-5639-736 0.00015149718773121 125000 -1107.56557939322 0 0 187 (C1) n - 1
REM
REM in /home/nfs/bkarasulu/CARBON/AIRSS/Generating-Clusters/REBO/Only-C1/SD-CG/HFTN-CG
REM
REM
REM
REM
REM
REM ./C.cell (11c1c37f851c82e70ff6c80c92926a4b)
REM
REM compiler GCC version 9.2.1 20190827 (Red Hat 9.2.1-1)
REM options -cpp -mtune=generic -march=x86-64 -g -O0 -fpre-include=/usr/include/finclude/math-vector-fortran.h
REM seed 201411773 -884113276 -296919915 633676704 -69142583 1595839113 -484160269 731321842 1164368698 -269580680 400034874 140243048 1515130838 1626757982 -1044160920 -1007858047 752471856 821789439 1148771284 1666869549 -1797422592 1556478385 1990212179 -906492070 1771711108 -1848099721 -1433172989 274820893 607170263 1697990411 -619609542 -1276631363 -576204274
REM
CELL 1.54180   50.00000   50.00000   50.00000   90.00000   90.00000   90.00000
LATT -1
SFAC C  
C      1  0.4343380000000  0.4702950000000  0.5193830000000 1.0
C      1  0.4504420000000  0.4439080000000  0.4791330000000 1.0
C      1  0.5179230000000  0.5140410000000  0.5021350000000 1.0
C      1  0.4738160000000  0.4422910000000  0.4280760000000 1.0
C      1  0.5766800000000  0.5267600000000  0.5671970000000 1.0
C      1  0.4265150000000  0.5643950000000  0.5638500000000 1.0
C      1  0.4280260000000  0.5353090000000  0.5796600000000 1.0
C      1  0.4677060000000  0.4366870000000  0.5485700000000 1.0
C      1  0.4810030000000  0.4315700000000  0.5116660000000 1.0
C      1  0.5621750000000  0.4682970000000  0.5572710000000 1.0
C      1  0.5127600000000  0.5655790000000  0.4014600000000 1.0
C      1  0.5529550000000  0.5599850000000  0.4877460000000 1.0
C      1  0.5785170000000  0.4993120000000  0.6042920000000 1.0
C      1  0.5835310000000  0.4398450000000  0.5269000000000 1.0
C      1  0.4044720000000  0.4470640000000  0.5071380000000 1.0
C      1  0.5788650000000  0.4520420000000  0.4278790000000 1.0
C      1  0.4832280000000  0.4642650000000  0.5481470000000 1.0
C      1  0.4318370000000  0.4280990000000  0.5014470000000 1.0
C      1  0.5358730000000  0.4203870000000  0.4444840000000 1.0
C      1  0.4798880000000  0.5158400000000  0.4900560000000 1.0
C      1  0.4877320000000  0.5188570000000  0.4202080000000 1.0
C      1  0.5262080000000  0.4877690000000  0.3936270000000 1.0
C      1  0.5381130000000  0.5522480000000  0.4620240000000 1.0
C      1  0.4647940000000  0.5878450000000  0.4965830000000 1.0
C      1  0.4626160000000  0.4849610000000  0.5494120000000 1.0
C      1  0.4341820000000  0.5070890000000  0.5870070000000 1.0
C      1  0.5915430000000  0.4834930000000  0.5600850000000 1.0
C      1  0.4199860000000  0.5601940000000  0.5145570000000 1.0
C      1  0.4566290000000  0.4529590000000  0.5205890000000 1.0
C      1  0.5432340000000  0.5526480000000  0.4099640000000 1.0
C      1  0.5431340000000  0.6172720000000  0.4800640000000 1.0
C      1  0.5986660000000  0.4335560000000  0.4276280000000 1.0
C      1  0.4285330000000  0.4882120000000  0.4912580000000 1.0
C      1  0.4933410000000  0.5206500000000  0.5203240000000 1.0
C      1  0.5243160000000  0.4468280000000  0.5220500000000 1.0
C      1  0.5450940000000  0.4850950000000  0.4159030000000 1.0
C      1  0.5632420000000  0.5706080000000  0.5423890000000 1.0
C      1  0.5517310000000  0.4725770000000  0.4702520000000 1.0
C      1  0.4470870000000  0.4571650000000  0.4171420000000 1.0
C      1  0.5832810000000  0.4162790000000  0.5043500000000 1.0
C      1  0.4545290000000  0.3985240000000  0.5158990000000 1.0
C      1  0.5661460000000  0.5791560000000  0.4532680000000 1.0
C      1  0.4994260000000  0.4190950000000  0.5772130000000 1.0
C      1  0.5226910000000  0.5131430000000  0.3844520000000 1.0
C      1  0.5383620000000  0.4518650000000  0.4949940000000 1.0
C      1  0.5597630000000  0.4276980000000  0.4581370000000 1.0
C      1  0.5104580000000  0.4755650000000  0.4557350000000 1.0
C      1  0.4807930000000  0.4910850000000  0.4099190000000 1.0
C      1  0.5152680000000  0.6033900000000  0.5517390000000 1.0
C      1  0.4780360000000  0.3908480000000  0.5299230000000 1.0
C      1  0.5823500000000  0.5349090000000  0.4625060000000 1.0
C      1  0.5123570000000  0.5071940000000  0.6116030000000 1.0
C      1  0.5944670000000  0.4848940000000  0.4666870000000 1.0
C      1  0.5051800000000  0.5000810000000  0.5729730000000 1.0
C      1  0.4837410000000  0.4407820000000  0.4729010000000 1.0
C      1  0.4381370000000  0.5318230000000  0.5166110000000 1.0
C      1  0.5131920000000  0.6041570000000  0.4719740000000 1.0
C      1  0.5685870000000  0.4388760000000  0.5520570000000 1.0
C      1  0.4250800000000  0.5206060000000  0.4546080000000 1.0
C      1  0.3988020000000  0.5339120000000  0.5201530000000 1.0
C      1  0.4875420000000  0.4975630000000  0.4684470000000 1.0
C      1  0.4627920000000  0.5376250000000  0.4138050000000 1.0
C      1  0.5227440000000  0.5251850000000  0.4713240000000 1.0
C      1  0.5726310000000  0.4788480000000  0.4441720000000 1.0
C      1  0.4195170000000  0.5613940000000  0.4380090000000 1.0
C      1  0.4493460000000  0.4913700000000  0.5715400000000 1.0
C      1  0.3998810000000  0.4786430000000  0.4212390000000 1.0
C      1  0.4670710000000  0.5736880000000  0.4465410000000 1.0
C      1  0.4168440000000  0.4376540000000  0.5370610000000 1.0
C      1  0.5898420000000  0.4996130000000  0.4906740000000 1.0
C      1  0.5151800000000  0.4507410000000  0.4713140000000 1.0
C      1  0.5955610000000  0.5766690000000  0.5030720000000 1.0
C      1  0.5101270000000  0.5320550000000  0.4042530000000 1.0
C      1  0.5469660000000  0.4178640000000  0.5555620000000 1.0
C      1  0.5488270000000  0.5043350000000  0.5963000000000 1.0
C      1  0.5290110000000  0.4389220000000  0.4242490000000 1.0
C      1  0.4482530000000  0.5736940000000  0.5444050000000 1.0
C      1  0.4687900000000  0.5517720000000  0.5367110000000 1.0
C      1  0.5772460000000  0.4417140000000  0.4743050000000 1.0
C      1  0.3987340000000  0.4504310000000  0.4768190000000 1.0
C      1  0.5744720000000  0.5897680000000  0.5205320000000 1.0
C      1  0.4957290000000  0.4503370000000  0.5851050000000 1.0
C      1  0.5012350000000  0.5740970000000  0.5416600000000 1.0
C      1  0.5282810000000  0.4278010000000  0.5807830000000 1.0
C      1  0.5311890000000  0.5317600000000  0.6037440000000 1.0
C      1  0.5926090000000  0.5175810000000  0.5262390000000 1.0
C      1  0.5038710000000  0.5136290000000  0.4469350000000 1.0
C      1  0.5443980000000  0.5442950000000  0.5335190000000 1.0
C      1  0.5230860000000  0.5453020000000  0.4333830000000 1.0
C      1  0.6025870000000  0.4897360000000  0.5337200000000 1.0
C      1  0.4401270000000  0.5876080000000  0.5156960000000 1.0
C      1  0.4897700000000  0.5470180000000  0.4856540000000 1.0
C      1  0.4654610000000  0.5040620000000  0.5252440000000 1.0
C      1  0.5722430000000  0.4864300000000  0.5082110000000 1.0
C      1  0.4747160000000  0.5415390000000  0.6041430000000 1.0
C      1  0.5776730000000  0.5547160000000  0.4419090000000 1.0
C      1  0.4604150000000  0.4884930000000  0.4553230000000 1.0
C      1  0.5334040000000  0.4968200000000  0.4442610000000 1.0
C      1  0.5361360000000  0.4905890000000  0.4853410000000 1.0
C      1  0.4162740000000  0.5011730000000  0.4382930000000 1.0
C      1  0.5288380000000  0.4812260000000  0.6061370000000 1.0
C      1  0.5431420000000  0.3992100000000  0.4806040000000 1.0
C      1  0.5035640000000  0.4480010000000  0.4146590000000 1.0
C      1  0.4160880000000  0.4386400000000  0.4567970000000 1.0
C      1  0.4071970000000  0.5394250000000  0.5527070000000 1.0
C      1  0.4530180000000  0.5202710000000  0.4576240000000 1.0
C      1  0.5919880000000  0.5049290000000  0.5792090000000 1.0
C      1  0.4211710000000  0.5016480000000  0.4073660000000 1.0
C      1  0.4348710000000  0.5507460000000  0.4222020000000 1.0
C      1  0.4943030000000  0.5597420000000  0.5900060000000 1.0
C      1  0.5828400000000  0.5428300000000  0.5440910000000 1.0
C      1  0.5679480000000  0.5407770000000  0.4179980000000 1.0
C      1  0.4052480000000  0.5383570000000  0.4673320000000 1.0
C      1  0.5035070000000  0.4726490000000  0.4001670000000 1.0
C      1  0.5325420000000  0.5744550000000  0.5568410000000 1.0
C      1  0.4876300000000  0.4137440000000  0.5490330000000 1.0
C      1  0.5346720000000  0.5931310000000  0.5191840000000 1.0
C      1  0.5598060000000  0.5229200000000  0.5181700000000 1.0
C      1  0.4253930000000  0.4573920000000  0.5561380000000 1.0
C      1  0.5114340000000  0.3935900000000  0.5240490000000 1.0
C      1  0.5183220000000  0.4206560000000  0.4804260000000 1.0
C      1  0.5254830000000  0.4861940000000  0.5166250000000 1.0
C      1  0.4972500000000  0.5347140000000  0.5473990000000 1.0
C      1  0.3860440000000  0.4746170000000  0.4708910000000 1.0
C      1  0.4825870000000  0.5104300000000  0.6042120000000 1.0
C      1  0.6038420000000  0.4412290000000  0.4931220000000 1.0
C      1  0.4986370000000  0.5864360000000  0.4487560000000 1.0
C      1  0.4863770000000  0.5661210000000  0.5119200000000 1.0
C      1  0.4010530000000  0.4789400000000  0.5184310000000 1.0
C      1  0.6056900000000  0.5499460000000  0.5027510000000 1.0
C      1  0.4548270000000  0.5564390000000  0.5812760000000 1.0
C      1  0.5173320000000  0.3964490000000  0.4579170000000 1.0
C      1  0.5953800000000  0.5282860000000  0.4872910000000 1.0
C      1  0.4498120000000  0.5092290000000  0.4979640000000 1.0
C      1  0.4200740000000  0.4875250000000  0.5446390000000 1.0
C      1  0.4462130000000  0.6061840000000  0.5414190000000 1.0
C      1  0.5597440000000  0.3998910000000  0.5038160000000 1.0
C      1  0.5088720000000  0.4733900000000  0.5641970000000 1.0
C      1  0.4578050000000  0.4110300000000  0.4866410000000 1.0
C      1  0.5238470000000  0.5537230000000  0.5826260000000 1.0
C      1  0.4808980000000  0.5733630000000  0.5673140000000 1.0
C      1  0.4589090000000  0.5246510000000  0.5499730000000 1.0
C      1  0.4240600000000  0.4619460000000  0.4368120000000 1.0
C      1  0.5685630000000  0.4569440000000  0.5027740000000 1.0
C      1  0.4347510000000  0.4179070000000  0.4534280000000 1.0
C      1  0.4283510000000  0.5161190000000  0.5445660000000 1.0
C      1  0.5531860000000  0.5265520000000  0.4884140000000 1.0
C      1  0.5583810000000  0.5129860000000  0.4586950000000 1.0
C      1  0.3792740000000  0.4897310000000  0.4439910000000 1.0
C      1  0.5450350000000  0.3964970000000  0.5288620000000 1.0
C      1  0.4382840000000  0.4702090000000  0.4667980000000 1.0
C      1  0.4671700000000  0.4220690000000  0.4497620000000 1.0
C      1  0.4668130000000  0.4832440000000  0.6065600000000 1.0
C      1  0.4966410000000  0.4101980000000  0.5003850000000 1.0
C      1  0.5513070000000  0.4562180000000  0.4190440000000 1.0
C      1  0.5555250000000  0.6089040000000  0.5048510000000 1.0
C      1  0.4824400000000  0.4733950000000  0.4371320000000 1.0
C      1  0.4934760000000  0.6043830000000  0.4961890000000 1.0
C      1  0.4993840000000  0.5528260000000  0.4545170000000 1.0
C      1  0.4807540000000  0.5189560000000  0.5720140000000 1.0
C      1  0.4487820000000  0.5850030000000  0.4695500000000 1.0
C      1  0.4854960000000  0.4010940000000  0.4693590000000 1.0
C      1  0.4993980000000  0.4669810000000  0.5221920000000 1.0
C      1  0.5074360000000  0.6072280000000  0.5204450000000 1.0
C      1  0.4400270000000  0.5188090000000  0.3988530000000 1.0
C      1  0.4624370000000  0.5475710000000  0.4683170000000 1.0
C      1  0.5671720000000  0.5076820000000  0.4262270000000 1.0
C      1  0.6047140000000  0.4650000000000  0.5174540000000 1.0
C      1  0.4869600000000  0.5587530000000  0.4228120000000 1.0
C      1  0.5318650000000  0.4701170000000  0.5452740000000 1.0
C      1  0.4392410000000  0.5514970000000  0.4886400000000 1.0
C      1  0.4535930000000  0.4791550000000  0.4009950000000 1.0
C      1  0.4006850000000  0.5061600000000  0.5005870000000 1.0
C      1  0.5753010000000  0.5810740000000  0.4815500000000 1.0
C      1  0.5260470000000  0.5351670000000  0.5560100000000 1.0
C      1  0.5324610000000  0.5837380000000  0.4521110000000 1.0
C      1  0.5472330000000  0.5132980000000  0.5640030000000 1.0
C      1  0.5369010000000  0.5660020000000  0.5127900000000 1.0
C      1  0.4497810000000  0.4514250000000  0.5703260000000 1.0
C      1  0.5609120000000  0.4962060000000  0.5378110000000 1.0
C      1  0.4673650000000  0.4606930000000  0.5907590000000 1.0
C      1  0.4334980000000  0.4128180000000  0.5317350000000 1.0
C      1  0.3881580000000  0.5090940000000  0.4707030000000 1.0
C      1  0.4802430000000  0.4622810000000  0.4980700000000 1.0
C      1  0.4185850000000  0.5693240000000  0.4694830000000 1.0
C      1  0.5277990000000  0.4562090000000  0.5947600000000 1.0
C      1  0.5183610000000  0.4229990000000  0.5397190000000 1.0
END
