TITL C-2778431-5191-665 -0.00300871931925084 125000 -893.384237845714 0 0 154 (C1) n - 1
REM
REM in /home/nfs/bkarasulu/CARBON/AIRSS/Generating-Clusters/REBO/Only-C1/SD-CG/HFTN-CG
REM
REM
REM
REM
REM
REM ./C.cell (11c1c37f851c82e70ff6c80c92926a4b)
REM
REM compiler GCC version 9.2.1 20190827 (Red Hat 9.2.1-1)
REM options -cpp -mtune=generic -march=x86-64 -g -O0 -fpre-include=/usr/include/finclude/math-vector-fortran.h
REM seed -102875652 1680673832 1903566835 -319244059 -492328773 -800448789 -923168564 346871802 -936128007 -488095301 -865443438 1432880563 -76798315 1695603265 -45237323 1573638140 -1320229983 1340751632 -1735581110 577972338 1176791112 422462833 858097881 865688334 -587212185 -1001060785 -718998093 -1984593962 465478966 -931446000 438446470 674653854 1169518782
REM
CELL 1.54180   50.00000   50.00000   50.00000   90.00000   90.00000   90.00000
LATT -1
SFAC C  
C      1  0.4198570000000  0.4583520000000  0.5562090000000 1.0
C      1  0.4976730000000  0.4439120000000  0.5848170000000 1.0
C      1  0.4357730000000  0.4952860000000  0.4922130000000 1.0
C      1  0.4490570000000  0.5383800000000  0.4497400000000 1.0
C      1  0.4807930000000  0.5567850000000  0.4831200000000 1.0
C      1  0.5143370000000  0.4926890000000  0.6020240000000 1.0
C      1  0.5246340000000  0.5636710000000  0.4222950000000 1.0
C      1  0.4895640000000  0.4762570000000  0.5629520000000 1.0
C      1  0.5702620000000  0.4636290000000  0.5768470000000 1.0
C      1  0.5770770000000  0.5488430000000  0.4991350000000 1.0
C      1  0.4395610000000  0.5247350000000  0.5266720000000 1.0
C      1  0.5113580000000  0.4337350000000  0.4729050000000 1.0
C      1  0.5103610000000  0.4133990000000  0.5181270000000 1.0
C      1  0.5080270000000  0.4432800000000  0.4192220000000 1.0
C      1  0.6013060000000  0.4862710000000  0.4648840000000 1.0
C      1  0.4592660000000  0.5435040000000  0.5421260000000 1.0
C      1  0.5472180000000  0.5576170000000  0.4649810000000 1.0
C      1  0.5607010000000  0.4085360000000  0.4845540000000 1.0
C      1  0.4520240000000  0.5773720000000  0.4574880000000 1.0
C      1  0.4937410000000  0.5912390000000  0.5512980000000 1.0
C      1  0.4166050000000  0.5364170000000  0.4566110000000 1.0
C      1  0.4779000000000  0.5291220000000  0.5634870000000 1.0
C      1  0.5832860000000  0.5349240000000  0.5445840000000 1.0
C      1  0.5272330000000  0.5113490000000  0.4458290000000 1.0
C      1  0.5144640000000  0.5850890000000  0.4621800000000 1.0
C      1  0.4093220000000  0.5084880000000  0.4746820000000 1.0
C      1  0.5323770000000  0.5846740000000  0.4396470000000 1.0
C      1  0.5247620000000  0.4107660000000  0.5481110000000 1.0
C      1  0.4186700000000  0.4727600000000  0.4276610000000 1.0
C      1  0.5513240000000  0.5343250000000  0.4500950000000 1.0
C      1  0.4672500000000  0.5619240000000  0.4335170000000 1.0
C      1  0.4615910000000  0.4576350000000  0.5287120000000 1.0
C      1  0.5535370000000  0.4099070000000  0.5507390000000 1.0
C      1  0.5787310000000  0.5286600000000  0.4474310000000 1.0
C      1  0.4405400000000  0.4205800000000  0.5405860000000 1.0
C      1  0.4786450000000  0.5261940000000  0.5185850000000 1.0
C      1  0.5037990000000  0.5416670000000  0.5349360000000 1.0
C      1  0.5581300000000  0.5057580000000  0.5852470000000 1.0
C      1  0.5254120000000  0.4290880000000  0.4359360000000 1.0
C      1  0.5449700000000  0.4480680000000  0.4536810000000 1.0
C      1  0.5737900000000  0.4806000000000  0.4831580000000 1.0
C      1  0.5338800000000  0.5297220000000  0.5120880000000 1.0
C      1  0.5205010000000  0.5593910000000  0.4819150000000 1.0
C      1  0.4604770000000  0.3893500000000  0.5091800000000 1.0
C      1  0.5179070000000  0.4696590000000  0.4125390000000 1.0
C      1  0.5710150000000  0.5071620000000  0.5317040000000 1.0
C      1  0.4872930000000  0.5105960000000  0.4619240000000 1.0
C      1  0.5297580000000  0.5131880000000  0.4762910000000 1.0
C      1  0.5278130000000  0.5306600000000  0.4179490000000 1.0
C      1  0.4807610000000  0.4966890000000  0.4326370000000 1.0
C      1  0.5628250000000  0.5737860000000  0.4993570000000 1.0
C      1  0.5934540000000  0.4549520000000  0.4747180000000 1.0
C      1  0.4713780000000  0.4945200000000  0.5285720000000 1.0
C      1  0.5429240000000  0.5550210000000  0.5284110000000 1.0
C      1  0.4487540000000  0.4316240000000  0.4655630000000 1.0
C      1  0.5042210000000  0.5204750000000  0.4966710000000 1.0
C      1  0.5094470000000  0.4729190000000  0.5382980000000 1.0
C      1  0.4575290000000  0.4770670000000  0.4194800000000 1.0
C      1  0.5185050000000  0.4650490000000  0.5899820000000 1.0
C      1  0.5139810000000  0.4623690000000  0.4597150000000 1.0
C      1  0.5845020000000  0.4305390000000  0.4949750000000 1.0
C      1  0.5689190000000  0.4340290000000  0.4645080000000 1.0
C      1  0.5746180000000  0.4201030000000  0.5428740000000 1.0
C      1  0.4331010000000  0.4282960000000  0.4945940000000 1.0
C      1  0.5602060000000  0.5825320000000  0.4522010000000 1.0
C      1  0.4274640000000  0.5655430000000  0.4692990000000 1.0
C      1  0.4279190000000  0.5262770000000  0.4259150000000 1.0
C      1  0.5501010000000  0.5150640000000  0.5544960000000 1.0
C      1  0.4649430000000  0.5306060000000  0.4733630000000 1.0
C      1  0.5797220000000  0.4422800000000  0.5220740000000 1.0
C      1  0.5144300000000  0.6039400000000  0.5035820000000 1.0
C      1  0.4965130000000  0.4356460000000  0.5007920000000 1.0
C      1  0.5088540000000  0.5647610000000  0.5104240000000 1.0
C      1  0.4703560000000  0.4538520000000  0.5762750000000 1.0
C      1  0.4910510000000  0.4621700000000  0.5163510000000 1.0
C      1  0.4448460000000  0.5943160000000  0.5023310000000 1.0
C      1  0.4622670000000  0.4502020000000  0.4001240000000 1.0
C      1  0.5135900000000  0.5618690000000  0.5680250000000 1.0
C      1  0.4712760000000  0.4924790000000  0.5833290000000 1.0
C      1  0.5222880000000  0.5762810000000  0.5395770000000 1.0
C      1  0.4344510000000  0.4556020000000  0.4494940000000 1.0
C      1  0.4873440000000  0.4908530000000  0.4984320000000 1.0
C      1  0.5263590000000  0.5325300000000  0.5569090000000 1.0
C      1  0.4483740000000  0.5038490000000  0.5726400000000 1.0
C      1  0.5949910000000  0.5328830000000  0.4256750000000 1.0
C      1  0.5590160000000  0.5221920000000  0.4901980000000 1.0
C      1  0.4996420000000  0.4021430000000  0.4793800000000 1.0
C      1  0.5897550000000  0.4921830000000  0.4354960000000 1.0
C      1  0.5619360000000  0.4944760000000  0.4352970000000 1.0
C      1  0.3978600000000  0.4872150000000  0.4500900000000 1.0
C      1  0.4885480000000  0.4080030000000  0.5435210000000 1.0
C      1  0.4493320000000  0.4461920000000  0.5561340000000 1.0
C      1  0.4520180000000  0.5199330000000  0.4977590000000 1.0
C      1  0.5527640000000  0.4579050000000  0.5195000000000 1.0
C      1  0.3909440000000  0.5070940000000  0.5008720000000 1.0
C      1  0.5884910000000  0.5161040000000  0.4733880000000 1.0
C      1  0.4464030000000  0.5325310000000  0.5782710000000 1.0
C      1  0.5361200000000  0.4844690000000  0.3969560000000 1.0
C      1  0.5038880000000  0.4203660000000  0.5706770000000 1.0
C      1  0.5409560000000  0.5907980000000  0.5026240000000 1.0
C      1  0.4995000000000  0.6027580000000  0.4784930000000 1.0
C      1  0.5225330000000  0.5381220000000  0.5903490000000 1.0
C      1  0.5296650000000  0.4011980000000  0.4954140000000 1.0
C      1  0.3967000000000  0.5375430000000  0.5152390000000 1.0
C      1  0.4769190000000  0.3909610000000  0.4875260000000 1.0
C      1  0.4815840000000  0.5795740000000  0.5054880000000 1.0
C      1  0.4232550000000  0.5670290000000  0.5441540000000 1.0
C      1  0.4889920000000  0.5073330000000  0.5992750000000 1.0
C      1  0.4176060000000  0.4806840000000  0.5389810000000 1.0
C      1  0.4089820000000  0.5100090000000  0.5287040000000 1.0
C      1  0.4215640000000  0.4570280000000  0.4801960000000 1.0
C      1  0.5354390000000  0.5120110000000  0.6006330000000 1.0
C      1  0.5830310000000  0.5155830000000  0.5688950000000 1.0
C      1  0.4337930000000  0.4976670000000  0.4111320000000 1.0
C      1  0.5937120000000  0.4657250000000  0.5625550000000 1.0
C      1  0.4796480000000  0.4442040000000  0.4238560000000 1.0
C      1  0.4966570000000  0.5509670000000  0.4323850000000 1.0
C      1  0.4927240000000  0.5068200000000  0.5505850000000 1.0
C      1  0.4548210000000  0.5728430000000  0.5508760000000 1.0
C      1  0.5105970000000  0.4869960000000  0.4376470000000 1.0
C      1  0.4860810000000  0.4780990000000  0.4677700000000 1.0
C      1  0.4629720000000  0.5153770000000  0.4101580000000 1.0
C      1  0.4085330000000  0.4774360000000  0.5054920000000 1.0
C      1  0.4806400000000  0.5679240000000  0.5725430000000 1.0
C      1  0.4999090000000  0.6072150000000  0.5278510000000 1.0
C      1  0.4659650000000  0.4381150000000  0.4942310000000 1.0
C      1  0.5344290000000  0.4107710000000  0.4628970000000 1.0
C      1  0.5615060000000  0.4873590000000  0.5095900000000 1.0
C      1  0.4672340000000  0.4627130000000  0.4488710000000 1.0
C      1  0.4505040000000  0.5464650000000  0.4110490000000 1.0
C      1  0.5388330000000  0.4624380000000  0.4885690000000 1.0
C      1  0.4615760000000  0.5912580000000  0.5279850000000 1.0
C      1  0.4676590000000  0.5953760000000  0.4781150000000 1.0
C      1  0.5962230000000  0.5212170000000  0.5046250000000 1.0
C      1  0.5501960000000  0.4792970000000  0.4604880000000 1.0
C      1  0.5189660000000  0.5043130000000  0.5296680000000 1.0
C      1  0.4013000000000  0.4475410000000  0.5212080000000 1.0
C      1  0.4239680000000  0.5750090000000  0.4961360000000 1.0
C      1  0.4312110000000  0.4949730000000  0.4504060000000 1.0
C      1  0.5014510000000  0.5406190000000  0.4614510000000 1.0
C      1  0.5309070000000  0.4915180000000  0.5017030000000 1.0
C      1  0.5481360000000  0.5053000000000  0.4124430000000 1.0
C      1  0.5685910000000  0.5572700000000  0.5372690000000 1.0
C      1  0.5352830000000  0.4590970000000  0.5443080000000 1.0
C      1  0.4895060000000  0.5406400000000  0.5915350000000 1.0
C      1  0.5423710000000  0.4612720000000  0.5719670000000 1.0
C      1  0.4947200000000  0.5255250000000  0.4118270000000 1.0
C      1  0.5980560000000  0.4660440000000  0.5338800000000 1.0
C      1  0.4463990000000  0.4653140000000  0.5013900000000 1.0
C      1  0.4434490000000  0.4971920000000  0.5437420000000 1.0
C      1  0.5987700000000  0.4928010000000  0.5224650000000 1.0
C      1  0.4112710000000  0.5615650000000  0.5183330000000 1.0
C      1  0.4613940000000  0.4028340000000  0.5340390000000 1.0
C      1  0.4207640000000  0.4272580000000  0.5211770000000 1.0
END
