TITL C-2778426-5645-395 0.00156128254702213 125000 -461.458483899733 0 0 82 (C1) n - 1
REM
REM in /home/nfs/bkarasulu/CARBON/AIRSS/Generating-Clusters/REBO/Only-C1/SD-CG/HFTN-CG
REM
REM
REM
REM
REM
REM ./C.cell (11c1c37f851c82e70ff6c80c92926a4b)
REM
REM compiler GCC version 9.2.1 20190827 (Red Hat 9.2.1-1)
REM options -cpp -mtune=generic -march=x86-64 -g -O0 -fpre-include=/usr/include/finclude/math-vector-fortran.h
REM seed -1297603836 -1291636345 940025781 -840455275 255177431 965093422 1283889611 42406943 1234176179 -623585601 -445144573 -1936059155 301309506 1726494464 -1520332504 229629659 1765600702 1245701441 -1078829512 1031488760 -258513254 -192093722 -440140021 538940886 -1574827201 556948871 -654431163 -1240636327 -873159419 -1917673982 -1149605871 -2144551832 908232782
REM
CELL 1.54180   50.00000   50.00000   50.00000   90.00000   90.00000   90.00000
LATT -1
SFAC C  
C      1  0.5150610000000  0.5598500000000  0.5361090000000 1.0
C      1  0.4442830000000  0.5419210000000  0.5030240000000 1.0
C      1  0.5115200000000  0.4883240000000  0.5504580000000 1.0
C      1  0.5015010000000  0.4607050000000  0.5629090000000 1.0
C      1  0.5423020000000  0.4192750000000  0.5174140000000 1.0
C      1  0.5218400000000  0.4379460000000  0.4631410000000 1.0
C      1  0.4993140000000  0.5435980000000  0.5172680000000 1.0
C      1  0.4815530000000  0.4770090000000  0.5266130000000 1.0
C      1  0.4911440000000  0.4762580000000  0.4282930000000 1.0
C      1  0.4935880000000  0.4670630000000  0.4638320000000 1.0
C      1  0.5327350000000  0.4253340000000  0.4928460000000 1.0
C      1  0.5149330000000  0.5272460000000  0.4315480000000 1.0
C      1  0.4942480000000  0.4414390000000  0.4436420000000 1.0
C      1  0.5108330000000  0.4370960000000  0.5494520000000 1.0
C      1  0.5337800000000  0.4532800000000  0.4372810000000 1.0
C      1  0.5478150000000  0.4754760000000  0.4954280000000 1.0
C      1  0.5321610000000  0.4766730000000  0.5260680000000 1.0
C      1  0.5002700000000  0.4707640000000  0.5029110000000 1.0
C      1  0.5661620000000  0.5364160000000  0.4538940000000 1.0
C      1  0.5922220000000  0.4904850000000  0.4806030000000 1.0
C      1  0.4642820000000  0.5147030000000  0.5712530000000 1.0
C      1  0.4436770000000  0.5237020000000  0.5546880000000 1.0
C      1  0.5143300000000  0.5671100000000  0.4697150000000 1.0
C      1  0.5229570000000  0.4762690000000  0.4263080000000 1.0
C      1  0.5832210000000  0.4616100000000  0.5228680000000 1.0
C      1  0.5387610000000  0.5567660000000  0.4577460000000 1.0
C      1  0.4410440000000  0.5334310000000  0.4700810000000 1.0
C      1  0.4318740000000  0.4708340000000  0.5264660000000 1.0
C      1  0.5702340000000  0.5275760000000  0.5470950000000 1.0
C      1  0.4686780000000  0.4650580000000  0.5663260000000 1.0
C      1  0.4881250000000  0.4248520000000  0.5359170000000 1.0
C      1  0.4599610000000  0.5227430000000  0.4436500000000 1.0
C      1  0.4312380000000  0.4506890000000  0.4920770000000 1.0
C      1  0.4768090000000  0.5099290000000  0.5336920000000 1.0
C      1  0.4197240000000  0.5016350000000  0.5200700000000 1.0
C      1  0.5382210000000  0.5158960000000  0.5273130000000 1.0
C      1  0.4984570000000  0.5017440000000  0.4449800000000 1.0
C      1  0.5145150000000  0.4895830000000  0.4708050000000 1.0
C      1  0.4526300000000  0.4899740000000  0.4370600000000 1.0
C      1  0.4462620000000  0.4611100000000  0.4638510000000 1.0
C      1  0.5852370000000  0.5091700000000  0.4621040000000 1.0
C      1  0.5551330000000  0.5058160000000  0.4499270000000 1.0
C      1  0.5454690000000  0.5603770000000  0.5103400000000 1.0
C      1  0.4668470000000  0.4495710000000  0.5372200000000 1.0
C      1  0.4947410000000  0.5825770000000  0.5102500000000 1.0
C      1  0.5590960000000  0.5502310000000  0.4823710000000 1.0
C      1  0.4623960000000  0.4998020000000  0.4675470000000 1.0
C      1  0.4675750000000  0.5662030000000  0.5095490000000 1.0
C      1  0.5348560000000  0.5022440000000  0.4285710000000 1.0
C      1  0.4652700000000  0.4582780000000  0.4370540000000 1.0
C      1  0.4182850000000  0.5125650000000  0.4702420000000 1.0
C      1  0.5579520000000  0.4635790000000  0.5422320000000 1.0
C      1  0.5050400000000  0.5202480000000  0.5492220000000 1.0
C      1  0.4869700000000  0.5625000000000  0.4610550000000 1.0
C      1  0.4344440000000  0.5243530000000  0.5269580000000 1.0
C      1  0.5780340000000  0.4730220000000  0.4982340000000 1.0
C      1  0.4714900000000  0.4657510000000  0.4863220000000 1.0
C      1  0.5421290000000  0.5465270000000  0.5414510000000 1.0
C      1  0.5421570000000  0.5000760000000  0.4779190000000 1.0
C      1  0.4244470000000  0.4849270000000  0.4529920000000 1.0
C      1  0.4632660000000  0.4132610000000  0.5220560000000 1.0
C      1  0.4620580000000  0.5588940000000  0.4784520000000 1.0
C      1  0.5064600000000  0.5281470000000  0.4653690000000 1.0
C      1  0.5586290000000  0.4972180000000  0.5471500000000 1.0
C      1  0.4507430000000  0.4839730000000  0.5022500000000 1.0
C      1  0.4847400000000  0.5389480000000  0.4402400000000 1.0
C      1  0.5235100000000  0.4562560000000  0.4909480000000 1.0
C      1  0.5178870000000  0.5733490000000  0.4980700000000 1.0
C      1  0.5146350000000  0.5007720000000  0.5091990000000 1.0
C      1  0.5378560000000  0.4366650000000  0.5399030000000 1.0
C      1  0.5142700000000  0.5358830000000  0.5680680000000 1.0
C      1  0.4832660000000  0.4943550000000  0.5699620000000 1.0
C      1  0.4707980000000  0.5426640000000  0.5326820000000 1.0
C      1  0.5495330000000  0.5220530000000  0.4970470000000 1.0
C      1  0.4219700000000  0.4830490000000  0.4867480000000 1.0
C      1  0.4712980000000  0.5078990000000  0.4938960000000 1.0
C      1  0.4986220000000  0.5227560000000  0.4944760000000 1.0
C      1  0.4541050000000  0.4866350000000  0.5439920000000 1.0
C      1  0.4407450000000  0.4387530000000  0.5195090000000 1.0
C      1  0.4744410000000  0.5592970000000  0.5592370000000 1.0
C      1  0.4995740000000  0.5714580000000  0.5573220000000 1.0
C      1  0.5717620000000  0.5385230000000  0.5171680000000 1.0
END
