TITL C-2778437-8639-1237 0.000929557999490421 125000 -252.668314094695 0 0 46 (C1) n - 1
REM
REM in /home/nfs/bkarasulu/CARBON/AIRSS/Generating-Clusters/REBO/Only-C1/SD-CG/HFTN-CG
REM
REM
REM
REM
REM
REM ./C.cell (11c1c37f851c82e70ff6c80c92926a4b)
REM
REM compiler GCC version 9.2.1 20190827 (Red Hat 9.2.1-1)
REM options -cpp -mtune=generic -march=x86-64 -g -O0 -fpre-include=/usr/include/finclude/math-vector-fortran.h
REM seed -1259526298 -300123986 -1065455180 1081657382 -662333907 1561281516 1409540461 518617318 -880497920 1223866476 -675297289 -1989964432 281600734 -1154357269 2087078790 162666660 -854577829 -1627854016 -775495362 -2076912707 -181413455 -541001860 -1058058209 -110926040 -484412845 -909216750 1567174215 273406876 -1100818773 -1708786015 23617975 164913262 -1273710560
REM
CELL 1.54180   50.00000   50.00000   50.00000   90.00000   90.00000   90.00000
LATT -1
SFAC C  
C      1  0.5207090000000  0.4950290000000  0.4606180000000 1.0
C      1  0.4497820000000  0.4459650000000  0.5151370000000 1.0
C      1  0.5528060000000  0.4590490000000  0.5201680000000 1.0
C      1  0.5660940000000  0.5069420000000  0.4927760000000 1.0
C      1  0.4711380000000  0.4639330000000  0.5135090000000 1.0
C      1  0.5154300000000  0.4961720000000  0.5663930000000 1.0
C      1  0.5455820000000  0.4729590000000  0.4967070000000 1.0
C      1  0.5194250000000  0.5396500000000  0.4570840000000 1.0
C      1  0.5481760000000  0.5498880000000  0.4692840000000 1.0
C      1  0.5225660000000  0.4984790000000  0.5004070000000 1.0
C      1  0.5721330000000  0.4727350000000  0.5362260000000 1.0
C      1  0.4694250000000  0.5358230000000  0.5335520000000 1.0
C      1  0.5027780000000  0.5417790000000  0.5364210000000 1.0
C      1  0.4978410000000  0.4561990000000  0.5277020000000 1.0
C      1  0.5259600000000  0.5571350000000  0.4924400000000 1.0
C      1  0.4913250000000  0.5387900000000  0.4572080000000 1.0
C      1  0.4315760000000  0.4606240000000  0.4621470000000 1.0
C      1  0.5327400000000  0.5295940000000  0.5250180000000 1.0
C      1  0.4943190000000  0.5144520000000  0.4110900000000 1.0
C      1  0.5107410000000  0.5024360000000  0.4296400000000 1.0
C      1  0.5466450000000  0.5040890000000  0.5640660000000 1.0
C      1  0.4644080000000  0.4883170000000  0.4347070000000 1.0
C      1  0.5283100000000  0.4493150000000  0.5355680000000 1.0
C      1  0.5041970000000  0.5604780000000  0.5086580000000 1.0
C      1  0.5311840000000  0.5244440000000  0.4854950000000 1.0
C      1  0.4676000000000  0.5064600000000  0.4142310000000 1.0
C      1  0.5488760000000  0.4914800000000  0.4715150000000 1.0
C      1  0.4929710000000  0.4801030000000  0.4477670000000 1.0
C      1  0.4799610000000  0.5424020000000  0.5039170000000 1.0
C      1  0.4574330000000  0.4697520000000  0.4594700000000 1.0
C      1  0.5227290000000  0.5270690000000  0.5574160000000 1.0
C      1  0.4149780000000  0.5295050000000  0.5236730000000 1.0
C      1  0.5568060000000  0.5155900000000  0.5190660000000 1.0
C      1  0.4858940000000  0.4481680000000  0.4654670000000 1.0
C      1  0.5648770000000  0.4996670000000  0.5423470000000 1.0
C      1  0.4775420000000  0.4738180000000  0.4854170000000 1.0
C      1  0.4929700000000  0.4844390000000  0.5556120000000 1.0
C      1  0.4959960000000  0.4245220000000  0.4620000000000 1.0
C      1  0.4537870000000  0.5553820000000  0.5463660000000 1.0
C      1  0.4814150000000  0.5258420000000  0.4808640000000 1.0
C      1  0.5192170000000  0.4800040000000  0.5257640000000 1.0
C      1  0.4726890000000  0.4859490000000  0.5363840000000 1.0
C      1  0.4293970000000  0.5067120000000  0.5277250000000 1.0
C      1  0.4951320000000  0.4981450000000  0.4832060000000 1.0
C      1  0.4176750000000  0.4821400000000  0.5260800000000 1.0
C      1  0.4567650000000  0.5085740000000  0.5336910000000 1.0
END
