TITL C-2778435-5768-1342 0.000102474362454918 125000 -562.444065940386 0 0 98 (C1) n - 1
REM
REM in /home/nfs/bkarasulu/CARBON/AIRSS/Generating-Clusters/REBO/Only-C1/SD-CG/HFTN-CG
REM
REM
REM
REM
REM
REM ./C.cell (11c1c37f851c82e70ff6c80c92926a4b)
REM
REM compiler GCC version 9.2.1 20190827 (Red Hat 9.2.1-1)
REM options -cpp -mtune=generic -march=x86-64 -g -O0 -fpre-include=/usr/include/finclude/math-vector-fortran.h
REM seed 184871280 -1425838535 453654420 -1374928123 -848332700 -1968379091 -1493499350 -229734145 -1390615129 324790807 1031665138 -337707875 1904104892 2036885195 1121235400 20850931 1412041814 -1545905544 322699608 973216382 991208014 1843856309 2034945297 1433877045 -1242737665 -330330549 -2019042999 -495417414 -1077383719 -417709606 -717180859 -1170073380 1662938345
REM
CELL 1.54180   50.00000   50.00000   50.00000   90.00000   90.00000   90.00000
LATT -1
SFAC C  
C      1  0.5848440000000  0.4353450000000  0.4551330000000 1.0
C      1  0.5119110000000  0.4697690000000  0.4544790000000 1.0
C      1  0.4694510000000  0.4910270000000  0.4312790000000 1.0
C      1  0.4411750000000  0.4623330000000  0.5263800000000 1.0
C      1  0.5694780000000  0.5425040000000  0.5180980000000 1.0
C      1  0.4727480000000  0.4231700000000  0.4930070000000 1.0
C      1  0.4828850000000  0.5339260000000  0.5752970000000 1.0
C      1  0.4402180000000  0.5419580000000  0.4908260000000 1.0
C      1  0.5531960000000  0.4713400000000  0.5642050000000 1.0
C      1  0.4962210000000  0.4557830000000  0.5259790000000 1.0
C      1  0.4337260000000  0.4703220000000  0.4554700000000 1.0
C      1  0.5316550000000  0.5683610000000  0.4990690000000 1.0
C      1  0.4559070000000  0.5226060000000  0.4698130000000 1.0
C      1  0.5515540000000  0.5573040000000  0.5428300000000 1.0
C      1  0.4718410000000  0.4183070000000  0.4653080000000 1.0
C      1  0.4539290000000  0.5638560000000  0.5353100000000 1.0
C      1  0.4716220000000  0.4039700000000  0.5137490000000 1.0
C      1  0.5623740000000  0.5019420000000  0.5590360000000 1.0
C      1  0.4790050000000  0.5722050000000  0.5464120000000 1.0
C      1  0.4514360000000  0.4701790000000  0.5742640000000 1.0
C      1  0.5039450000000  0.5148840000000  0.4598510000000 1.0
C      1  0.4707100000000  0.4761450000000  0.4840960000000 1.0
C      1  0.4418790000000  0.5702170000000  0.4738810000000 1.0
C      1  0.4779090000000  0.4637500000000  0.4163130000000 1.0
C      1  0.5098330000000  0.5795850000000  0.4775430000000 1.0
C      1  0.5268170000000  0.5747030000000  0.5280750000000 1.0
C      1  0.4815390000000  0.5632840000000  0.4761810000000 1.0
C      1  0.5036860000000  0.4647140000000  0.5658600000000 1.0
C      1  0.5113550000000  0.5458150000000  0.4562150000000 1.0
C      1  0.4964570000000  0.5851330000000  0.5277280000000 1.0
C      1  0.5196700000000  0.5386410000000  0.4878040000000 1.0
C      1  0.4404030000000  0.4349200000000  0.5410830000000 1.0
C      1  0.4413850000000  0.4628410000000  0.4953230000000 1.0
C      1  0.4342860000000  0.4862120000000  0.5497730000000 1.0
C      1  0.4787770000000  0.4497730000000  0.5003870000000 1.0
C      1  0.5263570000000  0.4991950000000  0.4771180000000 1.0
C      1  0.5078400000000  0.5122380000000  0.5024900000000 1.0
C      1  0.4266230000000  0.5006500000000  0.4515570000000 1.0
C      1  0.4332380000000  0.4914830000000  0.4831910000000 1.0
C      1  0.4633530000000  0.5077690000000  0.5264970000000 1.0
C      1  0.4752820000000  0.5094330000000  0.4554750000000 1.0
C      1  0.5709530000000  0.5313040000000  0.5491820000000 1.0
C      1  0.5220190000000  0.5594740000000  0.5581660000000 1.0
C      1  0.4813320000000  0.4698530000000  0.4554940000000 1.0
C      1  0.5699620000000  0.4721950000000  0.4882420000000 1.0
C      1  0.4932700000000  0.5397810000000  0.4304890000000 1.0
C      1  0.5025560000000  0.4294070000000  0.5404930000000 1.0
C      1  0.4847850000000  0.4078770000000  0.5375710000000 1.0
C      1  0.4508280000000  0.4376020000000  0.5664520000000 1.0
C      1  0.4945400000000  0.5569320000000  0.5645850000000 1.0
C      1  0.5085890000000  0.4927040000000  0.5835320000000 1.0
C      1  0.4818830000000  0.5346560000000  0.4858040000000 1.0
C      1  0.5538640000000  0.5547850000000  0.4545990000000 1.0
C      1  0.4497660000000  0.4567170000000  0.4349900000000 1.0
C      1  0.4712560000000  0.5574150000000  0.4282480000000 1.0
C      1  0.4844060000000  0.5852160000000  0.4999960000000 1.0
C      1  0.4695230000000  0.4762520000000  0.5285500000000 1.0
C      1  0.4308920000000  0.4381550000000  0.4814300000000 1.0
C      1  0.5289200000000  0.5721060000000  0.4503830000000 1.0
C      1  0.5879020000000  0.5266610000000  0.4961860000000 1.0
C      1  0.5612390000000  0.5265680000000  0.4402790000000 1.0
C      1  0.5640780000000  0.4482460000000  0.4675380000000 1.0
C      1  0.4724830000000  0.4390930000000  0.4469200000000 1.0
C      1  0.5478300000000  0.4976700000000  0.4276740000000 1.0
C      1  0.5325440000000  0.4277460000000  0.5386170000000 1.0
C      1  0.5732490000000  0.5041480000000  0.5283940000000 1.0
C      1  0.5059230000000  0.4641690000000  0.4086060000000 1.0
C      1  0.5177330000000  0.4956200000000  0.4383250000000 1.0
C      1  0.5322720000000  0.4741010000000  0.4083820000000 1.0
C      1  0.5351390000000  0.4504880000000  0.4526990000000 1.0
C      1  0.5987670000000  0.5023020000000  0.5092390000000 1.0
C      1  0.4622140000000  0.5693680000000  0.4519280000000 1.0
C      1  0.5426400000000  0.4434670000000  0.4912600000000 1.0
C      1  0.5965170000000  0.4788280000000  0.4932210000000 1.0
C      1  0.5145230000000  0.5067030000000  0.5321650000000 1.0
C      1  0.5252060000000  0.4707530000000  0.5189620000000 1.0
C      1  0.5514670000000  0.5021530000000  0.4614100000000 1.0
C      1  0.5435450000000  0.4270430000000  0.5125580000000 1.0
C      1  0.5564520000000  0.5530960000000  0.4834610000000 1.0
C      1  0.4754690000000  0.4914180000000  0.5752920000000 1.0
C      1  0.5239320000000  0.4688390000000  0.4863460000000 1.0
C      1  0.4378710000000  0.5133450000000  0.5041060000000 1.0
C      1  0.4964940000000  0.5196580000000  0.5941620000000 1.0
C      1  0.4638960000000  0.5165720000000  0.5565960000000 1.0
C      1  0.4927580000000  0.4895760000000  0.5469710000000 1.0
C      1  0.5289310000000  0.4579340000000  0.5494930000000 1.0
C      1  0.5297930000000  0.4963990000000  0.5603070000000 1.0
C      1  0.5483240000000  0.5234890000000  0.4996260000000 1.0
C      1  0.4773810000000  0.5032580000000  0.4974150000000 1.0
C      1  0.4791840000000  0.4501730000000  0.5748790000000 1.0
C      1  0.4545200000000  0.5694910000000  0.5049310000000 1.0
C      1  0.5776300000000  0.5221150000000  0.4700370000000 1.0
C      1  0.5505600000000  0.4903710000000  0.5074880000000 1.0
C      1  0.4990360000000  0.5151340000000  0.4201910000000 1.0
C      1  0.4369880000000  0.5434870000000  0.5445070000000 1.0
C      1  0.4432920000000  0.5095940000000  0.4315200000000 1.0
C      1  0.4318330000000  0.5168890000000  0.5652400000000 1.0
C      1  0.4245190000000  0.5140120000000  0.5324800000000 1.0
END
