TITL C-2778426-5645-579 -1.2917329510548e-07 125000 -129.751969174574 0 0 23 (C1) n - 1
REM
REM in /home/nfs/bkarasulu/CARBON/AIRSS/Generating-Clusters/REBO/Only-C1/SD-CG/HFTN-CG
REM
REM
REM
REM
REM
REM ./C.cell (11c1c37f851c82e70ff6c80c92926a4b)
REM
REM compiler GCC version 9.2.1 20190827 (Red Hat 9.2.1-1)
REM options -cpp -mtune=generic -march=x86-64 -g -O0 -fpre-include=/usr/include/finclude/math-vector-fortran.h
REM seed 1712460910 916112408 -1163589946 1316270552 339503867 699504697 -1732536928 178950804 -1556834426 559884696 1976803471 -1702890274 303942470 -1203879065 546293163 1009180682 1152950802 -1484128931 614576829 -862385290 -1890604370 -738658410 662782111 -849021389 -923150058 958591580 -991613338 1070136113 54624989 -1479847875 1195778954 484221183 2097214251
REM
CELL 1.54180   50.00000   50.00000   50.00000   90.00000   90.00000   90.00000
LATT -1
SFAC C  
C      1  0.5098140000000  0.4729620000000  0.4507000000000 1.0
C      1  0.4965170000000  0.5665930000000  0.5291830000000 1.0
C      1  0.5327150000000  0.5131590000000  0.5061270000000 1.0
C      1  0.4782320000000  0.4795730000000  0.5469030000000 1.0
C      1  0.4660610000000  0.4636080000000  0.5653340000000 1.0
C      1  0.5222580000000  0.5386230000000  0.5023580000000 1.0
C      1  0.5174320000000  0.4429120000000  0.4611030000000 1.0
C      1  0.5006550000000  0.4697930000000  0.5319230000000 1.0
C      1  0.5095820000000  0.4231650000000  0.4791460000000 1.0
C      1  0.4899960000000  0.5209770000000  0.4615180000000 1.0
C      1  0.4956840000000  0.4966950000000  0.4508510000000 1.0
C      1  0.4648970000000  0.5290120000000  0.5290090000000 1.0
C      1  0.4734590000000  0.5724390000000  0.4457780000000 1.0
C      1  0.5386310000000  0.4841870000000  0.4932110000000 1.0
C      1  0.4679570000000  0.5048660000000  0.5404390000000 1.0
C      1  0.4822180000000  0.5514220000000  0.4600190000000 1.0
C      1  0.5040420000000  0.4241050000000  0.5057740000000 1.0
C      1  0.5347950000000  0.4685610000000  0.4705880000000 1.0
C      1  0.5185370000000  0.4864310000000  0.5184990000000 1.0
C      1  0.4782720000000  0.5490680000000  0.5147660000000 1.0
C      1  0.5229600000000  0.5599200000000  0.5220200000000 1.0
C      1  0.4936810000000  0.5397280000000  0.4889850000000 1.0
C      1  0.5016050000000  0.4422030000000  0.5257680000000 1.0
END
