TITL C-2778422-5617-155 0.0260867944557887 125000 -128.595064675853 0 0 25 (C1) n - 1
REM
REM in /home/nfs/bkarasulu/CARBON/AIRSS/Generating-Clusters/REBO/Only-C1/SD-CG/HFTN-CG
REM
REM
REM
REM
REM
REM ./C.cell (11c1c37f851c82e70ff6c80c92926a4b)
REM
REM compiler GCC version 9.2.1 20190827 (Red Hat 9.2.1-1)
REM options -cpp -mtune=generic -march=x86-64 -g -O0 -fpre-include=/usr/include/finclude/math-vector-fortran.h
REM seed -1791211554 1924812676 -545913999 763121832 391577405 1332941295 -1688951349 639056619 -566760429 54944668 1822206285 1530712196 -2078294616 -232469524 713429099 407226637 1024175518 -1985293081 1980224033 -1505162185 -932393414 1868300060 -335758081 358105559 -1442261324 66056286 -477460680 -1141160726 45426202 -47143828 1554850573 -73106315 328867470
REM
CELL 1.54180   50.00000   50.00000   50.00000   90.00000   90.00000   90.00000
LATT -1
SFAC C  
C      1  0.4599330000000  0.5638430000000  0.4875330000000 1.0
C      1  0.4740410000000  0.4445140000000  0.5094220000000 1.0
C      1  0.5030040000000  0.5597600000000  0.5221530000000 1.0
C      1  0.4806900000000  0.5382250000000  0.5299630000000 1.0
C      1  0.4555310000000  0.4309830000000  0.5246930000000 1.0
C      1  0.4702210000000  0.4633440000000  0.4597770000000 1.0
C      1  0.5516740000000  0.5705380000000  0.5235230000000 1.0
C      1  0.5096270000000  0.4493430000000  0.5443070000000 1.0
C      1  0.4790660000000  0.4873390000000  0.5432890000000 1.0
C      1  0.4912640000000  0.5043190000000  0.4801420000000 1.0
C      1  0.4883320000000  0.4932190000000  0.5048610000000 1.0
C      1  0.4760930000000  0.5140860000000  0.5418800000000 1.0
C      1  0.5238940000000  0.4421710000000  0.4545710000000 1.0
C      1  0.5309870000000  0.5378110000000  0.4906390000000 1.0
C      1  0.4989360000000  0.5330370000000  0.4802520000000 1.0
C      1  0.4951240000000  0.4646980000000  0.5233660000000 1.0
C      1  0.5379590000000  0.4855380000000  0.4996800000000 1.0
C      1  0.5190950000000  0.4663160000000  0.4991170000000 1.0
C      1  0.5075750000000  0.4566980000000  0.4717020000000 1.0
C      1  0.5449310000000  0.5111880000000  0.4960060000000 1.0
C      1  0.5295790000000  0.5573890000000  0.5137640000000 1.0
C      1  0.4919930000000  0.4847920000000  0.4598600000000 1.0
C      1  0.5216840000000  0.5472100000000  0.4592700000000 1.0
C      1  0.4777160000000  0.4434870000000  0.4815900000000 1.0
C      1  0.4810520000000  0.5501520000000  0.4986380000000 1.0
END
