TITL C-2778434-4341-66 0.00312313181743718 125000 -449.472314825089 0 0 80 (C1) n - 1
REM
REM in /home/nfs/bkarasulu/CARBON/AIRSS/Generating-Clusters/REBO/Only-C1/SD-CG/HFTN-CG
REM
REM
REM
REM
REM
REM ./C.cell (11c1c37f851c82e70ff6c80c92926a4b)
REM
REM compiler GCC version 9.2.1 20190827 (Red Hat 9.2.1-1)
REM options -cpp -mtune=generic -march=x86-64 -g -O0 -fpre-include=/usr/include/finclude/math-vector-fortran.h
REM seed 1263335523 -2120086614 883392258 1349445458 -486996814 1357323028 -2040600888 -1261441378 -64050052 1403031935 1008761880 -1576926663 -1805874226 726880737 806584914 564461041 1820395669 -1501424403 1978525700 2000018375 568639369 1791625090 1634577126 746919077 1721197221 1515771349 -949466750 1606612028 56835568 -956617310 1862390663 -1529919126 -1394393700
REM
CELL 1.54180   50.00000   50.00000   50.00000   90.00000   90.00000   90.00000
LATT -1
SFAC C  
C      1  0.4597060000000  0.4644870000000  0.5388820000000 1.0
C      1  0.5329340000000  0.5603540000000  0.5567210000000 1.0
C      1  0.5151670000000  0.5651180000000  0.4595280000000 1.0
C      1  0.5344850000000  0.4535320000000  0.5614980000000 1.0
C      1  0.4963000000000  0.5819950000000  0.5141230000000 1.0
C      1  0.5657050000000  0.4818660000000  0.5002630000000 1.0
C      1  0.4629180000000  0.5470930000000  0.4556450000000 1.0
C      1  0.4576570000000  0.4773790000000  0.5640550000000 1.0
C      1  0.4733430000000  0.5005570000000  0.5719670000000 1.0
C      1  0.5502460000000  0.4896670000000  0.4513090000000 1.0
C      1  0.5573790000000  0.5501730000000  0.5422600000000 1.0
C      1  0.5555730000000  0.5843690000000  0.5012430000000 1.0
C      1  0.4868390000000  0.4455060000000  0.4552060000000 1.0
C      1  0.4775930000000  0.5762130000000  0.4941000000000 1.0
C      1  0.5159740000000  0.4568390000000  0.4473920000000 1.0
C      1  0.5479870000000  0.4272000000000  0.4944420000000 1.0
C      1  0.5211350000000  0.4303860000000  0.4802740000000 1.0
C      1  0.5042620000000  0.5609080000000  0.5293640000000 1.0
C      1  0.4200240000000  0.4675440000000  0.5131580000000 1.0
C      1  0.5679620000000  0.5386580000000  0.4823250000000 1.0
C      1  0.4746740000000  0.4345970000000  0.5338780000000 1.0
C      1  0.4517410000000  0.5704210000000  0.5015060000000 1.0
C      1  0.5095690000000  0.4925800000000  0.5126080000000 1.0
C      1  0.5384740000000  0.4653620000000  0.4620310000000 1.0
C      1  0.4444750000000  0.4434430000000  0.4799980000000 1.0
C      1  0.4759690000000  0.4361650000000  0.4301440000000 1.0
C      1  0.4880870000000  0.4786400000000  0.4122210000000 1.0
C      1  0.5231630000000  0.5412210000000  0.4825860000000 1.0
C      1  0.4968920000000  0.4787090000000  0.5390680000000 1.0
C      1  0.4855560000000  0.4791490000000  0.4603410000000 1.0
C      1  0.5110830000000  0.4999750000000  0.4514490000000 1.0
C      1  0.5041000000000  0.5649010000000  0.4310860000000 1.0
C      1  0.5297460000000  0.4777720000000  0.5708480000000 1.0
C      1  0.5334100000000  0.4953380000000  0.4261220000000 1.0
C      1  0.4863190000000  0.5183400000000  0.4410310000000 1.0
C      1  0.4827890000000  0.4930420000000  0.4914870000000 1.0
C      1  0.4264110000000  0.4900020000000  0.4920670000000 1.0
C      1  0.4223260000000  0.4575730000000  0.6001700000000 1.0
C      1  0.4630830000000  0.5268270000000  0.5651150000000 1.0
C      1  0.4746850000000  0.5026760000000  0.5293490000000 1.0
C      1  0.5270320000000  0.5137460000000  0.4731720000000 1.0
C      1  0.4792380000000  0.4246260000000  0.5064230000000 1.0
C      1  0.5570040000000  0.5115510000000  0.4713940000000 1.0
C      1  0.5334720000000  0.5248610000000  0.5888370000000 1.0
C      1  0.5556800000000  0.5537770000000  0.5102090000000 1.0
C      1  0.5305250000000  0.5118720000000  0.5239490000000 1.0
C      1  0.5463540000000  0.5632030000000  0.4726250000000 1.0
C      1  0.5150700000000  0.5794660000000  0.4105060000000 1.0
C      1  0.4346110000000  0.4675110000000  0.4677500000000 1.0
C      1  0.4829270000000  0.5493210000000  0.5484040000000 1.0
C      1  0.5167030000000  0.5390450000000  0.5673050000000 1.0
C      1  0.4719270000000  0.4954750000000  0.4264840000000 1.0
C      1  0.4877130000000  0.5224990000000  0.4747790000000 1.0
C      1  0.5056680000000  0.4996490000000  0.5719340000000 1.0
C      1  0.5004510000000  0.4475610000000  0.4974350000000 1.0
C      1  0.4539380000000  0.4842590000000  0.4488170000000 1.0
C      1  0.4876270000000  0.5566800000000  0.4738900000000 1.0
C      1  0.5346820000000  0.4443870000000  0.5354470000000 1.0
C      1  0.4376320000000  0.5063240000000  0.4660910000000 1.0
C      1  0.4393890000000  0.4671380000000  0.5827290000000 1.0
C      1  0.4969850000000  0.4524260000000  0.5460020000000 1.0
C      1  0.5137850000000  0.4722830000000  0.4226560000000 1.0
C      1  0.4976520000000  0.5196350000000  0.5467710000000 1.0
C      1  0.5954190000000  0.5424100000000  0.4782150000000 1.0
C      1  0.4717760000000  0.4637660000000  0.5067290000000 1.0
C      1  0.4404730000000  0.4486970000000  0.5089440000000 1.0
C      1  0.5343440000000  0.5058230000000  0.5538260000000 1.0
C      1  0.4532420000000  0.5062990000000  0.5028770000000 1.0
C      1  0.5233600000000  0.4625840000000  0.5120910000000 1.0
C      1  0.5477450000000  0.4224600000000  0.5226360000000 1.0
C      1  0.5469910000000  0.4594160000000  0.4895710000000 1.0
C      1  0.5578180000000  0.5029500000000  0.5110030000000 1.0
C      1  0.5257560000000  0.5422650000000  0.5190830000000 1.0
C      1  0.4459090000000  0.5396260000000  0.5035500000000 1.0
C      1  0.4701650000000  0.4315280000000  0.4773190000000 1.0
C      1  0.5156870000000  0.4178540000000  0.4563290000000 1.0
C      1  0.4581040000000  0.5324460000000  0.5322540000000 1.0
C      1  0.4815090000000  0.5476890000000  0.4301130000000 1.0
C      1  0.5548580000000  0.5277080000000  0.5634780000000 1.0
C      1  0.4450420000000  0.5326060000000  0.4715140000000 1.0
END
