TITL C-2778422-5617-1356 -0.00265722697217744 125000 -458.282754989908 0 0 79 (C1) n - 1
REM
REM in /home/nfs/bkarasulu/CARBON/AIRSS/Generating-Clusters/REBO/Only-C1/SD-CG/HFTN-CG
REM
REM
REM
REM
REM
REM ./C.cell (11c1c37f851c82e70ff6c80c92926a4b)
REM
REM compiler GCC version 9.2.1 20190827 (Red Hat 9.2.1-1)
REM options -cpp -mtune=generic -march=x86-64 -g -O0 -fpre-include=/usr/include/finclude/math-vector-fortran.h
REM seed -1310310912 1265904940 -2053244445 299271118 -1051385443 1430573129 -1063920994 -803943579 -1524032625 -1941479334 929132419 363976463 -1272419559 -1308771227 2006787809 1184169010 -1456188966 -640548772 -2052540607 1046107082 -1153790459 -1113375101 354539533 -1646645150 1676931913 -1437034780 1553062002 -840557755 -701695831 1526184990 432060299 -105478616 1742833129
REM
CELL 1.54180   50.00000   50.00000   50.00000   90.00000   90.00000   90.00000
LATT -1
SFAC C  
C      1  0.5571890000000  0.4588440000000  0.4352740000000 1.0
C      1  0.5158080000000  0.4044670000000  0.4598490000000 1.0
C      1  0.4880030000000  0.5074500000000  0.4575420000000 1.0
C      1  0.5001980000000  0.5846930000000  0.4780180000000 1.0
C      1  0.4889320000000  0.5717330000000  0.4558610000000 1.0
C      1  0.5532220000000  0.5036280000000  0.5517470000000 1.0
C      1  0.4582970000000  0.5338100000000  0.5557060000000 1.0
C      1  0.5676290000000  0.4895950000000  0.4858240000000 1.0
C      1  0.5193190000000  0.4770240000000  0.5094990000000 1.0
C      1  0.4737280000000  0.5256540000000  0.5293550000000 1.0
C      1  0.4828600000000  0.5695090000000  0.5335850000000 1.0
C      1  0.4349590000000  0.4938350000000  0.5610310000000 1.0
C      1  0.4898770000000  0.5297600000000  0.4334990000000 1.0
C      1  0.5254540000000  0.4576810000000  0.4422700000000 1.0
C      1  0.4574200000000  0.5092830000000  0.5706810000000 1.0
C      1  0.4849160000000  0.4876620000000  0.5325430000000 1.0
C      1  0.4238590000000  0.5120040000000  0.5358010000000 1.0
C      1  0.4969640000000  0.5677030000000  0.5072430000000 1.0
C      1  0.4782110000000  0.4799250000000  0.4482120000000 1.0
C      1  0.5008930000000  0.5642480000000  0.5553930000000 1.0
C      1  0.5197760000000  0.4257860000000  0.5280050000000 1.0
C      1  0.4813870000000  0.4438750000000  0.4651530000000 1.0
C      1  0.4536670000000  0.4480780000000  0.4798560000000 1.0
C      1  0.5118480000000  0.4227900000000  0.4800850000000 1.0
C      1  0.5188270000000  0.4537590000000  0.4751060000000 1.0
C      1  0.5823580000000  0.5058830000000  0.5438920000000 1.0
C      1  0.5447590000000  0.4657510000000  0.4915960000000 1.0
C      1  0.4702090000000  0.4860030000000  0.5028230000000 1.0
C      1  0.5716460000000  0.4818440000000  0.4394520000000 1.0
C      1  0.5579290000000  0.4562060000000  0.5342230000000 1.0
C      1  0.5490170000000  0.5315720000000  0.5037020000000 1.0
C      1  0.4397440000000  0.5545330000000  0.4517500000000 1.0
C      1  0.4372600000000  0.4584600000000  0.5262940000000 1.0
C      1  0.4555130000000  0.5600110000000  0.5377960000000 1.0
C      1  0.4921890000000  0.4573590000000  0.5459590000000 1.0
C      1  0.4412580000000  0.4658970000000  0.5557160000000 1.0
C      1  0.5754250000000  0.5258150000000  0.5006290000000 1.0
C      1  0.5335810000000  0.5479990000000  0.4528250000000 1.0
C      1  0.5344200000000  0.5171520000000  0.5293190000000 1.0
C      1  0.5734080000000  0.4670630000000  0.5102560000000 1.0
C      1  0.4516730000000  0.4699450000000  0.4587970000000 1.0
C      1  0.5281080000000  0.4814550000000  0.4199630000000 1.0
C      1  0.5092940000000  0.4931570000000  0.5744670000000 1.0
C      1  0.4428360000000  0.4878130000000  0.5223680000000 1.0
C      1  0.5313930000000  0.5408870000000  0.4840680000000 1.0
C      1  0.5193370000000  0.4685990000000  0.5623600000000 1.0
C      1  0.4571940000000  0.5236960000000  0.5009910000000 1.0
C      1  0.4842820000000  0.4416940000000  0.5191020000000 1.0
C      1  0.4759450000000  0.5318050000000  0.4780260000000 1.0
C      1  0.5198340000000  0.5924050000000  0.5010130000000 1.0
C      1  0.4353990000000  0.5300440000000  0.4384660000000 1.0
C      1  0.4371580000000  0.5388140000000  0.5226100000000 1.0
C      1  0.5019770000000  0.4176170000000  0.5059130000000 1.0
C      1  0.4896210000000  0.4605490000000  0.4921730000000 1.0
C      1  0.4651990000000  0.5569910000000  0.4635050000000 1.0
C      1  0.4049160000000  0.4977130000000  0.5146170000000 1.0
C      1  0.4158890000000  0.4910520000000  0.4929950000000 1.0
C      1  0.5465910000000  0.4731360000000  0.5552520000000 1.0
C      1  0.5295590000000  0.4520970000000  0.5259220000000 1.0
C      1  0.5159770000000  0.5067670000000  0.4705360000000 1.0
C      1  0.5023590000000  0.5163670000000  0.5378800000000 1.0
C      1  0.4946770000000  0.4561260000000  0.4423750000000 1.0
C      1  0.5335510000000  0.5055050000000  0.4238870000000 1.0
C      1  0.5391950000000  0.5166430000000  0.4527120000000 1.0
C      1  0.5275720000000  0.5150560000000  0.5688360000000 1.0
C      1  0.5015690000000  0.5384890000000  0.4945940000000 1.0
C      1  0.5851090000000  0.4982560000000  0.5141460000000 1.0
C      1  0.6021350000000  0.5131020000000  0.5596000000000 1.0
C      1  0.4445480000000  0.4994070000000  0.4844780000000 1.0
C      1  0.4821080000000  0.4957890000000  0.5655180000000 1.0
C      1  0.4626920000000  0.5172850000000  0.4283460000000 1.0
C      1  0.4541580000000  0.4438190000000  0.5082930000000 1.0
C      1  0.5165870000000  0.5082880000000  0.5017540000000 1.0
C      1  0.5142640000000  0.5397290000000  0.5583460000000 1.0
C      1  0.5650820000000  0.5003700000000  0.4587690000000 1.0
C      1  0.5051690000000  0.5528430000000  0.4410490000000 1.0
C      1  0.4664260000000  0.4554060000000  0.5655560000000 1.0
C      1  0.4450150000000  0.5015420000000  0.4528490000000 1.0
C      1  0.5536410000000  0.5654020000000  0.4445000000000 1.0
END
