TITL C-2778422-5617-743 -0.00115818283732237 125000 -518.119091894035 0 0 89 (C1) n - 1
REM
REM in /home/nfs/bkarasulu/CARBON/AIRSS/Generating-Clusters/REBO/Only-C1/SD-CG/HFTN-CG
REM
REM
REM
REM
REM
REM ./C.cell (11c1c37f851c82e70ff6c80c92926a4b)
REM
REM compiler GCC version 9.2.1 20190827 (Red Hat 9.2.1-1)
REM options -cpp -mtune=generic -march=x86-64 -g -O0 -fpre-include=/usr/include/finclude/math-vector-fortran.h
REM seed 463661276 -244390474 1169795604 367860329 -20764383 1493961634 -2059025345 1073302581 926265206 -199621196 -730848965 -937610128 1198529614 -1522583375 75919698 618465752 289181341 1617818862 -27848269 533382821 -1475875048 2016198424 455541409 1201752572 312618462 1824004454 -528375190 272525886 -999932696 -1568387179 1606197616 -819163049 1302055636
REM
CELL 1.54180   50.00000   50.00000   50.00000   90.00000   90.00000   90.00000
LATT -1
SFAC C  
C      1  0.4566590000000  0.4437330000000  0.4881980000000 1.0
C      1  0.4653650000000  0.4961210000000  0.4195340000000 1.0
C      1  0.5059600000000  0.5387080000000  0.4412300000000 1.0
C      1  0.4870330000000  0.4536530000000  0.4494430000000 1.0
C      1  0.4912670000000  0.5780330000000  0.4924120000000 1.0
C      1  0.4405070000000  0.5418360000000  0.5347820000000 1.0
C      1  0.5131700000000  0.4295930000000  0.5060720000000 1.0
C      1  0.5019110000000  0.4655580000000  0.4241400000000 1.0
C      1  0.5008410000000  0.5713280000000  0.4652400000000 1.0
C      1  0.5275320000000  0.4865050000000  0.5864790000000 1.0
C      1  0.4310360000000  0.4641050000000  0.5278400000000 1.0
C      1  0.4580940000000  0.5579100000000  0.4463130000000 1.0
C      1  0.4166650000000  0.4972160000000  0.4811190000000 1.0
C      1  0.4640070000000  0.4713880000000  0.4991720000000 1.0
C      1  0.5558000000000  0.4957550000000  0.5400670000000 1.0
C      1  0.4766180000000  0.4789650000000  0.5262300000000 1.0
C      1  0.4775250000000  0.5424760000000  0.5497260000000 1.0
C      1  0.4363210000000  0.4624000000000  0.4511280000000 1.0
C      1  0.4469510000000  0.5898190000000  0.5430670000000 1.0
C      1  0.5450900000000  0.4310740000000  0.5119560000000 1.0
C      1  0.5087590000000  0.4445870000000  0.4693770000000 1.0
C      1  0.4198370000000  0.4675860000000  0.4754720000000 1.0
C      1  0.5296300000000  0.5576410000000  0.4671680000000 1.0
C      1  0.4868450000000  0.5642630000000  0.4403620000000 1.0
C      1  0.5112880000000  0.4679490000000  0.4915680000000 1.0
C      1  0.4567520000000  0.5329610000000  0.4905460000000 1.0
C      1  0.4984410000000  0.4547220000000  0.5627490000000 1.0
C      1  0.5717160000000  0.4643390000000  0.4453540000000 1.0
C      1  0.5293450000000  0.4593850000000  0.4194310000000 1.0
C      1  0.5350000000000  0.4585040000000  0.4593490000000 1.0
C      1  0.4959950000000  0.4565360000000  0.5178180000000 1.0
C      1  0.5501330000000  0.4685940000000  0.4822980000000 1.0
C      1  0.4866350000000  0.4241010000000  0.5241510000000 1.0
C      1  0.5519800000000  0.4749480000000  0.4272850000000 1.0
C      1  0.5192230000000  0.4890710000000  0.5173200000000 1.0
C      1  0.5741180000000  0.4970250000000  0.5124060000000 1.0
C      1  0.4623900000000  0.5260990000000  0.5657100000000 1.0
C      1  0.4902240000000  0.4845430000000  0.4621350000000 1.0
C      1  0.5613620000000  0.4363670000000  0.4618560000000 1.0
C      1  0.4669050000000  0.4908610000000  0.4781350000000 1.0
C      1  0.5111250000000  0.4972350000000  0.5415620000000 1.0
C      1  0.4631780000000  0.5713900000000  0.4995690000000 1.0
C      1  0.5598440000000  0.5624790000000  0.5085120000000 1.0
C      1  0.5274210000000  0.4631930000000  0.5691460000000 1.0
C      1  0.4519150000000  0.5214190000000  0.5167970000000 1.0
C      1  0.5914040000000  0.4700250000000  0.5038410000000 1.0
C      1  0.4761910000000  0.5097950000000  0.5267550000000 1.0
C      1  0.5444680000000  0.4872180000000  0.5027920000000 1.0
C      1  0.4573150000000  0.4867970000000  0.5533230000000 1.0
C      1  0.5861910000000  0.4838760000000  0.4612180000000 1.0
C      1  0.4588710000000  0.4452070000000  0.4585760000000 1.0
C      1  0.4426120000000  0.4994320000000  0.4647100000000 1.0
C      1  0.5348570000000  0.4249730000000  0.4801070000000 1.0
C      1  0.4111060000000  0.5036820000000  0.5080540000000 1.0
C      1  0.4766390000000  0.5081370000000  0.5809890000000 1.0
C      1  0.4991510000000  0.5324690000000  0.5262590000000 1.0
C      1  0.4936170000000  0.4925820000000  0.4189840000000 1.0
C      1  0.5471960000000  0.4689140000000  0.5474550000000 1.0
C      1  0.5767980000000  0.4544150000000  0.4864620000000 1.0
C      1  0.4901150000000  0.5347290000000  0.4953270000000 1.0
C      1  0.4489410000000  0.5682760000000  0.5264720000000 1.0
C      1  0.4898600000000  0.4851010000000  0.5633530000000 1.0
C      1  0.4722980000000  0.3984340000000  0.5190990000000 1.0
C      1  0.5392700000000  0.5720040000000  0.4918960000000 1.0
C      1  0.4433050000000  0.4887760000000  0.4356490000000 1.0
C      1  0.5170700000000  0.5350030000000  0.5531090000000 1.0
C      1  0.5736150000000  0.5428390000000  0.5302700000000 1.0
C      1  0.5121110000000  0.5287740000000  0.4735060000000 1.0
C      1  0.4755710000000  0.5345000000000  0.4639460000000 1.0
C      1  0.4226380000000  0.4916530000000  0.5311740000000 1.0
C      1  0.5543220000000  0.4472640000000  0.5307480000000 1.0
C      1  0.5491840000000  0.5258170000000  0.5467710000000 1.0
C      1  0.4527710000000  0.4545830000000  0.5468500000000 1.0
C      1  0.5455740000000  0.5593670000000  0.5392060000000 1.0
C      1  0.4289030000000  0.4525670000000  0.5006550000000 1.0
C      1  0.5216290000000  0.5083590000000  0.5698900000000 1.0
C      1  0.5396860000000  0.5346620000000  0.4454610000000 1.0
C      1  0.4358970000000  0.5125870000000  0.5520820000000 1.0
C      1  0.5461780000000  0.5090110000000  0.4659020000000 1.0
C      1  0.5440980000000  0.5033780000000  0.4327100000000 1.0
C      1  0.4474000000000  0.5602870000000  0.4750840000000 1.0
C      1  0.5069270000000  0.5579700000000  0.5717830000000 1.0
C      1  0.5728230000000  0.5012200000000  0.4785340000000 1.0
C      1  0.4775980000000  0.4404320000000  0.5494000000000 1.0
C      1  0.5075610000000  0.5822920000000  0.5589750000000 1.0
C      1  0.5134320000000  0.5123060000000  0.4244790000000 1.0
C      1  0.5226440000000  0.5800010000000  0.5353470000000 1.0
C      1  0.5161970000000  0.5813920000000  0.5077070000000 1.0
C      1  0.5175540000000  0.4969180000000  0.4748690000000 1.0
END
