TITL C-2778428-5639-1403 0.0042343133530729 125000 -369.104732178503 0 0 67 (C1) n - 1
REM
REM in /home/nfs/bkarasulu/CARBON/AIRSS/Generating-Clusters/REBO/Only-C1/SD-CG/HFTN-CG
REM
REM
REM
REM
REM
REM ./C.cell (11c1c37f851c82e70ff6c80c92926a4b)
REM
REM compiler GCC version 9.2.1 20190827 (Red Hat 9.2.1-1)
REM options -cpp -mtune=generic -march=x86-64 -g -O0 -fpre-include=/usr/include/finclude/math-vector-fortran.h
REM seed -1859861847 -286536324 379041977 155175838 -746639554 1699175243 -1986184067 -31417654 -1359226028 -1285127955 613674296 -1457590525 -241881910 2036052474 1830409606 -1355834383 497327546 1698524616 -553522781 -1075212763 669414328 437689396 -42524535 -594309813 155217753 -1343388711 -945037644 -153665592 -794110035 1580585834 -1392520083 580571137 1078066645
REM
CELL 1.54180   50.00000   50.00000   50.00000   90.00000   90.00000   90.00000
LATT -1
SFAC C  
C      1  0.4330650000000  0.5252140000000  0.5277720000000 1.0
C      1  0.5077850000000  0.4501440000000  0.4760890000000 1.0
C      1  0.4480650000000  0.4193560000000  0.4400800000000 1.0
C      1  0.4956840000000  0.5028100000000  0.4840640000000 1.0
C      1  0.5283680000000  0.5018800000000  0.4804110000000 1.0
C      1  0.5178630000000  0.5020120000000  0.5520830000000 1.0
C      1  0.4494920000000  0.5397230000000  0.5046740000000 1.0
C      1  0.5118800000000  0.5674510000000  0.4915000000000 1.0
C      1  0.5517070000000  0.4540980000000  0.4491120000000 1.0
C      1  0.5130090000000  0.5590080000000  0.5213420000000 1.0
C      1  0.5436740000000  0.5336020000000  0.5181930000000 1.0
C      1  0.5360760000000  0.5540490000000  0.4741930000000 1.0
C      1  0.5210210000000  0.4445610000000  0.4490600000000 1.0
C      1  0.4616920000000  0.4453290000000  0.5023460000000 1.0
C      1  0.4687610000000  0.4982680000000  0.5773150000000 1.0
C      1  0.4564530000000  0.5114540000000  0.4512350000000 1.0
C      1  0.4806270000000  0.4441850000000  0.5291250000000 1.0
C      1  0.4708490000000  0.4290460000000  0.4514710000000 1.0
C      1  0.4592780000000  0.4747340000000  0.4986370000000 1.0
C      1  0.4973020000000  0.5255930000000  0.5467980000000 1.0
C      1  0.4560530000000  0.5561080000000  0.4776900000000 1.0
C      1  0.5272390000000  0.4497680000000  0.5027120000000 1.0
C      1  0.4438730000000  0.4952760000000  0.4782690000000 1.0
C      1  0.4616330000000  0.5086090000000  0.5042280000000 1.0
C      1  0.5516600000000  0.5206770000000  0.5608530000000 1.0
C      1  0.5406910000000  0.5029940000000  0.5272850000000 1.0
C      1  0.4242160000000  0.5167680000000  0.4611810000000 1.0
C      1  0.4814790000000  0.5540350000000  0.5238220000000 1.0
C      1  0.4437250000000  0.5426990000000  0.4557430000000 1.0
C      1  0.5076610000000  0.4682120000000  0.4258030000000 1.0
C      1  0.4408730000000  0.4939450000000  0.5350040000000 1.0
C      1  0.5675380000000  0.4503420000000  0.4708210000000 1.0
C      1  0.5081680000000  0.4631320000000  0.5256560000000 1.0
C      1  0.4555240000000  0.5720080000000  0.5139660000000 1.0
C      1  0.4259410000000  0.4755590000000  0.5206900000000 1.0
C      1  0.5270210000000  0.5378910000000  0.4477360000000 1.0
C      1  0.4796250000000  0.5306350000000  0.5759530000000 1.0
C      1  0.5241600000000  0.5296090000000  0.4938940000000 1.0
C      1  0.5441300000000  0.4850160000000  0.5625590000000 1.0
C      1  0.5733610000000  0.4843560000000  0.5140390000000 1.0
C      1  0.4741070000000  0.4289410000000  0.4794740000000 1.0
C      1  0.4672580000000  0.5153610000000  0.5412940000000 1.0
C      1  0.5256570000000  0.4632070000000  0.5495210000000 1.0
C      1  0.5376850000000  0.4779850000000  0.4359760000000 1.0
C      1  0.5198920000000  0.5247550000000  0.4200540000000 1.0
C      1  0.5841070000000  0.5283300000000  0.4889980000000 1.0
C      1  0.5693510000000  0.4963520000000  0.5444700000000 1.0
C      1  0.4698250000000  0.5532530000000  0.5534930000000 1.0
C      1  0.4908420000000  0.4410020000000  0.4357370000000 1.0
C      1  0.5917450000000  0.5034160000000  0.4974170000000 1.0
C      1  0.5346750000000  0.5047850000000  0.4510160000000 1.0
C      1  0.4923020000000  0.5335020000000  0.4989670000000 1.0
C      1  0.4437860000000  0.5361310000000  0.5552630000000 1.0
C      1  0.5002310000000  0.5036160000000  0.5796100000000 1.0
C      1  0.4855430000000  0.5110790000000  0.4523580000000 1.0
C      1  0.4904340000000  0.4726350000000  0.4736710000000 1.0
C      1  0.5616050000000  0.5429090000000  0.4927570000000 1.0
C      1  0.4986850000000  0.4315180000000  0.5031100000000 1.0
C      1  0.4571000000000  0.4809660000000  0.5589770000000 1.0
C      1  0.4838710000000  0.5649010000000  0.4762110000000 1.0
C      1  0.4983470000000  0.5378290000000  0.4649390000000 1.0
C      1  0.4658160000000  0.4554370000000  0.5537930000000 1.0
C      1  0.5419880000000  0.4867630000000  0.5008940000000 1.0
C      1  0.5281560000000  0.5399680000000  0.5453400000000 1.0
C      1  0.4872470000000  0.4872580000000  0.5136300000000 1.0
C      1  0.5575810000000  0.4580700000000  0.4989450000000 1.0
C      1  0.5049420000000  0.4998750000000  0.4306790000000 1.0
END
