TITL C-2778435-5768-1483 0.00290757968475348 125000 -994.693661925083 0 0 170 (C1) n - 1
REM
REM in /home/nfs/bkarasulu/CARBON/AIRSS/Generating-Clusters/REBO/Only-C1/SD-CG/HFTN-CG
REM
REM
REM
REM
REM
REM ./C.cell (11c1c37f851c82e70ff6c80c92926a4b)
REM
REM compiler GCC version 9.2.1 20190827 (Red Hat 9.2.1-1)
REM options -cpp -mtune=generic -march=x86-64 -g -O0 -fpre-include=/usr/include/finclude/math-vector-fortran.h
REM seed 1730734642 1819333073 -956183066 -509187055 1467466373 386597163 -425695618 1937601175 411145651 1504881684 -1266779291 -849863335 -1577939727 -2130818955 -291111363 -413615714 622949320 -1230293232 1776056291 1617052421 -2072516268 1063682287 -1427774432 547265311 1586041613 -1301526912 -1964114813 -1972423956 204721267 -619894657 -276053394 -789303920 1758606811
REM
CELL 1.54180   50.00000   50.00000   50.00000   90.00000   90.00000   90.00000
LATT -1
SFAC C  
C      1  0.5481640000000  0.5359870000000  0.4383650000000 1.0
C      1  0.5024780000000  0.5079350000000  0.5061300000000 1.0
C      1  0.5431570000000  0.4442190000000  0.5940060000000 1.0
C      1  0.4716130000000  0.4638370000000  0.4713960000000 1.0
C      1  0.4351470000000  0.5631610000000  0.4589890000000 1.0
C      1  0.5078020000000  0.4763390000000  0.4822000000000 1.0
C      1  0.4558950000000  0.4147890000000  0.5428210000000 1.0
C      1  0.5059570000000  0.5780410000000  0.4377770000000 1.0
C      1  0.4700030000000  0.4693360000000  0.3933960000000 1.0
C      1  0.4423150000000  0.4367370000000  0.4992990000000 1.0
C      1  0.4492030000000  0.5472180000000  0.5330180000000 1.0
C      1  0.5446600000000  0.4761560000000  0.4580930000000 1.0
C      1  0.4785740000000  0.3960880000000  0.5296420000000 1.0
C      1  0.5105960000000  0.5918510000000  0.5498830000000 1.0
C      1  0.3951500000000  0.4791670000000  0.4853330000000 1.0
C      1  0.5558190000000  0.4151580000000  0.5361340000000 1.0
C      1  0.4512520000000  0.4511950000000  0.5765060000000 1.0
C      1  0.3892690000000  0.5310110000000  0.4755280000000 1.0
C      1  0.5576560000000  0.4280180000000  0.4647010000000 1.0
C      1  0.5224130000000  0.5050030000000  0.5783010000000 1.0
C      1  0.4559020000000  0.5751310000000  0.5486700000000 1.0
C      1  0.5132330000000  0.4647020000000  0.4510210000000 1.0
C      1  0.3917720000000  0.5016850000000  0.4590780000000 1.0
C      1  0.4779850000000  0.6044950000000  0.5167300000000 1.0
C      1  0.5962430000000  0.4605300000000  0.5387810000000 1.0
C      1  0.5655000000000  0.4472540000000  0.4400170000000 1.0
C      1  0.4403620000000  0.4836780000000  0.5741840000000 1.0
C      1  0.5326750000000  0.5126050000000  0.4667760000000 1.0
C      1  0.4438230000000  0.4609400000000  0.4827570000000 1.0
C      1  0.5471400000000  0.4532220000000  0.5436940000000 1.0
C      1  0.4170780000000  0.5467190000000  0.5347250000000 1.0
C      1  0.5220390000000  0.4723490000000  0.5342390000000 1.0
C      1  0.4488780000000  0.5076140000000  0.5285840000000 1.0
C      1  0.4601760000000  0.4964130000000  0.4350790000000 1.0
C      1  0.5080460000000  0.5616180000000  0.4145940000000 1.0
C      1  0.5638240000000  0.4791370000000  0.4862660000000 1.0
C      1  0.5885640000000  0.4891190000000  0.5521510000000 1.0
C      1  0.5460190000000  0.4439020000000  0.4175410000000 1.0
C      1  0.4648480000000  0.5243760000000  0.5515750000000 1.0
C      1  0.4405030000000  0.4635440000000  0.5468560000000 1.0
C      1  0.5780550000000  0.4516400000000  0.4937150000000 1.0
C      1  0.4971460000000  0.4411410000000  0.5352220000000 1.0
C      1  0.5554020000000  0.4397640000000  0.5128240000000 1.0
C      1  0.4866940000000  0.5033070000000  0.5608710000000 1.0
C      1  0.5306840000000  0.4195740000000  0.4263380000000 1.0
C      1  0.5985240000000  0.4818330000000  0.4572460000000 1.0
C      1  0.4595930000000  0.4636820000000  0.6029190000000 1.0
C      1  0.4315770000000  0.5641920000000  0.4897050000000 1.0
C      1  0.3908420000000  0.5093200000000  0.5007760000000 1.0
C      1  0.4220690000000  0.5113800000000  0.5146010000000 1.0
C      1  0.4974290000000  0.5119760000000  0.5992440000000 1.0
C      1  0.4849710000000  0.4491110000000  0.4091920000000 1.0
C      1  0.5356410000000  0.5808730000000  0.5631450000000 1.0
C      1  0.6086910000000  0.4943560000000  0.5034080000000 1.0
C      1  0.4580200000000  0.5870820000000  0.4703030000000 1.0
C      1  0.5268210000000  0.5090310000000  0.4344480000000 1.0
C      1  0.4902320000000  0.5904470000000  0.4655830000000 1.0
C      1  0.5469980000000  0.5980190000000  0.4583420000000 1.0
C      1  0.4519520000000  0.5891690000000  0.5018130000000 1.0
C      1  0.6093280000000  0.5029390000000  0.4730030000000 1.0
C      1  0.4622840000000  0.5009310000000  0.5837130000000 1.0
C      1  0.4580030000000  0.5273700000000  0.5941800000000 1.0
C      1  0.4698900000000  0.4333320000000  0.5179850000000 1.0
C      1  0.5186490000000  0.5629370000000  0.4620330000000 1.0
C      1  0.5783490000000  0.4390150000000  0.5450850000000 1.0
C      1  0.4083080000000  0.5182870000000  0.5515180000000 1.0
C      1  0.4215670000000  0.4222920000000  0.5093270000000 1.0
C      1  0.5470730000000  0.4068370000000  0.4470400000000 1.0
C      1  0.5440750000000  0.5315590000000  0.5770080000000 1.0
C      1  0.4129250000000  0.4939390000000  0.5634890000000 1.0
C      1  0.5612150000000  0.5398920000000  0.5040320000000 1.0
C      1  0.5065260000000  0.5734930000000  0.4906610000000 1.0
C      1  0.4900510000000  0.4504020000000  0.5649620000000 1.0
C      1  0.4690950000000  0.5177950000000  0.4828410000000 1.0
C      1  0.4354440000000  0.4866020000000  0.4975420000000 1.0
C      1  0.4851370000000  0.4450630000000  0.4489510000000 1.0
C      1  0.5294330000000  0.4676830000000  0.3996090000000 1.0
C      1  0.5120810000000  0.4332820000000  0.4863100000000 1.0
C      1  0.5088660000000  0.5209610000000  0.4802160000000 1.0
C      1  0.4595710000000  0.4787900000000  0.5287110000000 1.0
C      1  0.4932630000000  0.5044220000000  0.4358630000000 1.0
C      1  0.4691870000000  0.4095510000000  0.4714360000000 1.0
C      1  0.4484450000000  0.4172740000000  0.4532720000000 1.0
C      1  0.4803550000000  0.5200730000000  0.4084250000000 1.0
C      1  0.5574690000000  0.4571040000000  0.5734260000000 1.0
C      1  0.5271680000000  0.4629610000000  0.6126580000000 1.0
C      1  0.4841750000000  0.5430990000000  0.5932210000000 1.0
C      1  0.4994470000000  0.4111380000000  0.4642360000000 1.0
C      1  0.5217910000000  0.6007250000000  0.4740960000000 1.0
C      1  0.6006650000000  0.5567850000000  0.4624090000000 1.0
C      1  0.4592930000000  0.5999010000000  0.5395920000000 1.0
C      1  0.4943410000000  0.5679750000000  0.5410550000000 1.0
C      1  0.6014810000000  0.4638450000000  0.5107250000000 1.0
C      1  0.5548490000000  0.5697840000000  0.5460790000000 1.0
C      1  0.5417080000000  0.4945110000000  0.4073080000000 1.0
C      1  0.5702890000000  0.5118200000000  0.5344280000000 1.0
C      1  0.5264930000000  0.5192230000000  0.3958690000000 1.0
C      1  0.5221960000000  0.4448100000000  0.5141110000000 1.0
C      1  0.5463890000000  0.5741130000000  0.4901800000000 1.0
C      1  0.5383030000000  0.4494740000000  0.4780910000000 1.0
C      1  0.3996320000000  0.4592430000000  0.5064820000000 1.0
C      1  0.5343650000000  0.4786930000000  0.4967300000000 1.0
C      1  0.4303990000000  0.5112640000000  0.4129940000000 1.0
C      1  0.5311790000000  0.4016770000000  0.5409020000000 1.0
C      1  0.5145030000000  0.5605740000000  0.5744230000000 1.0
C      1  0.5595900000000  0.5185780000000  0.4818810000000 1.0
C      1  0.4120420000000  0.5165380000000  0.4360610000000 1.0
C      1  0.4124200000000  0.4512640000000  0.5352180000000 1.0
C      1  0.4259640000000  0.5760300000000  0.5197740000000 1.0
C      1  0.4683520000000  0.5278980000000  0.5120680000000 1.0
C      1  0.4676790000000  0.4252620000000  0.5690590000000 1.0
C      1  0.5307140000000  0.6009360000000  0.5057980000000 1.0
C      1  0.4927300000000  0.5810550000000  0.5840800000000 1.0
C      1  0.4322000000000  0.5348570000000  0.4491130000000 1.0
C      1  0.6096910000000  0.5072100000000  0.5328250000000 1.0
C      1  0.5710060000000  0.4899710000000  0.4136510000000 1.0
C      1  0.5707290000000  0.5197120000000  0.4527150000000 1.0
C      1  0.4571360000000  0.5746600000000  0.4384340000000 1.0
C      1  0.5476290000000  0.5581620000000  0.4598650000000 1.0
C      1  0.4970360000000  0.5302970000000  0.5286160000000 1.0
C      1  0.5790860000000  0.5673230000000  0.4941980000000 1.0
C      1  0.5180260000000  0.5391290000000  0.5978910000000 1.0
C      1  0.4565180000000  0.5626940000000  0.4113780000000 1.0
C      1  0.4212800000000  0.5071340000000  0.4751850000000 1.0
C      1  0.5767110000000  0.5030760000000  0.5046340000000 1.0
C      1  0.4736700000000  0.5527390000000  0.4585860000000 1.0
C      1  0.4492810000000  0.5318140000000  0.4083030000000 1.0
C      1  0.4459890000000  0.4823050000000  0.4085370000000 1.0
C      1  0.5296490000000  0.5422840000000  0.4124350000000 1.0
C      1  0.5086930000000  0.4573170000000  0.4198490000000 1.0
C      1  0.5361770000000  0.5343000000000  0.5218120000000 1.0
C      1  0.5902880000000  0.5490050000000  0.5187910000000 1.0
C      1  0.4804010000000  0.4363640000000  0.4879840000000 1.0
C      1  0.4914160000000  0.4801570000000  0.5412760000000 1.0
C      1  0.5007970000000  0.5083870000000  0.3894430000000 1.0
C      1  0.5305250000000  0.5009860000000  0.5205520000000 1.0
C      1  0.4815060000000  0.4855390000000  0.6042350000000 1.0
C      1  0.6069510000000  0.5343100000000  0.5331260000000 1.0
C      1  0.5710450000000  0.4817390000000  0.5761480000000 1.0
C      1  0.4983240000000  0.4135760000000  0.5780220000000 1.0
C      1  0.5744270000000  0.5780840000000  0.4622730000000 1.0
C      1  0.4749220000000  0.5523950000000  0.5630480000000 1.0
C      1  0.4206840000000  0.4749240000000  0.4628260000000 1.0
C      1  0.4187210000000  0.5363820000000  0.4916460000000 1.0
C      1  0.5854460000000  0.4561040000000  0.4618200000000 1.0
C      1  0.5040200000000  0.4209990000000  0.4358980000000 1.0
C      1  0.5715020000000  0.4905020000000  0.4441820000000 1.0
C      1  0.5548980000000  0.5384190000000  0.5491030000000 1.0
C      1  0.5109710000000  0.5564490000000  0.5150990000000 1.0
C      1  0.4543270000000  0.5181350000000  0.4560840000000 1.0
C      1  0.4734100000000  0.3700450000000  0.5224560000000 1.0
C      1  0.4966730000000  0.5424380000000  0.4676720000000 1.0
C      1  0.4541830000000  0.4423470000000  0.4425320000000 1.0
C      1  0.5078440000000  0.5301470000000  0.5602820000000 1.0
C      1  0.4994870000000  0.4798390000000  0.3881630000000 1.0
C      1  0.4837650000000  0.4932730000000  0.4667200000000 1.0
C      1  0.5138250000000  0.4324990000000  0.5911570000000 1.0
C      1  0.5548960000000  0.5019560000000  0.5863460000000 1.0
C      1  0.5138770000000  0.3935710000000  0.5649400000000 1.0
C      1  0.4404930000000  0.4689200000000  0.4391080000000 1.0
C      1  0.3981450000000  0.4719140000000  0.5554840000000 1.0
C      1  0.4834880000000  0.5516920000000  0.4050290000000 1.0
C      1  0.4851070000000  0.4803050000000  0.5071710000000 1.0
C      1  0.4246770000000  0.4195970000000  0.5383170000000 1.0
C      1  0.5058160000000  0.6045990000000  0.5232540000000 1.0
C      1  0.5990670000000  0.5293240000000  0.4630340000000 1.0
C      1  0.5032500000000  0.4099650000000  0.5301720000000 1.0
C      1  0.4987510000000  0.4622660000000  0.5949880000000 1.0
C      1  0.3892090000000  0.5283970000000  0.5276410000000 1.0
C      1  0.5545450000000  0.5822970000000  0.5212580000000 1.0
END
