TITL C-2778432-5617-1314 0.00172966780303285 125000 -1146.71049934184 0 0 194 (C1) n - 1
REM
REM in /home/nfs/bkarasulu/CARBON/AIRSS/Generating-Clusters/REBO/Only-C1/SD-CG/HFTN-CG
REM
REM
REM
REM
REM
REM ./C.cell (11c1c37f851c82e70ff6c80c92926a4b)
REM
REM compiler GCC version 9.2.1 20190827 (Red Hat 9.2.1-1)
REM options -cpp -mtune=generic -march=x86-64 -g -O0 -fpre-include=/usr/include/finclude/math-vector-fortran.h
REM seed -271706573 1463298992 74376448 687575145 226874618 -411667215 1200577692 1729821317 -468634982 -830753360 752602813 -213864674 -1074954445 -1662367043 154605475 1748032765 838015810 -968881887 -1761695352 -1178655095 -1751170669 -1615870607 -1051128100 693935962 -1083213422 -1464725531 2015731409 455479636 629887357 -468611017 1889684283 -1639703548 -147390609
REM
CELL 1.54180   50.00000   50.00000   50.00000   90.00000   90.00000   90.00000
LATT -1
SFAC C  
C      1  0.4594230000000  0.5566570000000  0.5184820000000 1.0
C      1  0.5055770000000  0.4515050000000  0.5615680000000 1.0
C      1  0.4709690000000  0.5043970000000  0.3964590000000 1.0
C      1  0.4973390000000  0.5078440000000  0.6207100000000 1.0
C      1  0.4478070000000  0.4720050000000  0.3975650000000 1.0
C      1  0.4277430000000  0.4860060000000  0.5159280000000 1.0
C      1  0.5310310000000  0.4767980000000  0.6116790000000 1.0
C      1  0.5942500000000  0.4813360000000  0.5076780000000 1.0
C      1  0.4720970000000  0.5739340000000  0.5698440000000 1.0
C      1  0.5667620000000  0.5834500000000  0.4734430000000 1.0
C      1  0.5485550000000  0.4779590000000  0.4599700000000 1.0
C      1  0.4494660000000  0.4071820000000  0.5296950000000 1.0
C      1  0.4503870000000  0.4576610000000  0.5949720000000 1.0
C      1  0.5073590000000  0.6059330000000  0.5080130000000 1.0
C      1  0.5092710000000  0.5348200000000  0.4290160000000 1.0
C      1  0.5007340000000  0.6003120000000  0.4789230000000 1.0
C      1  0.4680890000000  0.4441930000000  0.5723310000000 1.0
C      1  0.4754970000000  0.4352620000000  0.4151060000000 1.0
C      1  0.4188240000000  0.5063890000000  0.4920150000000 1.0
C      1  0.5480070000000  0.4981680000000  0.5097680000000 1.0
C      1  0.5041470000000  0.5477770000000  0.3916570000000 1.0
C      1  0.5713280000000  0.5835440000000  0.5073750000000 1.0
C      1  0.4244530000000  0.5151900000000  0.5795020000000 1.0
C      1  0.3925910000000  0.4677570000000  0.5129000000000 1.0
C      1  0.4944810000000  0.4228600000000  0.5774900000000 1.0
C      1  0.5103150000000  0.3931650000000  0.5374720000000 1.0
C      1  0.5340680000000  0.5355400000000  0.6075800000000 1.0
C      1  0.5960780000000  0.4632060000000  0.5281260000000 1.0
C      1  0.4570530000000  0.5551360000000  0.5507760000000 1.0
C      1  0.4148850000000  0.4700900000000  0.4379540000000 1.0
C      1  0.6001820000000  0.4781140000000  0.4768540000000 1.0
C      1  0.5723760000000  0.5552120000000  0.5658230000000 1.0
C      1  0.5894980000000  0.5102690000000  0.4407370000000 1.0
C      1  0.4153770000000  0.5865900000000  0.4967230000000 1.0
C      1  0.5279890000000  0.3849170000000  0.5132560000000 1.0
C      1  0.4397030000000  0.6026420000000  0.4979030000000 1.0
C      1  0.5057810000000  0.5759950000000  0.5205760000000 1.0
C      1  0.5589720000000  0.5477170000000  0.4352340000000 1.0
C      1  0.5640050000000  0.4625340000000  0.4867680000000 1.0
C      1  0.4797850000000  0.5685360000000  0.5024610000000 1.0
C      1  0.5466760000000  0.5725950000000  0.5596820000000 1.0
C      1  0.5277910000000  0.5225410000000  0.5213650000000 1.0
C      1  0.5547650000000  0.4169020000000  0.5336490000000 1.0
C      1  0.4343100000000  0.4052040000000  0.4837850000000 1.0
C      1  0.4036780000000  0.4849370000000  0.5392960000000 1.0
C      1  0.5591950000000  0.5345680000000  0.5211850000000 1.0
C      1  0.4544200000000  0.5120930000000  0.5962410000000 1.0
C      1  0.5364470000000  0.4481650000000  0.4550360000000 1.0
C      1  0.5014010000000  0.5599640000000  0.5465200000000 1.0
C      1  0.4430460000000  0.5716970000000  0.4623600000000 1.0
C      1  0.4859650000000  0.5984340000000  0.4347050000000 1.0
C      1  0.5916910000000  0.4915370000000  0.5558490000000 1.0
C      1  0.4264290000000  0.5483430000000  0.5755190000000 1.0
C      1  0.5423790000000  0.5620010000000  0.4782580000000 1.0
C      1  0.4164530000000  0.5005840000000  0.4289170000000 1.0
C      1  0.5165500000000  0.5775050000000  0.4666720000000 1.0
C      1  0.5245330000000  0.4781330000000  0.5052120000000 1.0
C      1  0.5527460000000  0.4431420000000  0.4000570000000 1.0
C      1  0.4119280000000  0.5269850000000  0.4424780000000 1.0
C      1  0.4517100000000  0.4951290000000  0.5589900000000 1.0
C      1  0.4523800000000  0.6009290000000  0.5236880000000 1.0
C      1  0.5887860000000  0.5378400000000  0.4763870000000 1.0
C      1  0.4820380000000  0.5074870000000  0.5262400000000 1.0
C      1  0.5172900000000  0.5163910000000  0.4920150000000 1.0
C      1  0.4057330000000  0.5374310000000  0.5326670000000 1.0
C      1  0.4585720000000  0.4601230000000  0.4855410000000 1.0
C      1  0.5049780000000  0.5267960000000  0.5404220000000 1.0
C      1  0.5091560000000  0.5533100000000  0.4978550000000 1.0
C      1  0.5607600000000  0.4473810000000  0.5703480000000 1.0
C      1  0.4778980000000  0.4150040000000  0.5028010000000 1.0
C      1  0.5538680000000  0.4126220000000  0.4825020000000 1.0
C      1  0.5245380000000  0.5520360000000  0.5643350000000 1.0
C      1  0.4986170000000  0.5598970000000  0.4464120000000 1.0
C      1  0.4908970000000  0.4755000000000  0.5808120000000 1.0
C      1  0.4615990000000  0.5245020000000  0.5589430000000 1.0
C      1  0.4371890000000  0.4803710000000  0.4576740000000 1.0
C      1  0.4402340000000  0.5390180000000  0.5007100000000 1.0
C      1  0.4014560000000  0.5315800000000  0.5035710000000 1.0
C      1  0.4461560000000  0.5312880000000  0.4105440000000 1.0
C      1  0.5077590000000  0.5091910000000  0.5681220000000 1.0
C      1  0.5658920000000  0.5158280000000  0.4861420000000 1.0
C      1  0.4978040000000  0.4652730000000  0.4896030000000 1.0
C      1  0.4435370000000  0.5101530000000  0.4733070000000 1.0
C      1  0.5167100000000  0.4683010000000  0.5339010000000 1.0
C      1  0.4885210000000  0.4559370000000  0.4594820000000 1.0
C      1  0.4667670000000  0.4625340000000  0.4146780000000 1.0
C      1  0.5689310000000  0.4777090000000  0.4132340000000 1.0
C      1  0.5767610000000  0.4952320000000  0.4643040000000 1.0
C      1  0.5226370000000  0.4912150000000  0.4733460000000 1.0
C      1  0.5639450000000  0.4865730000000  0.5359200000000 1.0
C      1  0.4753060000000  0.4607960000000  0.6144740000000 1.0
C      1  0.5422120000000  0.5912370000000  0.4511300000000 1.0
C      1  0.5403550000000  0.5589580000000  0.5109710000000 1.0
C      1  0.5529560000000  0.5012640000000  0.6016220000000 1.0
C      1  0.5227680000000  0.5177330000000  0.6253140000000 1.0
C      1  0.4997760000000  0.4256870000000  0.5384180000000 1.0
C      1  0.5405440000000  0.5984180000000  0.5077010000000 1.0
C      1  0.4736380000000  0.4050900000000  0.4542690000000 1.0
C      1  0.4067800000000  0.5139760000000  0.5503860000000 1.0
C      1  0.5736410000000  0.4357200000000  0.4748320000000 1.0
C      1  0.4682350000000  0.4902610000000  0.4800900000000 1.0
C      1  0.5553170000000  0.5059840000000  0.5614760000000 1.0
C      1  0.4939750000000  0.4874350000000  0.5487280000000 1.0
C      1  0.4803480000000  0.3932600000000  0.5256060000000 1.0
C      1  0.4739830000000  0.4559260000000  0.5409260000000 1.0
C      1  0.5522580000000  0.4326720000000  0.4299450000000 1.0
C      1  0.4560730000000  0.4211560000000  0.4334380000000 1.0
C      1  0.5457150000000  0.4657110000000  0.5855530000000 1.0
C      1  0.3926750000000  0.4860020000000  0.4910160000000 1.0
C      1  0.6196320000000  0.5243340000000  0.4767970000000 1.0
C      1  0.6110620000000  0.5449210000000  0.4998060000000 1.0
C      1  0.4925630000000  0.4950750000000  0.4577310000000 1.0
C      1  0.5580900000000  0.4602870000000  0.5164640000000 1.0
C      1  0.5742500000000  0.4566150000000  0.4309420000000 1.0
C      1  0.4675120000000  0.4762320000000  0.4428490000000 1.0
C      1  0.5216270000000  0.4078750000000  0.5661890000000 1.0
C      1  0.5317740000000  0.5474840000000  0.4064780000000 1.0
C      1  0.4215970000000  0.4410700000000  0.5582760000000 1.0
C      1  0.4513040000000  0.4776610000000  0.5345150000000 1.0
C      1  0.5258460000000  0.4158780000000  0.4346640000000 1.0
C      1  0.4977490000000  0.4153180000000  0.4759950000000 1.0
C      1  0.5170580000000  0.3823590000000  0.4877870000000 1.0
C      1  0.5632060000000  0.5327700000000  0.5901140000000 1.0
C      1  0.5189940000000  0.4992160000000  0.3831250000000 1.0
C      1  0.5785580000000  0.5058700000000  0.4164220000000 1.0
C      1  0.4539310000000  0.5979280000000  0.4733630000000 1.0
C      1  0.5434260000000  0.4965590000000  0.4003620000000 1.0
C      1  0.5324710000000  0.4554240000000  0.3918720000000 1.0
C      1  0.6239160000000  0.4982050000000  0.4710690000000 1.0
C      1  0.4288800000000  0.4137680000000  0.5101920000000 1.0
C      1  0.5436870000000  0.5840980000000  0.5348670000000 1.0
C      1  0.5357890000000  0.5235060000000  0.4418010000000 1.0
C      1  0.4213120000000  0.5587330000000  0.4826760000000 1.0
C      1  0.5847600000000  0.5129640000000  0.5146060000000 1.0
C      1  0.5524780000000  0.3991730000000  0.5120490000000 1.0
C      1  0.4854800000000  0.5294090000000  0.5776550000000 1.0
C      1  0.4175790000000  0.5595090000000  0.5497230000000 1.0
C      1  0.5145550000000  0.5942140000000  0.4306120000000 1.0
C      1  0.4552290000000  0.5411370000000  0.4712690000000 1.0
C      1  0.5398230000000  0.5307130000000  0.4726150000000 1.0
C      1  0.5835670000000  0.4583020000000  0.5557730000000 1.0
C      1  0.4788320000000  0.6053510000000  0.4623290000000 1.0
C      1  0.4782780000000  0.4983740000000  0.6016090000000 1.0
C      1  0.4558330000000  0.5239620000000  0.5259110000000 1.0
C      1  0.4649470000000  0.4422450000000  0.5117090000000 1.0
C      1  0.4947320000000  0.4828680000000  0.3927400000000 1.0
C      1  0.4853450000000  0.5525830000000  0.4734820000000 1.0
C      1  0.4699490000000  0.4183060000000  0.5531750000000 1.0
C      1  0.5392550000000  0.4355220000000  0.5021170000000 1.0
C      1  0.4577850000000  0.4413690000000  0.4598610000000 1.0
C      1  0.4375160000000  0.5014860000000  0.4036560000000 1.0
C      1  0.5036590000000  0.4693550000000  0.6122140000000 1.0
C      1  0.4805950000000  0.5576640000000  0.5951500000000 1.0
C      1  0.5370400000000  0.4930260000000  0.4325360000000 1.0
C      1  0.4110660000000  0.4678600000000  0.5632920000000 1.0
C      1  0.4972490000000  0.5212600000000  0.3828740000000 1.0
C      1  0.5506950000000  0.5337220000000  0.5521780000000 1.0
C      1  0.5266870000000  0.4044380000000  0.4637800000000 1.0
C      1  0.5813400000000  0.5046100000000  0.5835440000000 1.0
C      1  0.4286470000000  0.5462930000000  0.4264090000000 1.0
C      1  0.4142340000000  0.4442170000000  0.5087450000000 1.0
C      1  0.4626360000000  0.5835270000000  0.4201610000000 1.0
C      1  0.4860730000000  0.5637300000000  0.4148970000000 1.0
C      1  0.4317840000000  0.4320280000000  0.5827390000000 1.0
C      1  0.5879900000000  0.4552500000000  0.4559730000000 1.0
C      1  0.4891020000000  0.5914670000000  0.5532160000000 1.0
C      1  0.5564780000000  0.5271030000000  0.4078160000000 1.0
C      1  0.5312130000000  0.4954280000000  0.5767370000000 1.0
C      1  0.4398990000000  0.5716710000000  0.4331230000000 1.0
C      1  0.4275550000000  0.4390130000000  0.4312620000000 1.0
C      1  0.4326420000000  0.4821390000000  0.5819660000000 1.0
C      1  0.6035140000000  0.5179470000000  0.5405230000000 1.0
C      1  0.5817210000000  0.5650080000000  0.5340460000000 1.0
C      1  0.5099170000000  0.4730180000000  0.4384520000000 1.0
C      1  0.5124440000000  0.5466570000000  0.5908630000000 1.0
C      1  0.5765170000000  0.5571040000000  0.4580010000000 1.0
C      1  0.5474030000000  0.4222970000000  0.5624460000000 1.0
C      1  0.5039610000000  0.4282250000000  0.4203750000000 1.0
C      1  0.4369900000000  0.4463160000000  0.5314690000000 1.0
C      1  0.4615590000000  0.3993490000000  0.4808550000000 1.0
C      1  0.4779010000000  0.5311020000000  0.4163790000000 1.0
C      1  0.4508400000000  0.5419360000000  0.5931980000000 1.0
C      1  0.4280100000000  0.4676930000000  0.4881650000000 1.0
C      1  0.4911580000000  0.4981120000000  0.4988530000000 1.0
C      1  0.6033350000000  0.5460520000000  0.5269200000000 1.0
C      1  0.5282860000000  0.4386800000000  0.5315210000000 1.0
C      1  0.5187570000000  0.4402440000000  0.4797000000000 1.0
C      1  0.4037280000000  0.5355900000000  0.4696340000000 1.0
C      1  0.4010360000000  0.4427250000000  0.4523670000000 1.0
C      1  0.5405970000000  0.5736440000000  0.4227550000000 1.0
C      1  0.5063840000000  0.4600160000000  0.4098520000000 1.0
C      1  0.4281110000000  0.4246260000000  0.4622350000000 1.0
C      1  0.4808290000000  0.6056240000000  0.5295140000000 1.0
C      1  0.4379100000000  0.5817600000000  0.5405040000000 1.0
END
