TITL C-2778437-8639-357 -0.00271266832850156 125000 -308.037511846981 0 0 55 (C1) n - 1
REM
REM in /home/nfs/bkarasulu/CARBON/AIRSS/Generating-Clusters/REBO/Only-C1/SD-CG/HFTN-CG
REM
REM
REM
REM
REM
REM ./C.cell (11c1c37f851c82e70ff6c80c92926a4b)
REM
REM compiler GCC version 9.2.1 20190827 (Red Hat 9.2.1-1)
REM options -cpp -mtune=generic -march=x86-64 -g -O0 -fpre-include=/usr/include/finclude/math-vector-fortran.h
REM seed -453757218 -1893288921 2126031838 427276004 -548801966 1748925086 -1167116439 1274162943 -1765493495 -1443438076 1239151679 665574906 290955890 -500049514 -96969893 -399889820 175036214 -94475461 -640160693 771514880 508581329 1219793137 -1525958854 283281222 811231500 -496692158 -1122806209 -2058481833 -1739279393 1553798211 -1403951164 -988968968 1914914850
REM
CELL 1.54180   50.00000   50.00000   50.00000   90.00000   90.00000   90.00000
LATT -1
SFAC C  
C      1  0.5159110000000  0.5157250000000  0.4472770000000 1.0
C      1  0.5790360000000  0.4761410000000  0.5000500000000 1.0
C      1  0.5564520000000  0.5149020000000  0.4720160000000 1.0
C      1  0.4838160000000  0.4425400000000  0.5055790000000 1.0
C      1  0.5328490000000  0.5291260000000  0.5492430000000 1.0
C      1  0.4271200000000  0.5262910000000  0.4890340000000 1.0
C      1  0.5084560000000  0.5195540000000  0.4861970000000 1.0
C      1  0.4322360000000  0.5529290000000  0.5024870000000 1.0
C      1  0.5393210000000  0.4493870000000  0.5316650000000 1.0
C      1  0.5245620000000  0.4712210000000  0.5229170000000 1.0
C      1  0.5372520000000  0.4953130000000  0.5129660000000 1.0
C      1  0.5046180000000  0.4921470000000  0.4676110000000 1.0
C      1  0.4370120000000  0.4710620000000  0.5060710000000 1.0
C      1  0.5396900000000  0.4665320000000  0.4716640000000 1.0
C      1  0.5289160000000  0.4975940000000  0.5526620000000 1.0
C      1  0.5785200000000  0.4758660000000  0.4723200000000 1.0
C      1  0.5452290000000  0.4927080000000  0.4865460000000 1.0
C      1  0.4560110000000  0.4427470000000  0.5038110000000 1.0
C      1  0.5576100000000  0.4820800000000  0.4495700000000 1.0
C      1  0.5032560000000  0.4316670000000  0.4883640000000 1.0
C      1  0.4234730000000  0.4912000000000  0.5237960000000 1.0
C      1  0.5448010000000  0.5122210000000  0.4439270000000 1.0
C      1  0.4350500000000  0.5447190000000  0.5354840000000 1.0
C      1  0.4536210000000  0.4653220000000  0.4573330000000 1.0
C      1  0.4970570000000  0.4970950000000  0.5469350000000 1.0
C      1  0.5742920000000  0.4877770000000  0.5260340000000 1.0
C      1  0.5131120000000  0.5495670000000  0.5434650000000 1.0
C      1  0.4855830000000  0.4862330000000  0.4934480000000 1.0
C      1  0.4731570000000  0.4647580000000  0.4394120000000 1.0
C      1  0.5144730000000  0.5577900000000  0.5153710000000 1.0
C      1  0.4488190000000  0.5147170000000  0.4747150000000 1.0
C      1  0.4385680000000  0.4508130000000  0.4786110000000 1.0
C      1  0.4865350000000  0.5185240000000  0.5676330000000 1.0
C      1  0.5024770000000  0.4752590000000  0.4394740000000 1.0
C      1  0.4233080000000  0.5179910000000  0.5191210000000 1.0
C      1  0.5273070000000  0.5378310000000  0.4983900000000 1.0
C      1  0.4929270000000  0.5700510000000  0.4985630000000 1.0
C      1  0.4680310000000  0.4554320000000  0.5659180000000 1.0
C      1  0.4947970000000  0.4676060000000  0.5200370000000 1.0
C      1  0.4860880000000  0.5585130000000  0.4721290000000 1.0
C      1  0.5798220000000  0.5183220000000  0.5260060000000 1.0
C      1  0.5538900000000  0.4831770000000  0.5472020000000 1.0
C      1  0.5249940000000  0.4439180000000  0.4775010000000 1.0
C      1  0.4566800000000  0.4860530000000  0.4827400000000 1.0
C      1  0.4685680000000  0.5316610000000  0.4643210000000 1.0
C      1  0.4841280000000  0.5343930000000  0.5039550000000 1.0
C      1  0.5492950000000  0.5189240000000  0.5258930000000 1.0
C      1  0.5061260000000  0.4921100000000  0.4166550000000 1.0
C      1  0.4822710000000  0.4692380000000  0.5494340000000 1.0
C      1  0.4882330000000  0.5456150000000  0.5583270000000 1.0
C      1  0.4626060000000  0.5539330000000  0.5152810000000 1.0
C      1  0.4643840000000  0.5558560000000  0.5478040000000 1.0
C      1  0.4975730000000  0.5373470000000  0.4497920000000 1.0
C      1  0.5207440000000  0.4534670000000  0.4389740000000 1.0
C      1  0.4893410000000  0.5070350000000  0.5182690000000 1.0
END
