TITL C-2778424-3986-1399 -0.00107415274046115 125000 -358.180985903904 0 0 63 (C1) n - 1
REM
REM in /home/nfs/bkarasulu/CARBON/AIRSS/Generating-Clusters/REBO/Only-C1/SD-CG/HFTN-CG
REM
REM
REM
REM
REM
REM ./C.cell (11c1c37f851c82e70ff6c80c92926a4b)
REM
REM compiler GCC version 9.2.1 20190827 (Red Hat 9.2.1-1)
REM options -cpp -mtune=generic -march=x86-64 -g -O0 -fpre-include=/usr/include/finclude/math-vector-fortran.h
REM seed 271268358 -2038052935 -931299874 -1641915380 -471573434 108891398 409519778 -2014549746 867153130 323907249 -2018670033 -472751556 690106657 -916341251 -1102588673 172299400 -765472961 -367618162 1334423793 1989423660 637880619 -748094736 -119427588 -752371325 -1241794845 3980609 -255067790 -1484147193 177282365 -1374014587 -11718940 -363470104 259020983
REM
CELL 1.54180   50.00000   50.00000   50.00000   90.00000   90.00000   90.00000
LATT -1
SFAC C  
C      1  0.5055480000000  0.5622040000000  0.5299560000000 1.0
C      1  0.4673990000000  0.4222000000000  0.4597120000000 1.0
C      1  0.4737630000000  0.3985630000000  0.4478930000000 1.0
C      1  0.5648760000000  0.4750360000000  0.5189940000000 1.0
C      1  0.5391650000000  0.4801290000000  0.5588700000000 1.0
C      1  0.4553060000000  0.5220650000000  0.5040970000000 1.0
C      1  0.4625200000000  0.4719470000000  0.4567610000000 1.0
C      1  0.5703330000000  0.5508750000000  0.4920760000000 1.0
C      1  0.5348880000000  0.4554800000000  0.5410070000000 1.0
C      1  0.5275860000000  0.5311980000000  0.4445900000000 1.0
C      1  0.5043060000000  0.5435440000000  0.5023490000000 1.0
C      1  0.5391370000000  0.5563160000000  0.4937700000000 1.0
C      1  0.4973150000000  0.5431840000000  0.4464050000000 1.0
C      1  0.5207120000000  0.5555100000000  0.4680610000000 1.0
C      1  0.5829270000000  0.5029060000000  0.5165710000000 1.0
C      1  0.4722170000000  0.4425150000000  0.5486620000000 1.0
C      1  0.5065680000000  0.4532880000000  0.4554320000000 1.0
C      1  0.5293250000000  0.5545090000000  0.5453820000000 1.0
C      1  0.4578200000000  0.4941500000000  0.5559780000000 1.0
C      1  0.5028890000000  0.4968840000000  0.4748540000000 1.0
C      1  0.4459790000000  0.4443990000000  0.4997980000000 1.0
C      1  0.5044570000000  0.4606400000000  0.5159760000000 1.0
C      1  0.5475740000000  0.5427940000000  0.5238280000000 1.0
C      1  0.4435690000000  0.4484610000000  0.5311480000000 1.0
C      1  0.5434150000000  0.5089130000000  0.5503570000000 1.0
C      1  0.5423480000000  0.5099640000000  0.5160560000000 1.0
C      1  0.4534150000000  0.5242440000000  0.4563370000000 1.0
C      1  0.5540780000000  0.5022920000000  0.4511950000000 1.0
C      1  0.5716750000000  0.5235290000000  0.5382430000000 1.0
C      1  0.5012850000000  0.4491690000000  0.5449270000000 1.0
C      1  0.4504460000000  0.4238380000000  0.4826990000000 1.0
C      1  0.4473400000000  0.5025820000000  0.5309090000000 1.0
C      1  0.4792210000000  0.4471280000000  0.4516620000000 1.0
C      1  0.4349730000000  0.4968150000000  0.4936820000000 1.0
C      1  0.4578060000000  0.5435970000000  0.4808550000000 1.0
C      1  0.4316070000000  0.4775800000000  0.5203290000000 1.0
C      1  0.4857340000000  0.5092490000000  0.5112280000000 1.0
C      1  0.5128780000000  0.4682630000000  0.4838110000000 1.0
C      1  0.4873200000000  0.5531450000000  0.4767740000000 1.0
C      1  0.4434640000000  0.4986570000000  0.4633490000000 1.0
C      1  0.5123680000000  0.4689610000000  0.5703590000000 1.0
C      1  0.5621400000000  0.5024320000000  0.4900510000000 1.0
C      1  0.4208990000000  0.5854530000000  0.4848950000000 1.0
C      1  0.5461780000000  0.5251430000000  0.4733060000000 1.0
C      1  0.4801320000000  0.5045300000000  0.5701950000000 1.0
C      1  0.5504660000000  0.4760470000000  0.4718490000000 1.0
C      1  0.4733570000000  0.5211630000000  0.4091960000000 1.0
C      1  0.4774410000000  0.5233050000000  0.4365080000000 1.0
C      1  0.5165500000000  0.5198970000000  0.4853670000000 1.0
C      1  0.5154230000000  0.4930240000000  0.5147950000000 1.0
C      1  0.4952290000000  0.5249260000000  0.5585360000000 1.0
C      1  0.4377330000000  0.5663620000000  0.4830520000000 1.0
C      1  0.5232990000000  0.5304740000000  0.5611080000000 1.0
C      1  0.4825000000000  0.4970250000000  0.4548010000000 1.0
C      1  0.4555740000000  0.4708870000000  0.4890900000000 1.0
C      1  0.5282880000000  0.4727720000000  0.4473410000000 1.0
C      1  0.4948380000000  0.4852820000000  0.5848970000000 1.0
C      1  0.4529100000000  0.4659570000000  0.5589790000000 1.0
C      1  0.5852610000000  0.5329190000000  0.5014980000000 1.0
C      1  0.4801920000000  0.4785720000000  0.5044050000000 1.0
C      1  0.5293870000000  0.5000700000000  0.4309920000000 1.0
C      1  0.5404720000000  0.4720100000000  0.5035790000000 1.0
C      1  0.4861800000000  0.5350270000000  0.5306140000000 1.0
END
