TITL C-2778430-5657-573 -0.23956739558214 125000 -940.347123698356 0 0 160 (C1) n - 1
REM
REM in /home/nfs/bkarasulu/CARBON/AIRSS/Generating-Clusters/REBO/Only-C1/SD-CG/HFTN-CG
REM
REM
REM
REM
REM
REM ./C.cell (11c1c37f851c82e70ff6c80c92926a4b)
REM
REM compiler GCC version 9.2.1 20190827 (Red Hat 9.2.1-1)
REM options -cpp -mtune=generic -march=x86-64 -g -O0 -fpre-include=/usr/include/finclude/math-vector-fortran.h
REM seed -902611590 -495606485 1648561816 795788026 -864211332 -2001913547 -1114523674 182163119 -32226053 -842689951 1152457371 914304830 2120384086 -415773527 1505382831 -959865715 -487057240 1209228366 1071917988 -824143788 -834494713 353318927 1164175321 -366668671 234027168 523380616 -1225121417 1595269741 -1332870571 428214118 1690937682 -506737527 181012274
REM
CELL 1.54180   50.00000   50.00000   50.00000   90.00000   90.00000   90.00000
LATT -1
SFAC C  
C      1  0.4000720000000  0.4984460000000  0.5648050000000 1.0
C      1  0.4682520000000  0.4259670000000  0.4332770000000 1.0
C      1  0.3919070000000  0.4945330000000  0.4855050000000 1.0
C      1  0.5365160000000  0.5582990000000  0.5741760000000 1.0
C      1  0.5289520000000  0.4086860000000  0.4596670000000 1.0
C      1  0.4767900000000  0.4106510000000  0.4628090000000 1.0
C      1  0.4631600000000  0.4571600000000  0.4197590000000 1.0
C      1  0.5540570000000  0.5864950000000  0.5237180000000 1.0
C      1  0.5707550000000  0.5652120000000  0.4467750000000 1.0
C      1  0.6141900000000  0.4873440000000  0.4599760000000 1.0
C      1  0.5829570000000  0.5507430000000  0.4733780000000 1.0
C      1  0.5690950000000  0.4534740000000  0.5513520000000 1.0
C      1  0.5520010000000  0.4246260000000  0.5448130000000 1.0
C      1  0.4657270000000  0.5696650000000  0.4182450000000 1.0
C      1  0.5291090000000  0.5728770000000  0.5378140000000 1.0
C      1  0.5016920000000  0.5670770000000  0.4904610000000 1.0
C      1  0.5720200000000  0.5215480000000  0.4216620000000 1.0
C      1  0.4685060000000  0.5234320000000  0.5562850000000 1.0
C      1  0.4696860000000  0.4592850000000  0.4919530000000 1.0
C      1  0.4722330000000  0.4935550000000  0.4575120000000 1.0
C      1  0.5045510000000  0.5952620000000  0.5728990000000 1.0
C      1  0.4375530000000  0.5198260000000  0.5466930000000 1.0
C      1  0.5013550000000  0.4501590000000  0.5153320000000 1.0
C      1  0.5179790000000  0.5218960000000  0.6017030000000 1.0
C      1  0.4550680000000  0.4726610000000  0.5410380000000 1.0
C      1  0.5904740000000  0.4991690000000  0.4394220000000 1.0
C      1  0.4754420000000  0.4104210000000  0.5734930000000 1.0
C      1  0.5659650000000  0.4135140000000  0.4855320000000 1.0
C      1  0.4216720000000  0.5324170000000  0.4442910000000 1.0
C      1  0.4285880000000  0.4215250000000  0.4821080000000 1.0
C      1  0.5117850000000  0.5284330000000  0.4687840000000 1.0
C      1  0.5924330000000  0.5154220000000  0.5420480000000 1.0
C      1  0.5319800000000  0.4531160000000  0.5252070000000 1.0
C      1  0.5411290000000  0.4752540000000  0.4451380000000 1.0
C      1  0.4217020000000  0.5110420000000  0.5823120000000 1.0
C      1  0.5151950000000  0.4211680000000  0.5079850000000 1.0
C      1  0.3937480000000  0.5378820000000  0.5237590000000 1.0
C      1  0.4818820000000  0.4757710000000  0.5505690000000 1.0
C      1  0.5816210000000  0.5468180000000  0.5470640000000 1.0
C      1  0.5451800000000  0.4579230000000  0.4735770000000 1.0
C      1  0.5510440000000  0.5244980000000  0.4624740000000 1.0
C      1  0.5746320000000  0.4695100000000  0.5275260000000 1.0
C      1  0.5017730000000  0.4968320000000  0.5631580000000 1.0
C      1  0.4164860000000  0.5302200000000  0.6008570000000 1.0
C      1  0.5209150000000  0.4818500000000  0.4706080000000 1.0
C      1  0.4188870000000  0.4982130000000  0.4647140000000 1.0
C      1  0.4402720000000  0.4817510000000  0.4188360000000 1.0
C      1  0.5042750000000  0.5488540000000  0.5178580000000 1.0
C      1  0.4305650000000  0.5033930000000  0.4063410000000 1.0
C      1  0.4407250000000  0.4186920000000  0.4527900000000 1.0
C      1  0.5059460000000  0.5477870000000  0.4182980000000 1.0
C      1  0.5642620000000  0.4306010000000  0.5759700000000 1.0
C      1  0.4911000000000  0.4163250000000  0.5518930000000 1.0
C      1  0.4949200000000  0.4985780000000  0.4081360000000 1.0
C      1  0.4437990000000  0.4892910000000  0.4983500000000 1.0
C      1  0.5586230000000  0.4624420000000  0.5826880000000 1.0
C      1  0.5110210000000  0.4742670000000  0.5836110000000 1.0
C      1  0.4069770000000  0.5441720000000  0.4726950000000 1.0
C      1  0.5982710000000  0.4806340000000  0.5813030000000 1.0
C      1  0.5108830000000  0.5162820000000  0.4422660000000 1.0
C      1  0.4701690000000  0.4998520000000  0.4969580000000 1.0
C      1  0.4071020000000  0.5560110000000  0.5410280000000 1.0
C      1  0.5552740000000  0.5286830000000  0.5359770000000 1.0
C      1  0.5225400000000  0.5184450000000  0.4126830000000 1.0
C      1  0.4904640000000  0.4713780000000  0.4105950000000 1.0
C      1  0.4769440000000  0.5456910000000  0.5319980000000 1.0
C      1  0.5718030000000  0.5494700000000  0.4251100000000 1.0
C      1  0.6278870000000  0.5149450000000  0.4746650000000 1.0
C      1  0.4229240000000  0.5678090000000  0.4625670000000 1.0
C      1  0.4351230000000  0.4472990000000  0.4367640000000 1.0
C      1  0.5215090000000  0.3972970000000  0.4849580000000 1.0
C      1  0.4921670000000  0.5489210000000  0.4691660000000 1.0
C      1  0.5636870000000  0.5195540000000  0.5845280000000 1.0
C      1  0.4421010000000  0.4240770000000  0.5096170000000 1.0
C      1  0.4843790000000  0.6256960000000  0.5213610000000 1.0
C      1  0.5759770000000  0.4720070000000  0.4263040000000 1.0
C      1  0.4619950000000  0.4320880000000  0.5842240000000 1.0
C      1  0.4434790000000  0.4839530000000  0.4501160000000 1.0
C      1  0.5475920000000  0.4182150000000  0.5138570000000 1.0
C      1  0.4067540000000  0.5310080000000  0.4986000000000 1.0
C      1  0.4591800000000  0.5622540000000  0.5552350000000 1.0
C      1  0.4890090000000  0.6016010000000  0.5117880000000 1.0
C      1  0.4931320000000  0.4763500000000  0.4644830000000 1.0
C      1  0.4193790000000  0.4497220000000  0.4657420000000 1.0
C      1  0.4407520000000  0.5234810000000  0.4689090000000 1.0
C      1  0.6130510000000  0.4917640000000  0.4946840000000 1.0
C      1  0.5108780000000  0.4515380000000  0.4106860000000 1.0
C      1  0.4674960000000  0.5875360000000  0.4673640000000 1.0
C      1  0.4839990000000  0.5274420000000  0.4080130000000 1.0
C      1  0.5680140000000  0.5417700000000  0.5099510000000 1.0
C      1  0.4507330000000  0.5979290000000  0.5223790000000 1.0
C      1  0.4485550000000  0.4403230000000  0.5340560000000 1.0
C      1  0.5175720000000  0.4989130000000  0.5123980000000 1.0
C      1  0.4905340000000  0.4038910000000  0.4930040000000 1.0
C      1  0.5610880000000  0.5446770000000  0.5721440000000 1.0
C      1  0.4354110000000  0.4594870000000  0.4925920000000 1.0
C      1  0.5204760000000  0.4314250000000  0.5481940000000 1.0
C      1  0.5563800000000  0.5718440000000  0.4767170000000 1.0
C      1  0.4803760000000  0.5179170000000  0.4465880000000 1.0
C      1  0.4234910000000  0.4738930000000  0.5676510000000 1.0
C      1  0.4686630000000  0.5457560000000  0.4510730000000 1.0
C      1  0.4865330000000  0.5486100000000  0.5705720000000 1.0
C      1  0.4615960000000  0.5271480000000  0.4877510000000 1.0
C      1  0.5558390000000  0.5004970000000  0.5502690000000 1.0
C      1  0.5930260000000  0.4962640000000  0.5181120000000 1.0
C      1  0.4585870000000  0.5424120000000  0.4114020000000 1.0
C      1  0.5666120000000  0.4929560000000  0.4963470000000 1.0
C      1  0.4989960000000  0.4266040000000  0.4182670000000 1.0
C      1  0.4074960000000  0.4722430000000  0.5306090000000 1.0
C      1  0.5046790000000  0.4208660000000  0.4484490000000 1.0
C      1  0.4932250000000  0.5721980000000  0.4292960000000 1.0
C      1  0.4501900000000  0.5678740000000  0.4550300000000 1.0
C      1  0.4672500000000  0.4265790000000  0.4905780000000 1.0
C      1  0.5549460000000  0.4816680000000  0.4061490000000 1.0
C      1  0.3880500000000  0.5064840000000  0.5406480000000 1.0
C      1  0.5447550000000  0.4829690000000  0.5182610000000 1.0
C      1  0.4544420000000  0.5914470000000  0.5464320000000 1.0
C      1  0.4670690000000  0.5512930000000  0.5025560000000 1.0
C      1  0.4307080000000  0.4918550000000  0.5402350000000 1.0
C      1  0.5550460000000  0.4182240000000  0.4601380000000 1.0
C      1  0.4314100000000  0.5485750000000  0.5509350000000 1.0
C      1  0.5266730000000  0.5404920000000  0.5397390000000 1.0
C      1  0.4583710000000  0.4562320000000  0.4601750000000 1.0
C      1  0.4247420000000  0.5092460000000  0.5026410000000 1.0
C      1  0.5768580000000  0.5692130000000  0.5236840000000 1.0
C      1  0.4937620000000  0.4801110000000  0.5042140000000 1.0
C      1  0.5431370000000  0.5943260000000  0.4933410000000 1.0
C      1  0.4550100000000  0.4710610000000  0.5809960000000 1.0
C      1  0.4822760000000  0.4574510000000  0.5906390000000 1.0
C      1  0.5641570000000  0.4431970000000  0.4400780000000 1.0
C      1  0.5167500000000  0.5913290000000  0.4732620000000 1.0
C      1  0.5828700000000  0.4994870000000  0.5689250000000 1.0
C      1  0.5100080000000  0.5680910000000  0.5726200000000 1.0
C      1  0.5391620000000  0.4797560000000  0.5924960000000 1.0
C      1  0.4509170000000  0.5018050000000  0.5758310000000 1.0
C      1  0.5459360000000  0.5418230000000  0.4853870000000 1.0
C      1  0.5087180000000  0.4437450000000  0.5742290000000 1.0
C      1  0.4338050000000  0.5291630000000  0.4180220000000 1.0
C      1  0.4821550000000  0.4438280000000  0.5382580000000 1.0
C      1  0.3982310000000  0.4717550000000  0.4642370000000 1.0
C      1  0.5856990000000  0.4515870000000  0.5030730000000 1.0
C      1  0.5778860000000  0.4493990000000  0.4698570000000 1.0
C      1  0.4895790000000  0.4478850000000  0.4587860000000 1.0
C      1  0.5424800000000  0.5073540000000  0.5982600000000 1.0
C      1  0.5536070000000  0.4478870000000  0.5013770000000 1.0
C      1  0.4134350000000  0.4540940000000  0.5141440000000 1.0
C      1  0.4980510000000  0.5209990000000  0.5825940000000 1.0
C      1  0.4661620000000  0.5837070000000  0.4974170000000 1.0
C      1  0.3854720000000  0.4998570000000  0.5118550000000 1.0
C      1  0.5159650000000  0.5871730000000  0.5127110000000 1.0
C      1  0.5979220000000  0.5233080000000  0.4623350000000 1.0
C      1  0.4391000000000  0.4450390000000  0.5650480000000 1.0
C      1  0.5201400000000  0.5267120000000  0.4991330000000 1.0
C      1  0.5230470000000  0.5066120000000  0.5435000000000 1.0
C      1  0.5504170000000  0.5090520000000  0.4083200000000 1.0
C      1  0.5396770000000  0.4565650000000  0.4199690000000 1.0
C      1  0.5799870000000  0.5211250000000  0.4897710000000 1.0
C      1  0.4937560000000  0.5878430000000  0.4543880000000 1.0
C      1  0.5514170000000  0.4970320000000  0.4690400000000 1.0
C      1  0.6058020000000  0.4630350000000  0.4796180000000 1.0
END
