TITL C-2778431-5191-565 -0.108330051306559 125000 -247.599372299539 0 0 43 (C1) n - 1
REM
REM in /home/nfs/bkarasulu/CARBON/AIRSS/Generating-Clusters/REBO/Only-C1/SD-CG/HFTN-CG
REM
REM
REM
REM
REM
REM ./C.cell (11c1c37f851c82e70ff6c80c92926a4b)
REM
REM compiler GCC version 9.2.1 20190827 (Red Hat 9.2.1-1)
REM options -cpp -mtune=generic -march=x86-64 -g -O0 -fpre-include=/usr/include/finclude/math-vector-fortran.h
REM seed -1831712905 2072793048 -449521892 -1925555816 -1868658999 1679756821 1608676742 2095322205 1298943815 -7313376 917435283 -1605838354 558314737 1297665534 -505875388 1882065490 -170501460 367149471 -1636627523 1588103435 1453608437 1999574412 -149633724 -999099417 -1540879580 756846212 1958861140 1965796930 -1888345809 -1774820658 623216953 -871056466 1854716943
REM
CELL 1.54180   50.00000   50.00000   50.00000   90.00000   90.00000   90.00000
LATT -1
SFAC C  
C      1  0.5180710000000  0.5667120000000  0.4732170000000 1.0
C      1  0.4428810000000  0.4702480000000  0.5314890000000 1.0
C      1  0.5523110000000  0.5859120000000  0.4673290000000 1.0
C      1  0.5120010000000  0.5168390000000  0.5099940000000 1.0
C      1  0.5507250000000  0.5476650000000  0.5142270000000 1.0
C      1  0.4987830000000  0.4804010000000  0.4588860000000 1.0
C      1  0.5129440000000  0.4896390000000  0.5210090000000 1.0
C      1  0.5527450000000  0.4552200000000  0.5093600000000 1.0
C      1  0.4372510000000  0.4593020000000  0.5064490000000 1.0
C      1  0.4416980000000  0.5181090000000  0.4819530000000 1.0
C      1  0.4985820000000  0.5238350000000  0.4861500000000 1.0
C      1  0.4650570000000  0.5879910000000  0.4671710000000 1.0
C      1  0.5624870000000  0.4757370000000  0.4865760000000 1.0
C      1  0.5162290000000  0.5096960000000  0.5676160000000 1.0
C      1  0.4661050000000  0.4357380000000  0.4919320000000 1.0
C      1  0.4474690000000  0.5445940000000  0.4796900000000 1.0
C      1  0.5243330000000  0.5942880000000  0.4593370000000 1.0
C      1  0.4849060000000  0.4521430000000  0.4706510000000 1.0
C      1  0.4677720000000  0.4943960000000  0.5717960000000 1.0
C      1  0.4523180000000  0.4819430000000  0.5536700000000 1.0
C      1  0.4689900000000  0.5621340000000  0.4747130000000 1.0
C      1  0.4565960000000  0.4670760000000  0.4826780000000 1.0
C      1  0.5209950000000  0.4724150000000  0.4352430000000 1.0
C      1  0.4953450000000  0.5515030000000  0.4778870000000 1.0
C      1  0.4589310000000  0.4965060000000  0.4781990000000 1.0
C      1  0.5482260000000  0.5574060000000  0.4830670000000 1.0
C      1  0.5180530000000  0.4531840000000  0.4629920000000 1.0
C      1  0.5620690000000  0.5281110000000  0.4893050000000 1.0
C      1  0.5321250000000  0.4772190000000  0.4127110000000 1.0
C      1  0.4854850000000  0.5032000000000  0.4712560000000 1.0
C      1  0.5035920000000  0.4598210000000  0.5345870000000 1.0
C      1  0.5250000000000  0.4884340000000  0.5517610000000 1.0
C      1  0.4703370000000  0.4273300000000  0.5169650000000 1.0
C      1  0.3959800000000  0.4261520000000  0.4961890000000 1.0
C      1  0.5668960000000  0.5028110000000  0.4847580000000 1.0
C      1  0.4160390000000  0.4422640000000  0.5011760000000 1.0
C      1  0.4858630000000  0.4404130000000  0.5350930000000 1.0
C      1  0.5217720000000  0.5347010000000  0.5544930000000 1.0
C      1  0.5364440000000  0.4643340000000  0.5313240000000 1.0
C      1  0.4910100000000  0.5057770000000  0.5800100000000 1.0
C      1  0.5257320000000  0.5360730000000  0.5261960000000 1.0
C      1  0.5419240000000  0.4516350000000  0.4795350000000 1.0
C      1  0.5679300000000  0.5610930000000  0.5313600000000 1.0
END
