TITL C-2778429-3646-1178 0.00902885122097491 125000 -1163.9062519605 0 0 199 (C1) n - 1
REM
REM in /home/nfs/bkarasulu/CARBON/AIRSS/Generating-Clusters/REBO/Only-C1/SD-CG/HFTN-CG
REM
REM
REM
REM
REM
REM ./C.cell (11c1c37f851c82e70ff6c80c92926a4b)
REM
REM compiler GCC version 9.2.1 20190827 (Red Hat 9.2.1-1)
REM options -cpp -mtune=generic -march=x86-64 -g -O0 -fpre-include=/usr/include/finclude/math-vector-fortran.h
REM seed -254570921 -882920518 -1087262691 1639119048 -1669554637 -1438902488 -1343493905 -1475180051 438460593 1222629170 912868878 -2091418669 -990557355 1513154120 428758746 -403732440 44701184 835047915 1958113898 -220991397 -1666238441 1338308131 -1333008823 -525481912 964108671 411935201 798048348 1693392122 -326108439 484623783 -1198300369 -495296067 838389742
REM
CELL 1.54180   50.00000   50.00000   50.00000   90.00000   90.00000   90.00000
LATT -1
SFAC C  
C      1  0.5179900000000  0.5494340000000  0.4057570000000 1.0
C      1  0.5877330000000  0.5096900000000  0.5779180000000 1.0
C      1  0.5291380000000  0.4996860000000  0.4751710000000 1.0
C      1  0.5656620000000  0.5356340000000  0.4188460000000 1.0
C      1  0.5064590000000  0.4704510000000  0.6134270000000 1.0
C      1  0.4797010000000  0.4164330000000  0.4372490000000 1.0
C      1  0.4483090000000  0.5119130000000  0.5752620000000 1.0
C      1  0.4213570000000  0.5298800000000  0.4242960000000 1.0
C      1  0.5402480000000  0.5447770000000  0.5366450000000 1.0
C      1  0.4514390000000  0.4392560000000  0.5712240000000 1.0
C      1  0.5921920000000  0.4640450000000  0.4326410000000 1.0
C      1  0.3912350000000  0.4504190000000  0.4238060000000 1.0
C      1  0.4714120000000  0.5003180000000  0.5259840000000 1.0
C      1  0.4380850000000  0.4150700000000  0.5197360000000 1.0
C      1  0.4527960000000  0.5022940000000  0.4746170000000 1.0
C      1  0.5385880000000  0.5664180000000  0.5129440000000 1.0
C      1  0.5201640000000  0.5821270000000  0.5696030000000 1.0
C      1  0.3780620000000  0.5084180000000  0.4897610000000 1.0
C      1  0.4010640000000  0.5650400000000  0.5006250000000 1.0
C      1  0.4054430000000  0.4605670000000  0.5057590000000 1.0
C      1  0.3909700000000  0.4969380000000  0.5564840000000 1.0
C      1  0.5141940000000  0.4791800000000  0.4949950000000 1.0
C      1  0.4540350000000  0.5427480000000  0.5829980000000 1.0
C      1  0.5305960000000  0.5311910000000  0.6066440000000 1.0
C      1  0.5141160000000  0.4778670000000  0.5449520000000 1.0
C      1  0.6510920000000  0.4642080000000  0.4825200000000 1.0
C      1  0.4177940000000  0.4801240000000  0.5538270000000 1.0
C      1  0.4229200000000  0.4343460000000  0.4963210000000 1.0
C      1  0.4838110000000  0.4388700000000  0.5838520000000 1.0
C      1  0.6070340000000  0.4465360000000  0.4568890000000 1.0
C      1  0.4928920000000  0.4555450000000  0.5488360000000 1.0
C      1  0.4090510000000  0.5579170000000  0.4685150000000 1.0
C      1  0.6098270000000  0.5132870000000  0.4552140000000 1.0
C      1  0.5514790000000  0.5283390000000  0.4982780000000 1.0
C      1  0.4962110000000  0.5744540000000  0.5385370000000 1.0
C      1  0.4967260000000  0.5719740000000  0.5788350000000 1.0
C      1  0.4557400000000  0.4170260000000  0.5474740000000 1.0
C      1  0.5363040000000  0.3961960000000  0.5408380000000 1.0
C      1  0.4452320000000  0.5531190000000  0.4307910000000 1.0
C      1  0.4748870000000  0.5460000000000  0.5010860000000 1.0
C      1  0.5402850000000  0.4516670000000  0.5298990000000 1.0
C      1  0.4693850000000  0.4315850000000  0.4843070000000 1.0
C      1  0.4227370000000  0.5348650000000  0.5733740000000 1.0
C      1  0.5571730000000  0.4705130000000  0.5094820000000 1.0
C      1  0.6008350000000  0.4611880000000  0.5304880000000 1.0
C      1  0.4452960000000  0.5925210000000  0.4672250000000 1.0
C      1  0.4901520000000  0.4998720000000  0.6098190000000 1.0
C      1  0.4722510000000  0.5483070000000  0.4618910000000 1.0
C      1  0.5680480000000  0.5587810000000  0.4510290000000 1.0
C      1  0.5751000000000  0.5145610000000  0.4836950000000 1.0
C      1  0.5861350000000  0.5322850000000  0.5555140000000 1.0
C      1  0.5689280000000  0.4744440000000  0.4634260000000 1.0
C      1  0.4885830000000  0.6079590000000  0.4337580000000 1.0
C      1  0.4993650000000  0.4278530000000  0.5483790000000 1.0
C      1  0.5154760000000  0.4342890000000  0.4631340000000 1.0
C      1  0.5207410000000  0.5296470000000  0.4845840000000 1.0
C      1  0.5440940000000  0.5074550000000  0.6132460000000 1.0
C      1  0.5549890000000  0.5177170000000  0.5763350000000 1.0
C      1  0.4580620000000  0.4472830000000  0.5322420000000 1.0
C      1  0.5701420000000  0.5172200000000  0.4540630000000 1.0
C      1  0.4641790000000  0.4725170000000  0.5537820000000 1.0
C      1  0.4659490000000  0.5840460000000  0.5375460000000 1.0
C      1  0.4933380000000  0.5328660000000  0.3887130000000 1.0
C      1  0.5920890000000  0.4510470000000  0.5741830000000 1.0
C      1  0.5705820000000  0.5049620000000  0.5421080000000 1.0
C      1  0.5381290000000  0.5196520000000  0.4501200000000 1.0
C      1  0.5691890000000  0.5892820000000  0.5018530000000 1.0
C      1  0.4625120000000  0.5684030000000  0.4839060000000 1.0
C      1  0.5075900000000  0.5980750000000  0.4952510000000 1.0
C      1  0.5928640000000  0.4805300000000  0.5645440000000 1.0
C      1  0.5443250000000  0.5826980000000  0.4835100000000 1.0
C      1  0.5532370000000  0.4189880000000  0.5636520000000 1.0
C      1  0.5236800000000  0.5203530000000  0.4228270000000 1.0
C      1  0.6296360000000  0.4649450000000  0.4667740000000 1.0
C      1  0.4556180000000  0.5932920000000  0.5140600000000 1.0
C      1  0.5754850000000  0.4910690000000  0.4381170000000 1.0
C      1  0.5521410000000  0.4818810000000  0.4836610000000 1.0
C      1  0.4323100000000  0.5175590000000  0.5186780000000 1.0
C      1  0.5622210000000  0.5529180000000  0.5589030000000 1.0
C      1  0.5135390000000  0.5683290000000  0.4820850000000 1.0
C      1  0.4231030000000  0.4850610000000  0.5140930000000 1.0
C      1  0.5431570000000  0.4367180000000  0.4273090000000 1.0
C      1  0.4113680000000  0.4564760000000  0.4395780000000 1.0
C      1  0.5287110000000  0.3910390000000  0.4923300000000 1.0
C      1  0.4811940000000  0.4478000000000  0.5093680000000 1.0
C      1  0.5032120000000  0.4031760000000  0.4290270000000 1.0
C      1  0.4885870000000  0.3894230000000  0.4653470000000 1.0
C      1  0.4951020000000  0.5112610000000  0.5778520000000 1.0
C      1  0.5871860000000  0.5586020000000  0.5355320000000 1.0
C      1  0.4120330000000  0.5117330000000  0.4437960000000 1.0
C      1  0.6122270000000  0.5178380000000  0.5156230000000 1.0
C      1  0.4431470000000  0.4726220000000  0.4658890000000 1.0
C      1  0.4883250000000  0.4518030000000  0.4153110000000 1.0
C      1  0.4657920000000  0.5686760000000  0.5658390000000 1.0
C      1  0.5341590000000  0.5891840000000  0.5455170000000 1.0
C      1  0.3698820000000  0.5258280000000  0.5165250000000 1.0
C      1  0.4594180000000  0.4527360000000  0.4208520000000 1.0
C      1  0.5076300000000  0.5235340000000  0.5276810000000 1.0
C      1  0.4679920000000  0.4100600000000  0.5088410000000 1.0
C      1  0.4646840000000  0.5141640000000  0.4956300000000 1.0
C      1  0.5847430000000  0.4756740000000  0.5141780000000 1.0
C      1  0.5320720000000  0.4092350000000  0.4368730000000 1.0
C      1  0.5468360000000  0.5158040000000  0.5259040000000 1.0
C      1  0.4742400000000  0.3957690000000  0.5576870000000 1.0
C      1  0.4718880000000  0.5779580000000  0.4145430000000 1.0
C      1  0.3963890000000  0.5410280000000  0.5242790000000 1.0
C      1  0.4816580000000  0.5762360000000  0.4450790000000 1.0
C      1  0.6128520000000  0.4853910000000  0.4504650000000 1.0
C      1  0.4820690000000  0.5050460000000  0.4155910000000 1.0
C      1  0.5765000000000  0.4319410000000  0.5760220000000 1.0
C      1  0.5015230000000  0.5349860000000  0.4389970000000 1.0
C      1  0.4747280000000  0.4719930000000  0.6203170000000 1.0
C      1  0.4924420000000  0.4086990000000  0.5826180000000 1.0
C      1  0.6035100000000  0.5005970000000  0.5390690000000 1.0
C      1  0.6051180000000  0.5488200000000  0.5083320000000 1.0
C      1  0.5350590000000  0.5443990000000  0.5762180000000 1.0
C      1  0.5485160000000  0.4817130000000  0.4103370000000 1.0
C      1  0.5918860000000  0.5374010000000  0.4389440000000 1.0
C      1  0.4421050000000  0.4410390000000  0.4751560000000 1.0
C      1  0.5081680000000  0.5621430000000  0.4519850000000 1.0
C      1  0.4373550000000  0.5011790000000  0.5476740000000 1.0
C      1  0.5119260000000  0.5474850000000  0.5514290000000 1.0
C      1  0.5289980000000  0.4494170000000  0.4863260000000 1.0
C      1  0.5077740000000  0.3900730000000  0.5581790000000 1.0
C      1  0.4744460000000  0.5320630000000  0.5299610000000 1.0
C      1  0.4425170000000  0.5291220000000  0.3990740000000 1.0
C      1  0.5793220000000  0.4490050000000  0.4683510000000 1.0
C      1  0.4808950000000  0.4776450000000  0.4944460000000 1.0
C      1  0.5607130000000  0.4581310000000  0.4210830000000 1.0
C      1  0.4283540000000  0.5852270000000  0.4961140000000 1.0
C      1  0.5640450000000  0.5074470000000  0.4131950000000 1.0
C      1  0.4513340000000  0.5176340000000  0.4476820000000 1.0
C      1  0.4707190000000  0.3916730000000  0.4825530000000 1.0
C      1  0.5148500000000  0.5966700000000  0.5238490000000 1.0
C      1  0.4977410000000  0.4729930000000  0.3978660000000 1.0
C      1  0.4856830000000  0.5424670000000  0.5881060000000 1.0
C      1  0.4931840000000  0.4108200000000  0.5259310000000 1.0
C      1  0.5119200000000  0.4448890000000  0.5146260000000 1.0
C      1  0.3834930000000  0.5416010000000  0.4828610000000 1.0
C      1  0.4448930000000  0.5848140000000  0.4341660000000 1.0
C      1  0.4456460000000  0.4739870000000  0.4090080000000 1.0
C      1  0.4063700000000  0.5184190000000  0.4741800000000 1.0
C      1  0.4929990000000  0.5713280000000  0.3984560000000 1.0
C      1  0.5171450000000  0.4013720000000  0.4664450000000 1.0
C      1  0.4950470000000  0.4854140000000  0.4357620000000 1.0
C      1  0.4166340000000  0.4388290000000  0.5295890000000 1.0
C      1  0.4530750000000  0.4147810000000  0.4312180000000 1.0
C      1  0.4062630000000  0.5082820000000  0.5797850000000 1.0
C      1  0.4949060000000  0.5028230000000  0.3859260000000 1.0
C      1  0.4766740000000  0.5984900000000  0.4911900000000 1.0
C      1  0.4747960000000  0.4667660000000  0.4549010000000 1.0
C      1  0.4536690000000  0.4760640000000  0.5151430000000 1.0
C      1  0.5331050000000  0.4797040000000  0.5980970000000 1.0
C      1  0.4511500000000  0.5476090000000  0.5434190000000 1.0
C      1  0.5937240000000  0.5777810000000  0.4942790000000 1.0
C      1  0.6087030000000  0.5349170000000  0.4767450000000 1.0
C      1  0.4126930000000  0.4821110000000  0.4580490000000 1.0
C      1  0.5590810000000  0.4851880000000  0.5658130000000 1.0
C      1  0.4499540000000  0.5031200000000  0.4169580000000 1.0
C      1  0.4255410000000  0.4527790000000  0.5547690000000 1.0
C      1  0.4024840000000  0.5076550000000  0.5292790000000 1.0
C      1  0.5940350000000  0.5604340000000  0.4710560000000 1.0
C      1  0.4880380000000  0.4947540000000  0.5530480000000 1.0
C      1  0.5076240000000  0.6017860000000  0.4613060000000 1.0
C      1  0.4169440000000  0.5490880000000  0.5463950000000 1.0
C      1  0.5625860000000  0.5816830000000  0.5318690000000 1.0
C      1  0.4656040000000  0.5415890000000  0.3875530000000 1.0
C      1  0.4949690000000  0.5238210000000  0.4685490000000 1.0
C      1  0.5157420000000  0.3957160000000  0.5171430000000 1.0
C      1  0.5374880000000  0.4652460000000  0.5610380000000 1.0
C      1  0.4908630000000  0.4942360000000  0.4664870000000 1.0
C      1  0.5214840000000  0.4956480000000  0.5219330000000 1.0
C      1  0.4736240000000  0.6110860000000  0.4626990000000 1.0
C      1  0.4370930000000  0.4401140000000  0.4430810000000 1.0
C      1  0.4843580000000  0.4378340000000  0.4594060000000 1.0
C      1  0.5230790000000  0.4181370000000  0.5710300000000 1.0
C      1  0.5202090000000  0.4907980000000  0.4141240000000 1.0
C      1  0.5340280000000  0.5824690000000  0.4510440000000 1.0
C      1  0.5136440000000  0.4553790000000  0.5836470000000 1.0
C      1  0.3948820000000  0.4813060000000  0.4835980000000 1.0
C      1  0.5934470000000  0.4999860000000  0.5003930000000 1.0
C      1  0.4725500000000  0.5345460000000  0.4262590000000 1.0
C      1  0.5542870000000  0.4230580000000  0.5316280000000 1.0
C      1  0.4605460000000  0.4568760000000  0.5989130000000 1.0
C      1  0.5059490000000  0.5541300000000  0.5124830000000 1.0
C      1  0.4379220000000  0.5574550000000  0.5134770000000 1.0
C      1  0.5463230000000  0.5455950000000  0.4690680000000 1.0
C      1  0.5425940000000  0.5590940000000  0.4275060000000 1.0
C      1  0.4207570000000  0.4891610000000  0.5930530000000 1.0
C      1  0.5605090000000  0.4379810000000  0.4865010000000 1.0
C      1  0.4481550000000  0.4781910000000  0.5797100000000 1.0
C      1  0.4265040000000  0.5783790000000  0.5374750000000 1.0
C      1  0.4344960000000  0.5427230000000  0.4600140000000 1.0
C      1  0.5657290000000  0.4170560000000  0.5045110000000 1.0
C      1  0.5110770000000  0.4423430000000  0.4302860000000 1.0
C      1  0.5570110000000  0.3919380000000  0.4945220000000 1.0
C      1  0.4302100000000  0.5341530000000  0.4926890000000 1.0
C      1  0.5022850000000  0.5297720000000  0.6122280000000 1.0
C      1  0.5259500000000  0.5039010000000  0.5779400000000 1.0
END
