TITL C-2778424-3986-620 -0.00647413251913706 125000 -1077.03765447661 0 0 180 (C1) n - 1
REM
REM in /home/nfs/bkarasulu/CARBON/AIRSS/Generating-Clusters/REBO/Only-C1/SD-CG/HFTN-CG
REM
REM
REM
REM
REM
REM ./C.cell (11c1c37f851c82e70ff6c80c92926a4b)
REM
REM compiler GCC version 9.2.1 20190827 (Red Hat 9.2.1-1)
REM options -cpp -mtune=generic -march=x86-64 -g -O0 -fpre-include=/usr/include/finclude/math-vector-fortran.h
REM seed 149869370 670629454 -1751375423 -609760083 1437829752 -1517143700 1484033684 1758385221 -1971956190 33652325 -1499137942 -1137710632 2005697953 -68208326 187552776 997623420 -1316153064 1922137131 2133720067 -1606476768 -1578168464 150212408 279995930 -623478359 1326340719 2008385074 -127294082 -554661797 -2033664628 -1183313632 617098280 -1176034459 -294057297
REM
CELL 1.54180   50.00000   50.00000   50.00000   90.00000   90.00000   90.00000
LATT -1
SFAC C  
C      1  0.4960780000000  0.4241790000000  0.4136750000000 1.0
C      1  0.4438410000000  0.4509920000000  0.3888290000000 1.0
C      1  0.6312770000000  0.4983520000000  0.4731300000000 1.0
C      1  0.5230830000000  0.3758110000000  0.5211880000000 1.0
C      1  0.5630290000000  0.5300440000000  0.4734400000000 1.0
C      1  0.4186320000000  0.5881030000000  0.5263700000000 1.0
C      1  0.5210330000000  0.5821170000000  0.5777490000000 1.0
C      1  0.5079300000000  0.5499030000000  0.4538820000000 1.0
C      1  0.4997800000000  0.4518490000000  0.4214710000000 1.0
C      1  0.4554440000000  0.4803020000000  0.5161030000000 1.0
C      1  0.5707650000000  0.4138400000000  0.4479700000000 1.0
C      1  0.5512610000000  0.5000200000000  0.4159300000000 1.0
C      1  0.4817810000000  0.6042700000000  0.4877370000000 1.0
C      1  0.4776370000000  0.4048690000000  0.5238970000000 1.0
C      1  0.5454870000000  0.4625560000000  0.5940730000000 1.0
C      1  0.4327460000000  0.5621140000000  0.5750180000000 1.0
C      1  0.5830910000000  0.5808540000000  0.4720050000000 1.0
C      1  0.4539550000000  0.4037160000000  0.4919020000000 1.0
C      1  0.5150170000000  0.6057720000000  0.5583640000000 1.0
C      1  0.5552730000000  0.4101680000000  0.5451510000000 1.0
C      1  0.4172310000000  0.4686720000000  0.5159120000000 1.0
C      1  0.4853070000000  0.5065320000000  0.5127560000000 1.0
C      1  0.4436900000000  0.4668850000000  0.4117810000000 1.0
C      1  0.5608800000000  0.4964780000000  0.5420780000000 1.0
C      1  0.4255640000000  0.5083620000000  0.5607850000000 1.0
C      1  0.5384740000000  0.4182820000000  0.4417000000000 1.0
C      1  0.5636860000000  0.5562350000000  0.5520410000000 1.0
C      1  0.5232050000000  0.5620320000000  0.4783570000000 1.0
C      1  0.5620290000000  0.4313190000000  0.4219450000000 1.0
C      1  0.4548230000000  0.5476750000000  0.4840780000000 1.0
C      1  0.5415160000000  0.4683990000000  0.5215420000000 1.0
C      1  0.5199800000000  0.5704330000000  0.5285330000000 1.0
C      1  0.5451400000000  0.5473180000000  0.4919780000000 1.0
C      1  0.6293480000000  0.4693100000000  0.5400460000000 1.0
C      1  0.4982570000000  0.5574150000000  0.4160690000000 1.0
C      1  0.4656160000000  0.5589250000000  0.5121450000000 1.0
C      1  0.5383070000000  0.4726290000000  0.4006340000000 1.0
C      1  0.5775980000000  0.5557930000000  0.5270980000000 1.0
C      1  0.4494060000000  0.5898770000000  0.4541190000000 1.0
C      1  0.5413360000000  0.5766270000000  0.5517950000000 1.0
C      1  0.6076180000000  0.4854910000000  0.5453030000000 1.0
C      1  0.5207380000000  0.5181870000000  0.5553140000000 1.0
C      1  0.5750060000000  0.4234680000000  0.4748530000000 1.0
C      1  0.4911590000000  0.4386730000000  0.4727580000000 1.0
C      1  0.4820880000000  0.4387250000000  0.5655700000000 1.0
C      1  0.4154770000000  0.4613170000000  0.4766420000000 1.0
C      1  0.4186960000000  0.4943580000000  0.5040090000000 1.0
C      1  0.4894630000000  0.5008180000000  0.3988910000000 1.0
C      1  0.4809760000000  0.4092090000000  0.4719120000000 1.0
C      1  0.4578440000000  0.6038790000000  0.5549150000000 1.0
C      1  0.4798160000000  0.5636410000000  0.5639490000000 1.0
C      1  0.3844860000000  0.5619010000000  0.4702760000000 1.0
C      1  0.5039420000000  0.3958770000000  0.5411170000000 1.0
C      1  0.5711180000000  0.5121660000000  0.4341000000000 1.0
C      1  0.5556520000000  0.4309850000000  0.5884520000000 1.0
C      1  0.5100090000000  0.4628130000000  0.5253170000000 1.0
C      1  0.4009790000000  0.5209180000000  0.5061710000000 1.0
C      1  0.3936850000000  0.4891070000000  0.4386710000000 1.0
C      1  0.5142100000000  0.4711910000000  0.6049710000000 1.0
C      1  0.5282970000000  0.4814010000000  0.4318880000000 1.0
C      1  0.4705100000000  0.6061620000000  0.4589950000000 1.0
C      1  0.5385760000000  0.5270490000000  0.5131810000000 1.0
C      1  0.5647630000000  0.4094420000000  0.4980410000000 1.0
C      1  0.4207620000000  0.5250290000000  0.4274940000000 1.0
C      1  0.5613500000000  0.4840760000000  0.5799390000000 1.0
C      1  0.5653820000000  0.5177320000000  0.5273640000000 1.0
C      1  0.5002140000000  0.5644010000000  0.5842300000000 1.0
C      1  0.5061430000000  0.5275770000000  0.4284400000000 1.0
C      1  0.4783460000000  0.5710040000000  0.4763210000000 1.0
C      1  0.5978570000000  0.5266810000000  0.5670250000000 1.0
C      1  0.5207690000000  0.4890680000000  0.4823170000000 1.0
C      1  0.4960180000000  0.4264750000000  0.5046850000000 1.0
C      1  0.4027390000000  0.5661560000000  0.5245480000000 1.0
C      1  0.4764880000000  0.4781760000000  0.4459060000000 1.0
C      1  0.5871240000000  0.5513950000000  0.4624740000000 1.0
C      1  0.5149210000000  0.4057460000000  0.4295560000000 1.0
C      1  0.4386720000000  0.5376600000000  0.5591740000000 1.0
C      1  0.4566990000000  0.5122910000000  0.4392630000000 1.0
C      1  0.6058330000000  0.4978790000000  0.4652820000000 1.0
C      1  0.5358220000000  0.6063450000000  0.5353640000000 1.0
C      1  0.5593210000000  0.4825300000000  0.4743690000000 1.0
C      1  0.5589820000000  0.5948840000000  0.4893500000000 1.0
C      1  0.5189740000000  0.4414660000000  0.5994620000000 1.0
C      1  0.4094730000000  0.5614180000000  0.4651110000000 1.0
C      1  0.5106890000000  0.6110560000000  0.4910690000000 1.0
C      1  0.4334260000000  0.4813170000000  0.4692050000000 1.0
C      1  0.5366540000000  0.4334140000000  0.4705470000000 1.0
C      1  0.5935940000000  0.5291320000000  0.5178190000000 1.0
C      1  0.4861000000000  0.6099060000000  0.5505070000000 1.0
C      1  0.5362480000000  0.5312070000000  0.4564750000000 1.0
C      1  0.4884100000000  0.4780090000000  0.6009500000000 1.0
C      1  0.5254740000000  0.5720250000000  0.4256340000000 1.0
C      1  0.4606710000000  0.4955630000000  0.4103210000000 1.0
C      1  0.5171190000000  0.4056370000000  0.5697500000000 1.0
C      1  0.4986730000000  0.4802600000000  0.4998870000000 1.0
C      1  0.5700550000000  0.5337350000000  0.5695120000000 1.0
C      1  0.5940230000000  0.5291160000000  0.4872810000000 1.0
C      1  0.4578380000000  0.4287780000000  0.4451520000000 1.0
C      1  0.4029960000000  0.5149150000000  0.4474270000000 1.0
C      1  0.5641930000000  0.5676400000000  0.5046330000000 1.0
C      1  0.5159340000000  0.5379630000000  0.5328040000000 1.0
C      1  0.4000360000000  0.5291920000000  0.5555080000000 1.0
C      1  0.4831500000000  0.3869120000000  0.4970820000000 1.0
C      1  0.4316810000000  0.4930710000000  0.5862500000000 1.0
C      1  0.5025550000000  0.5723420000000  0.4994190000000 1.0
C      1  0.5091710000000  0.3818920000000  0.4787130000000 1.0
C      1  0.4421650000000  0.4203140000000  0.4676540000000 1.0
C      1  0.5102470000000  0.5117960000000  0.4648190000000 1.0
C      1  0.5444920000000  0.4955370000000  0.5016220000000 1.0
C      1  0.5057600000000  0.4719290000000  0.4006720000000 1.0
C      1  0.5311420000000  0.4083070000000  0.5261150000000 1.0
C      1  0.4874050000000  0.5731090000000  0.4442440000000 1.0
C      1  0.4774410000000  0.4601830000000  0.4897310000000 1.0
C      1  0.4765060000000  0.5068910000000  0.4650180000000 1.0
C      1  0.4994930000000  0.5386060000000  0.5995800000000 1.0
C      1  0.4374480000000  0.5197430000000  0.4900990000000 1.0
C      1  0.5066010000000  0.4522120000000  0.4498390000000 1.0
C      1  0.5038230000000  0.4263710000000  0.5822810000000 1.0
C      1  0.4339490000000  0.4460830000000  0.5116160000000 1.0
C      1  0.5304510000000  0.4906270000000  0.5448190000000 1.0
C      1  0.5209460000000  0.5947820000000  0.4420560000000 1.0
C      1  0.4601870000000  0.4569540000000  0.4364040000000 1.0
C      1  0.4965120000000  0.3898750000000  0.4498410000000 1.0
C      1  0.5261770000000  0.4193010000000  0.4948080000000 1.0
C      1  0.5364280000000  0.6097540000000  0.5076200000000 1.0
C      1  0.4371250000000  0.4262680000000  0.5510630000000 1.0
C      1  0.4659570000000  0.5895560000000  0.5113690000000 1.0
C      1  0.5019580000000  0.4961220000000  0.4365530000000 1.0
C      1  0.5314900000000  0.4696650000000  0.4597610000000 1.0
C      1  0.4975590000000  0.4908260000000  0.5381890000000 1.0
C      1  0.4247850000000  0.4509680000000  0.5602350000000 1.0
C      1  0.5629670000000  0.4516480000000  0.4763480000000 1.0
C      1  0.4657940000000  0.4493940000000  0.5170610000000 1.0
C      1  0.5717680000000  0.5404560000000  0.4360340000000 1.0
C      1  0.4453130000000  0.4155660000000  0.5214820000000 1.0
C      1  0.5388890000000  0.3876050000000  0.4933350000000 1.0
C      1  0.4783260000000  0.4931050000000  0.5611040000000 1.0
C      1  0.5555540000000  0.4470620000000  0.4013060000000 1.0
C      1  0.4575950000000  0.5198180000000  0.5144670000000 1.0
C      1  0.4488470000000  0.5425320000000  0.5346080000000 1.0
C      1  0.4592320000000  0.4869100000000  0.4839210000000 1.0
C      1  0.5217050000000  0.5102200000000  0.4051030000000 1.0
C      1  0.4340330000000  0.4901290000000  0.4428610000000 1.0
C      1  0.4824870000000  0.5339880000000  0.3971800000000 1.0
C      1  0.5534050000000  0.5126020000000  0.5807830000000 1.0
C      1  0.4963590000000  0.5943540000000  0.5244230000000 1.0
C      1  0.5449200000000  0.5529220000000  0.4317030000000 1.0
C      1  0.4553900000000  0.5793560000000  0.5705680000000 1.0
C      1  0.4148630000000  0.4745080000000  0.4234290000000 1.0
C      1  0.4598630000000  0.5498900000000  0.4084930000000 1.0
C      1  0.4043830000000  0.5511560000000  0.5746990000000 1.0
C      1  0.4757130000000  0.4104870000000  0.4324020000000 1.0
C      1  0.4929020000000  0.6057020000000  0.4391370000000 1.0
C      1  0.4865180000000  0.5519720000000  0.5380740000000 1.0
C      1  0.4579390000000  0.4193130000000  0.5678010000000 1.0
C      1  0.5230750000000  0.5193220000000  0.5868310000000 1.0
C      1  0.4295640000000  0.5079830000000  0.4073530000000 1.0
C      1  0.4402310000000  0.4665940000000  0.5794110000000 1.0
C      1  0.4073190000000  0.4657140000000  0.5427440000000 1.0
C      1  0.4465110000000  0.5087170000000  0.6052900000000 1.0
C      1  0.4518010000000  0.5002510000000  0.5419420000000 1.0
C      1  0.5458040000000  0.4102050000000  0.5712620000000 1.0
C      1  0.4702620000000  0.5215790000000  0.6045420000000 1.0
C      1  0.4438630000000  0.6003080000000  0.5293520000000 1.0
C      1  0.6563160000000  0.4988170000000  0.4808540000000 1.0
C      1  0.5673570000000  0.4250280000000  0.5231650000000 1.0
C      1  0.4185930000000  0.4344900000000  0.4735220000000 1.0
C      1  0.4449830000000  0.5429110000000  0.4352790000000 1.0
C      1  0.4710360000000  0.4657790000000  0.5764450000000 1.0
C      1  0.5802260000000  0.4740060000000  0.5534300000000 1.0
C      1  0.6066100000000  0.5139880000000  0.5429350000000 1.0
C      1  0.4902580000000  0.5121050000000  0.5803760000000 1.0
C      1  0.4074050000000  0.5207300000000  0.4745900000000 1.0
C      1  0.4397850000000  0.5608330000000  0.4588450000000 1.0
C      1  0.3974850000000  0.5383140000000  0.5282170000000 1.0
C      1  0.5669320000000  0.4535700000000  0.5298060000000 1.0
C      1  0.6499820000000  0.4539440000000  0.5350540000000 1.0
C      1  0.5792620000000  0.4973850000000  0.4570850000000 1.0
C      1  0.4898550000000  0.4409410000000  0.5353210000000 1.0
C      1  0.5304570000000  0.5931330000000  0.4718300000000 1.0
END
