TITL C-2778435-5768-1149 0.000759991106700772 125000 -173.147423534711 0 0 31 (C1) n - 1
REM
REM in /home/nfs/bkarasulu/CARBON/AIRSS/Generating-Clusters/REBO/Only-C1/SD-CG/HFTN-CG
REM
REM
REM
REM
REM
REM ./C.cell (11c1c37f851c82e70ff6c80c92926a4b)
REM
REM compiler GCC version 9.2.1 20190827 (Red Hat 9.2.1-1)
REM options -cpp -mtune=generic -march=x86-64 -g -O0 -fpre-include=/usr/include/finclude/math-vector-fortran.h
REM seed -277275982 1875635353 -1718573945 -1105458037 -2112780892 -2088815393 1189734446 541078764 323320791 -405720678 -1990107824 -2135670030 -1376552500 -1188652363 -1822246537 1069884997 967531792 -1034449273 -1977183438 1155058694 1688658143 77028784 618596803 1922131745 2143979009 1324555822 -334602369 -1733819607 88031465 1299120333 -273811096 -1817372191 645163345
REM
CELL 1.54180   50.00000   50.00000   50.00000   90.00000   90.00000   90.00000
LATT -1
SFAC C  
C      1  0.4589910000000  0.5488350000000  0.4856140000000 1.0
C      1  0.4881420000000  0.4916870000000  0.4531890000000 1.0
C      1  0.4802080000000  0.5249040000000  0.5579180000000 1.0
C      1  0.5731410000000  0.4821090000000  0.4973890000000 1.0
C      1  0.5228380000000  0.4941700000000  0.5246240000000 1.0
C      1  0.4709770000000  0.4956930000000  0.5206630000000 1.0
C      1  0.4968890000000  0.4842740000000  0.5213370000000 1.0
C      1  0.5778610000000  0.4755460000000  0.5235400000000 1.0
C      1  0.4519580000000  0.4839600000000  0.5036890000000 1.0
C      1  0.4712500000000  0.5224110000000  0.5312480000000 1.0
C      1  0.4598690000000  0.4416430000000  0.4458200000000 1.0
C      1  0.5341470000000  0.5145280000000  0.5050050000000 1.0
C      1  0.4482000000000  0.4709840000000  0.4793070000000 1.0
C      1  0.4493190000000  0.4665770000000  0.4260380000000 1.0
C      1  0.5371300000000  0.4905520000000  0.5493150000000 1.0
C      1  0.5050780000000  0.5570230000000  0.5190730000000 1.0
C      1  0.5234300000000  0.5008630000000  0.5718420000000 1.0
C      1  0.4498080000000  0.4428040000000  0.4730170000000 1.0
C      1  0.5632810000000  0.4801320000000  0.5463120000000 1.0
C      1  0.5296170000000  0.5148610000000  0.4716830000000 1.0
C      1  0.4837130000000  0.5301010000000  0.4796440000000 1.0
C      1  0.5324490000000  0.5719490000000  0.5277070000000 1.0
C      1  0.4807440000000  0.5427840000000  0.5110460000000 1.0
C      1  0.4997910000000  0.5115220000000  0.4674260000000 1.0
C      1  0.4821190000000  0.4652560000000  0.4351850000000 1.0
C      1  0.5004060000000  0.5154720000000  0.5735490000000 1.0
C      1  0.5403770000000  0.5337790000000  0.4538010000000 1.0
C      1  0.5330340000000  0.5418510000000  0.5157950000000 1.0
C      1  0.5544040000000  0.4970760000000  0.4858530000000 1.0
C      1  0.4444980000000  0.4219790000000  0.4893620000000 1.0
C      1  0.4563300000000  0.4846750000000  0.4540100000000 1.0
END
