TITL C-2778426-5645-42 -0.00318332764637728 125000 -597.934157449212 0 0 104 (C1) n - 1
REM
REM in /home/nfs/bkarasulu/CARBON/AIRSS/Generating-Clusters/REBO/Only-C1/SD-CG/HFTN-CG
REM
REM
REM
REM
REM
REM ./C.cell (11c1c37f851c82e70ff6c80c92926a4b)
REM
REM compiler GCC version 9.2.1 20190827 (Red Hat 9.2.1-1)
REM options -cpp -mtune=generic -march=x86-64 -g -O0 -fpre-include=/usr/include/finclude/math-vector-fortran.h
REM seed 993544741 1300791927 -1047632475 -259457084 -1919026146 287169254 882257980 99070880 2067131236 -1940537150 1450771153 176595630 -616912831 -135616059 619010297 -775970617 -1254288897 -1833276563 757552319 -9695570 -449402538 -568318807 888357958 -1733326338 -452288936 1244868097 2097104965 560742073 1672498173 52741807 -774456080 -1524984110 1885928112
REM
CELL 1.54180   50.00000   50.00000   50.00000   90.00000   90.00000   90.00000
LATT -1
SFAC C  
C      1  0.4615180000000  0.4501020000000  0.4545220000000 1.0
C      1  0.4494530000000  0.4805580000000  0.4908560000000 1.0
C      1  0.5412910000000  0.4371340000000  0.5488060000000 1.0
C      1  0.4851840000000  0.5422260000000  0.4224770000000 1.0
C      1  0.4775300000000  0.4117760000000  0.4610720000000 1.0
C      1  0.5115130000000  0.4630590000000  0.5366550000000 1.0
C      1  0.5575670000000  0.5264000000000  0.5680980000000 1.0
C      1  0.4544340000000  0.5040980000000  0.4503650000000 1.0
C      1  0.4457760000000  0.5175880000000  0.5229640000000 1.0
C      1  0.5072800000000  0.5602500000000  0.5052280000000 1.0
C      1  0.5427910000000  0.4525220000000  0.4719410000000 1.0
C      1  0.4937120000000  0.5686480000000  0.5348900000000 1.0
C      1  0.5397220000000  0.4520560000000  0.4377640000000 1.0
C      1  0.5572210000000  0.4901060000000  0.5833360000000 1.0
C      1  0.5204930000000  0.4857100000000  0.4726960000000 1.0
C      1  0.4257330000000  0.5042760000000  0.4662490000000 1.0
C      1  0.5356330000000  0.5276200000000  0.4611740000000 1.0
C      1  0.6123090000000  0.4828840000000  0.4577750000000 1.0
C      1  0.5690840000000  0.4599570000000  0.4515380000000 1.0
C      1  0.5906720000000  0.5327780000000  0.5212990000000 1.0
C      1  0.4598400000000  0.5755130000000  0.5150440000000 1.0
C      1  0.4751080000000  0.4953350000000  0.5383460000000 1.0
C      1  0.5136440000000  0.4505300000000  0.4992150000000 1.0
C      1  0.4592940000000  0.4623730000000  0.5723710000000 1.0
C      1  0.5388730000000  0.5057420000000  0.4786050000000 1.0
C      1  0.4742610000000  0.5594560000000  0.5522780000000 1.0
C      1  0.4981760000000  0.5487370000000  0.5921540000000 1.0
C      1  0.5062910000000  0.5301640000000  0.4550070000000 1.0
C      1  0.5739340000000  0.5059400000000  0.5217170000000 1.0
C      1  0.5219200000000  0.5845120000000  0.5231450000000 1.0
C      1  0.4352440000000  0.4435490000000  0.4955440000000 1.0
C      1  0.4397750000000  0.4845050000000  0.5709890000000 1.0
C      1  0.4983080000000  0.4181620000000  0.5161620000000 1.0
C      1  0.4709660000000  0.5114200000000  0.4147690000000 1.0
C      1  0.5812480000000  0.5536380000000  0.5368180000000 1.0
C      1  0.5249190000000  0.4964210000000  0.4063930000000 1.0
C      1  0.5182140000000  0.4199340000000  0.4879230000000 1.0
C      1  0.5363000000000  0.4759870000000  0.5200760000000 1.0
C      1  0.4797750000000  0.4091520000000  0.4931290000000 1.0
C      1  0.4564460000000  0.5099570000000  0.5606480000000 1.0
C      1  0.5242760000000  0.4748150000000  0.4241310000000 1.0
C      1  0.4941060000000  0.5077620000000  0.4394150000000 1.0
C      1  0.4620550000000  0.5054650000000  0.5021900000000 1.0
C      1  0.4237100000000  0.4793990000000  0.4440110000000 1.0
C      1  0.5352440000000  0.5137040000000  0.5850800000000 1.0
C      1  0.4580680000000  0.4309690000000  0.4802160000000 1.0
C      1  0.5310740000000  0.5555030000000  0.5389460000000 1.0
C      1  0.5460950000000  0.5745480000000  0.4416720000000 1.0
C      1  0.5068760000000  0.5231660000000  0.5767130000000 1.0
C      1  0.4499930000000  0.4853380000000  0.4230730000000 1.0
C      1  0.4504380000000  0.5534030000000  0.4635910000000 1.0
C      1  0.4867660000000  0.5445720000000  0.4771580000000 1.0
C      1  0.4842090000000  0.4753500000000  0.5822240000000 1.0
C      1  0.5731610000000  0.5007370000000  0.5550770000000 1.0
C      1  0.5412220000000  0.4342810000000  0.5082980000000 1.0
C      1  0.4784700000000  0.4856300000000  0.3954950000000 1.0
C      1  0.5061330000000  0.4759720000000  0.4940880000000 1.0
C      1  0.5750200000000  0.4842710000000  0.4903470000000 1.0
C      1  0.5574010000000  0.4646060000000  0.5608540000000 1.0
C      1  0.5283930000000  0.4778880000000  0.5590590000000 1.0
C      1  0.5579080000000  0.5501310000000  0.5529260000000 1.0
C      1  0.5109550000000  0.4669960000000  0.5827650000000 1.0
C      1  0.4835820000000  0.4400350000000  0.4226500000000 1.0
C      1  0.4947910000000  0.4245720000000  0.4432780000000 1.0
C      1  0.4181840000000  0.5054080000000  0.5176200000000 1.0
C      1  0.5212170000000  0.5811820000000  0.4591620000000 1.0
C      1  0.5360790000000  0.5427130000000  0.5092430000000 1.0
C      1  0.4829320000000  0.5034950000000  0.5774900000000 1.0
C      1  0.4505270000000  0.5376580000000  0.5479640000000 1.0
C      1  0.5296200000000  0.5042070000000  0.5373910000000 1.0
C      1  0.5459420000000  0.5634800000000  0.4885290000000 1.0
C      1  0.4364770000000  0.4549500000000  0.5251020000000 1.0
C      1  0.5754680000000  0.4741030000000  0.5338580000000 1.0
C      1  0.5615130000000  0.4457050000000  0.5261290000000 1.0
C      1  0.5209490000000  0.4309770000000  0.4567560000000 1.0
C      1  0.4876330000000  0.4459250000000  0.5299280000000 1.0
C      1  0.5872240000000  0.4763660000000  0.4655420000000 1.0
C      1  0.4294890000000  0.5610270000000  0.5476450000000 1.0
C      1  0.4151950000000  0.4785590000000  0.5273280000000 1.0
C      1  0.5189290000000  0.4239040000000  0.5415160000000 1.0
C      1  0.4369610000000  0.5806570000000  0.5299300000000 1.0
C      1  0.4709860000000  0.5440070000000  0.5073360000000 1.0
C      1  0.4383660000000  0.4506660000000  0.4392220000000 1.0
C      1  0.4430600000000  0.5410980000000  0.4893470000000 1.0
C      1  0.4608740000000  0.5343920000000  0.4450060000000 1.0
C      1  0.5451690000000  0.5131370000000  0.5083920000000 1.0
C      1  0.4932260000000  0.4969950000000  0.5093690000000 1.0
C      1  0.4291890000000  0.4660940000000  0.4749140000000 1.0
C      1  0.4242980000000  0.5192570000000  0.4894680000000 1.0
C      1  0.4592090000000  0.4455870000000  0.5487950000000 1.0
C      1  0.5091840000000  0.5200540000000  0.4116950000000 1.0
C      1  0.4704210000000  0.4611650000000  0.4105990000000 1.0
C      1  0.4740880000000  0.4763970000000  0.4536800000000 1.0
C      1  0.5298040000000  0.5892790000000  0.4901410000000 1.0
C      1  0.4661040000000  0.4692790000000  0.5183820000000 1.0
C      1  0.5052100000000  0.4811310000000  0.4475840000000 1.0
C      1  0.4868760000000  0.5253030000000  0.5264380000000 1.0
C      1  0.4813810000000  0.5800560000000  0.4943870000000 1.0
C      1  0.5490930000000  0.5527060000000  0.4626110000000 1.0
C      1  0.5494960000000  0.4713640000000  0.4961830000000 1.0
C      1  0.4796720000000  0.5646120000000  0.5797450000000 1.0
C      1  0.4688060000000  0.5766280000000  0.4680290000000 1.0
C      1  0.5121430000000  0.5296290000000  0.5454770000000 1.0
C      1  0.4976080000000  0.5609590000000  0.4487650000000 1.0
END
