TITL C-2778427-5640-123 -0.000154448530006511 125000 -708.698681417899 0 0 122 (C1) n - 1
REM
REM in /home/nfs/bkarasulu/CARBON/AIRSS/Generating-Clusters/REBO/Only-C1/SD-CG/HFTN-CG
REM
REM
REM
REM
REM
REM ./C.cell (11c1c37f851c82e70ff6c80c92926a4b)
REM
REM compiler GCC version 9.2.1 20190827 (Red Hat 9.2.1-1)
REM options -cpp -mtune=generic -march=x86-64 -g -O0 -fpre-include=/usr/include/finclude/math-vector-fortran.h
REM seed 1969492623 -1680630935 1334632235 -62380610 706598718 -1431991046 176963833 -1626514553 -343986518 1526675997 620562725 1430830317 1056600426 -1556085734 631080987 167842182 -1661258425 1973239767 -1035003957 -1664397545 738284843 -1853891270 -732979658 -476972188 1581122439 -881236703 182226009 821740981 -1022053803 -5393980 1533808468 1546367238 -1599217013
REM
CELL 1.54180   50.00000   50.00000   50.00000   90.00000   90.00000   90.00000
LATT -1
SFAC C  
C      1  0.4600880000000  0.4935040000000  0.5804280000000 1.0
C      1  0.5447780000000  0.5164510000000  0.5017040000000 1.0
C      1  0.4680810000000  0.4704680000000  0.4413620000000 1.0
C      1  0.5587690000000  0.5665950000000  0.4866730000000 1.0
C      1  0.4427440000000  0.4696090000000  0.5633640000000 1.0
C      1  0.4305510000000  0.4849280000000  0.5400430000000 1.0
C      1  0.4363160000000  0.4641510000000  0.5155090000000 1.0
C      1  0.5333110000000  0.4169750000000  0.5759830000000 1.0
C      1  0.4341930000000  0.5142160000000  0.5724100000000 1.0
C      1  0.4963110000000  0.5272580000000  0.5534170000000 1.0
C      1  0.4882450000000  0.5156000000000  0.4454180000000 1.0
C      1  0.4972620000000  0.4746010000000  0.4145020000000 1.0
C      1  0.4430470000000  0.4301270000000  0.4626210000000 1.0
C      1  0.4750810000000  0.4351140000000  0.5015690000000 1.0
C      1  0.4719850000000  0.4560670000000  0.5742790000000 1.0
C      1  0.5085820000000  0.4314780000000  0.5622520000000 1.0
C      1  0.5060980000000  0.5252990000000  0.5218520000000 1.0
C      1  0.4897930000000  0.5654710000000  0.4326550000000 1.0
C      1  0.4291650000000  0.4756940000000  0.4488980000000 1.0
C      1  0.4247230000000  0.4967350000000  0.4955440000000 1.0
C      1  0.4200340000000  0.5241770000000  0.4475980000000 1.0
C      1  0.4636690000000  0.4367060000000  0.4366430000000 1.0
C      1  0.4573640000000  0.4564030000000  0.4691890000000 1.0
C      1  0.5733460000000  0.5650340000000  0.5446580000000 1.0
C      1  0.4454210000000  0.5681370000000  0.4561070000000 1.0
C      1  0.5642510000000  0.4713530000000  0.4408710000000 1.0
C      1  0.6073520000000  0.4519180000000  0.5157990000000 1.0
C      1  0.5307450000000  0.5451820000000  0.4517750000000 1.0
C      1  0.4324130000000  0.5877250000000  0.5040450000000 1.0
C      1  0.5382260000000  0.4963770000000  0.5757380000000 1.0
C      1  0.4492700000000  0.5289660000000  0.4531710000000 1.0
C      1  0.5283400000000  0.5457390000000  0.5683810000000 1.0
C      1  0.4562050000000  0.5581830000000  0.5317800000000 1.0
C      1  0.4788870000000  0.5392320000000  0.5197540000000 1.0
C      1  0.5170870000000  0.4204710000000  0.5155780000000 1.0
C      1  0.5287250000000  0.5844860000000  0.5255830000000 1.0
C      1  0.5813770000000  0.4528990000000  0.4524290000000 1.0
C      1  0.5468520000000  0.5906690000000  0.4972860000000 1.0
C      1  0.5777490000000  0.5142710000000  0.5412660000000 1.0
C      1  0.5312380000000  0.3912590000000  0.4605190000000 1.0
C      1  0.4923360000000  0.4429470000000  0.4259970000000 1.0
C      1  0.4785800000000  0.4981990000000  0.4036770000000 1.0
C      1  0.5655550000000  0.5122110000000  0.5685740000000 1.0
C      1  0.5049860000000  0.4880170000000  0.4790740000000 1.0
C      1  0.4833450000000  0.5557320000000  0.4838480000000 1.0
C      1  0.5848830000000  0.5424300000000  0.5326180000000 1.0
C      1  0.4908580000000  0.5232060000000  0.4834390000000 1.0
C      1  0.4318500000000  0.5625560000000  0.4868450000000 1.0
C      1  0.5559460000000  0.3916230000000  0.4720760000000 1.0
C      1  0.5377380000000  0.4974290000000  0.4791810000000 1.0
C      1  0.4664630000000  0.5052800000000  0.4678320000000 1.0
C      1  0.4521400000000  0.5145000000000  0.5038590000000 1.0
C      1  0.5478500000000  0.4630820000000  0.4185800000000 1.0
C      1  0.4139210000000  0.4456370000000  0.4988910000000 1.0
C      1  0.4178030000000  0.5003020000000  0.4321580000000 1.0
C      1  0.5275440000000  0.4822330000000  0.4125910000000 1.0
C      1  0.4609970000000  0.4824500000000  0.5112630000000 1.0
C      1  0.4988870000000  0.4773800000000  0.4484320000000 1.0
C      1  0.4491520000000  0.5119190000000  0.5354090000000 1.0
C      1  0.4557030000000  0.4410410000000  0.5499920000000 1.0
C      1  0.4153350000000  0.5270490000000  0.4946890000000 1.0
C      1  0.5153400000000  0.4823630000000  0.5827240000000 1.0
C      1  0.5290650000000  0.5179050000000  0.5536990000000 1.0
C      1  0.4862060000000  0.4792720000000  0.5944120000000 1.0
C      1  0.5777100000000  0.4983880000000  0.5150460000000 1.0
C      1  0.5264640000000  0.5317280000000  0.4144520000000 1.0
C      1  0.5225620000000  0.4578010000000  0.4596730000000 1.0
C      1  0.4854430000000  0.4813590000000  0.5319830000000 1.0
C      1  0.5326640000000  0.4758750000000  0.5265100000000 1.0
C      1  0.4835660000000  0.4667160000000  0.4949630000000 1.0
C      1  0.5131000000000  0.4345060000000  0.4444000000000 1.0
C      1  0.4449230000000  0.4851660000000  0.4748280000000 1.0
C      1  0.4712770000000  0.4288980000000  0.5298030000000 1.0
C      1  0.5801130000000  0.4485130000000  0.5129160000000 1.0
C      1  0.5003130000000  0.4182980000000  0.4869240000000 1.0
C      1  0.5931970000000  0.5413300000000  0.5050390000000 1.0
C      1  0.4187230000000  0.5228490000000  0.5435890000000 1.0
C      1  0.5855010000000  0.4293370000000  0.4649440000000 1.0
C      1  0.4757370000000  0.5716200000000  0.4587850000000 1.0
C      1  0.4970110000000  0.4198890000000  0.5389200000000 1.0
C      1  0.5723580000000  0.4118720000000  0.4829290000000 1.0
C      1  0.4053340000000  0.4766270000000  0.5102550000000 1.0
C      1  0.5121500000000  0.4487610000000  0.4971640000000 1.0
C      1  0.5370350000000  0.4659170000000  0.4881040000000 1.0
C      1  0.5692070000000  0.5210010000000  0.4675290000000 1.0
C      1  0.5835570000000  0.5169910000000  0.4921230000000 1.0
C      1  0.4205860000000  0.4275680000000  0.4798200000000 1.0
C      1  0.5189940000000  0.5954360000000  0.4884760000000 1.0
C      1  0.5213540000000  0.5526870000000  0.5156510000000 1.0
C      1  0.5070530000000  0.4938430000000  0.5125260000000 1.0
C      1  0.5534560000000  0.4992010000000  0.4509820000000 1.0
C      1  0.4668360000000  0.5621800000000  0.5827120000000 1.0
C      1  0.3989770000000  0.4968810000000  0.5358430000000 1.0
C      1  0.5409040000000  0.5066830000000  0.5281730000000 1.0
C      1  0.4805050000000  0.5568660000000  0.5555840000000 1.0
C      1  0.5114580000000  0.5671090000000  0.5570730000000 1.0
C      1  0.4544490000000  0.5389990000000  0.4852560000000 1.0
C      1  0.5454720000000  0.4191290000000  0.5258470000000 1.0
C      1  0.5616330000000  0.4722770000000  0.5107350000000 1.0
C      1  0.5266610000000  0.4584800000000  0.5507200000000 1.0
C      1  0.4752900000000  0.5203550000000  0.4198190000000 1.0
C      1  0.4964150000000  0.4691500000000  0.5575100000000 1.0
C      1  0.5006320000000  0.5715690000000  0.5005720000000 1.0
C      1  0.5574020000000  0.5470640000000  0.4630300000000 1.0
C      1  0.5138540000000  0.5238580000000  0.4610610000000 1.0
C      1  0.4050610000000  0.5334410000000  0.4699030000000 1.0
C      1  0.4600310000000  0.5489390000000  0.4304800000000 1.0
C      1  0.5110520000000  0.4108190000000  0.4605320000000 1.0
C      1  0.5673520000000  0.4233070000000  0.5085460000000 1.0
C      1  0.4510710000000  0.5873560000000  0.5242970000000 1.0
C      1  0.4705410000000  0.5116510000000  0.5565370000000 1.0
C      1  0.4731240000000  0.6043450000000  0.5287480000000 1.0
C      1  0.5467060000000  0.4318720000000  0.5516000000000 1.0
C      1  0.5433630000000  0.5790470000000  0.5527070000000 1.0
C      1  0.4981140000000  0.5968520000000  0.5224460000000 1.0
C      1  0.5639880000000  0.5624640000000  0.5742280000000 1.0
C      1  0.5679000000000  0.5364930000000  0.5845030000000 1.0
C      1  0.5351640000000  0.5070890000000  0.4252180000000 1.0
C      1  0.4457290000000  0.4848730000000  0.4224360000000 1.0
C      1  0.4286890000000  0.5434410000000  0.5182920000000 1.0
C      1  0.5161850000000  0.5570870000000  0.4276620000000 1.0
C      1  0.5458950000000  0.5438570000000  0.5010850000000 1.0
END
