TITL C-2778423-5760-518 0.00117413663899783 125000 -850.45018553883 0 0 147 (C1) n - 1
REM
REM in /home/nfs/bkarasulu/CARBON/AIRSS/Generating-Clusters/REBO/Only-C1/SD-CG/HFTN-CG
REM
REM
REM
REM
REM
REM ./C.cell (11c1c37f851c82e70ff6c80c92926a4b)
REM
REM compiler GCC version 9.2.1 20190827 (Red Hat 9.2.1-1)
REM options -cpp -mtune=generic -march=x86-64 -g -O0 -fpre-include=/usr/include/finclude/math-vector-fortran.h
REM seed -714150483 -48181700 -1305814423 -798337401 2020755872 1241816070 342845369 1678624738 -1187895243 1011471025 2031196907 1508611201 320992828 -98993511 2118753178 1661054727 43197039 -1766779099 -1018914556 -1958230209 -1542375747 197856154 -422593717 -1911005873 433957630 -1051627281 -2142774703 375266089 -931441353 -1770767559 -675968185 -2058039126 -95666773
REM
CELL 1.54180   50.00000   50.00000   50.00000   90.00000   90.00000   90.00000
LATT -1
SFAC C  
C      1  0.4404880000000  0.4619130000000  0.4545940000000 1.0
C      1  0.5957620000000  0.4685290000000  0.5323140000000 1.0
C      1  0.4594770000000  0.4718520000000  0.5721000000000 1.0
C      1  0.5180900000000  0.5006260000000  0.3965580000000 1.0
C      1  0.4479140000000  0.5649260000000  0.4863170000000 1.0
C      1  0.4575960000000  0.5005660000000  0.4940170000000 1.0
C      1  0.4855920000000  0.4863270000000  0.5557020000000 1.0
C      1  0.4310010000000  0.5682890000000  0.4592220000000 1.0
C      1  0.5519720000000  0.5641080000000  0.4654250000000 1.0
C      1  0.4561900000000  0.4167990000000  0.4819020000000 1.0
C      1  0.5315020000000  0.4821820000000  0.5254420000000 1.0
C      1  0.5521220000000  0.4613480000000  0.5067900000000 1.0
C      1  0.4598410000000  0.4214020000000  0.5107890000000 1.0
C      1  0.5685320000000  0.5625500000000  0.5588980000000 1.0
C      1  0.5205210000000  0.5288310000000  0.6004320000000 1.0
C      1  0.5322520000000  0.4167260000000  0.4386730000000 1.0
C      1  0.4819370000000  0.4339330000000  0.4744360000000 1.0
C      1  0.4747870000000  0.4235980000000  0.5563020000000 1.0
C      1  0.5037880000000  0.5423450000000  0.4453680000000 1.0
C      1  0.5641500000000  0.5654200000000  0.4974600000000 1.0
C      1  0.4545890000000  0.5346820000000  0.4244280000000 1.0
C      1  0.4780230000000  0.5371210000000  0.4006070000000 1.0
C      1  0.5697230000000  0.4258440000000  0.5021970000000 1.0
C      1  0.4736250000000  0.4612630000000  0.4455840000000 1.0
C      1  0.4967800000000  0.5097430000000  0.5951600000000 1.0
C      1  0.5111430000000  0.4916250000000  0.4414140000000 1.0
C      1  0.4292590000000  0.4854720000000  0.4243330000000 1.0
C      1  0.4791430000000  0.5981400000000  0.5430050000000 1.0
C      1  0.5080990000000  0.4710670000000  0.4072460000000 1.0
C      1  0.5571260000000  0.4766940000000  0.5801900000000 1.0
C      1  0.4413890000000  0.4953310000000  0.5618180000000 1.0
C      1  0.4379460000000  0.5047870000000  0.4434720000000 1.0
C      1  0.4653290000000  0.4585970000000  0.4849740000000 1.0
C      1  0.4938470000000  0.5808920000000  0.4412290000000 1.0
C      1  0.5367470000000  0.5244010000000  0.4120430000000 1.0
C      1  0.5089790000000  0.5928070000000  0.5504470000000 1.0
C      1  0.4461470000000  0.4284000000000  0.5536440000000 1.0
C      1  0.5410910000000  0.5448440000000  0.5566970000000 1.0
C      1  0.5886680000000  0.5285660000000  0.4801460000000 1.0
C      1  0.4043480000000  0.4871130000000  0.4132960000000 1.0
C      1  0.5276350000000  0.5470480000000  0.4258470000000 1.0
C      1  0.4293510000000  0.5376300000000  0.4443560000000 1.0
C      1  0.4883610000000  0.5174330000000  0.5652170000000 1.0
C      1  0.5318920000000  0.5162910000000  0.4509030000000 1.0
C      1  0.5196740000000  0.4689710000000  0.4755900000000 1.0
C      1  0.5935920000000  0.5326600000000  0.5278850000000 1.0
C      1  0.5031100000000  0.4080400000000  0.4529110000000 1.0
C      1  0.5042750000000  0.5569610000000  0.4713770000000 1.0
C      1  0.5354080000000  0.5650300000000  0.5140150000000 1.0
C      1  0.4395280000000  0.4468530000000  0.5733800000000 1.0
C      1  0.4844120000000  0.4394110000000  0.5212000000000 1.0
C      1  0.4345860000000  0.4236920000000  0.4646830000000 1.0
C      1  0.5271950000000  0.5743870000000  0.4440990000000 1.0
C      1  0.4454600000000  0.4351430000000  0.4345800000000 1.0
C      1  0.4618620000000  0.5844530000000  0.4544710000000 1.0
C      1  0.5193270000000  0.4503330000000  0.4214230000000 1.0
C      1  0.5183800000000  0.4843270000000  0.5544750000000 1.0
C      1  0.4770560000000  0.4740580000000  0.4140920000000 1.0
C      1  0.4692680000000  0.5406430000000  0.4805370000000 1.0
C      1  0.5125700000000  0.5420910000000  0.5200920000000 1.0
C      1  0.4061780000000  0.5183810000000  0.4898800000000 1.0
C      1  0.5079820000000  0.5052400000000  0.4726750000000 1.0
C      1  0.4646850000000  0.5926230000000  0.4865380000000 1.0
C      1  0.4948400000000  0.5968140000000  0.5124360000000 1.0
C      1  0.4619410000000  0.6060160000000  0.5147990000000 1.0
C      1  0.3992150000000  0.4884120000000  0.4798890000000 1.0
C      1  0.4865060000000  0.5405970000000  0.5069370000000 1.0
C      1  0.4597100000000  0.5739330000000  0.5555110000000 1.0
C      1  0.4951790000000  0.5844610000000  0.4806930000000 1.0
C      1  0.5109340000000  0.4567610000000  0.5676450000000 1.0
C      1  0.4710950000000  0.5445370000000  0.5310200000000 1.0
C      1  0.5331930000000  0.5196790000000  0.4903910000000 1.0
C      1  0.5629050000000  0.5061480000000  0.4826760000000 1.0
C      1  0.5081160000000  0.5665980000000  0.5712230000000 1.0
C      1  0.4370500000000  0.5435230000000  0.5631240000000 1.0
C      1  0.4355610000000  0.4370630000000  0.5255290000000 1.0
C      1  0.4128810000000  0.5423360000000  0.4725040000000 1.0
C      1  0.5084520000000  0.3987000000000  0.4833050000000 1.0
C      1  0.5074600000000  0.4816710000000  0.5046770000000 1.0
C      1  0.4817320000000  0.5624560000000  0.4191720000000 1.0
C      1  0.4118490000000  0.5193260000000  0.5231770000000 1.0
C      1  0.4384890000000  0.4504530000000  0.4941440000000 1.0
C      1  0.4345690000000  0.5635230000000  0.5137860000000 1.0
C      1  0.4146140000000  0.4638250000000  0.5232110000000 1.0
C      1  0.5153360000000  0.6094070000000  0.4794530000000 1.0
C      1  0.4007030000000  0.4629500000000  0.4957090000000 1.0
C      1  0.4382910000000  0.5224300000000  0.5778050000000 1.0
C      1  0.5718950000000  0.5406350000000  0.4560630000000 1.0
C      1  0.5475420000000  0.5095500000000  0.5194300000000 1.0
C      1  0.5375710000000  0.4723580000000  0.4490200000000 1.0
C      1  0.5263390000000  0.5918270000000  0.5230260000000 1.0
C      1  0.5578370000000  0.4511020000000  0.5688300000000 1.0
C      1  0.5289180000000  0.6139140000000  0.5003550000000 1.0
C      1  0.4458970000000  0.4756360000000  0.5237840000000 1.0
C      1  0.5096980000000  0.4384630000000  0.4799640000000 1.0
C      1  0.5350940000000  0.4288190000000  0.4673560000000 1.0
C      1  0.5820880000000  0.4435250000000  0.5510140000000 1.0
C      1  0.5850390000000  0.5463610000000  0.5039900000000 1.0
C      1  0.4737790000000  0.4651930000000  0.5331950000000 1.0
C      1  0.4662500000000  0.5536030000000  0.4498880000000 1.0
C      1  0.5588010000000  0.5178210000000  0.4447450000000 1.0
C      1  0.5586460000000  0.4433670000000  0.4786420000000 1.0
C      1  0.4390660000000  0.5368420000000  0.5304700000000 1.0
C      1  0.5742210000000  0.4580030000000  0.4549360000000 1.0
C      1  0.4840310000000  0.5208620000000  0.4364490000000 1.0
C      1  0.4472860000000  0.4635800000000  0.4158520000000 1.0
C      1  0.4976690000000  0.4113510000000  0.5342910000000 1.0
C      1  0.5687720000000  0.4876630000000  0.5086330000000 1.0
C      1  0.4876650000000  0.5052440000000  0.4074790000000 1.0
C      1  0.5059210000000  0.4838820000000  0.6012350000000 1.0
C      1  0.4826870000000  0.4827890000000  0.4685230000000 1.0
C      1  0.4290680000000  0.4976720000000  0.5044870000000 1.0
C      1  0.4822810000000  0.5506680000000  0.5610670000000 1.0
C      1  0.4551130000000  0.5067570000000  0.5333390000000 1.0
C      1  0.5592380000000  0.4227790000000  0.5406440000000 1.0
C      1  0.5272470000000  0.5096750000000  0.5696340000000 1.0
C      1  0.5149490000000  0.5569000000000  0.5976300000000 1.0
C      1  0.5721310000000  0.4912140000000  0.4529350000000 1.0
C      1  0.4805050000000  0.4931650000000  0.5146230000000 1.0
C      1  0.4123690000000  0.4394310000000  0.4785870000000 1.0
C      1  0.5909680000000  0.4784060000000  0.4766710000000 1.0
C      1  0.5877300000000  0.4396380000000  0.5183740000000 1.0
C      1  0.5107530000000  0.4494920000000  0.5090960000000 1.0
C      1  0.5380140000000  0.5776700000000  0.5585580000000 1.0
C      1  0.5394840000000  0.4915060000000  0.4209250000000 1.0
C      1  0.5344050000000  0.4814610000000  0.6004610000000 1.0
C      1  0.5187610000000  0.4024440000000  0.5088710000000 1.0
C      1  0.4841920000000  0.4485910000000  0.5686290000000 1.0
C      1  0.5665450000000  0.5038620000000  0.5683150000000 1.0
C      1  0.6017060000000  0.5009450000000  0.4904340000000 1.0
C      1  0.4982100000000  0.4386010000000  0.4383160000000 1.0
C      1  0.5577010000000  0.5203330000000  0.5461490000000 1.0
C      1  0.4651090000000  0.5115090000000  0.4628710000000 1.0
C      1  0.5504450000000  0.4450290000000  0.4342680000000 1.0
C      1  0.5976410000000  0.4992440000000  0.5226340000000 1.0
C      1  0.5905340000000  0.5488670000000  0.5510330000000 1.0
C      1  0.5472400000000  0.4069630000000  0.5126960000000 1.0
C      1  0.4716820000000  0.4199590000000  0.4451690000000 1.0
C      1  0.5266910000000  0.4153820000000  0.5458430000000 1.0
C      1  0.4190910000000  0.4752750000000  0.4623960000000 1.0
C      1  0.5352610000000  0.4423730000000  0.5263800000000 1.0
C      1  0.5301350000000  0.5494890000000  0.4853060000000 1.0
C      1  0.5327580000000  0.4391540000000  0.5661480000000 1.0
C      1  0.4436510000000  0.5848540000000  0.5309930000000 1.0
C      1  0.5486470000000  0.5121250000000  0.5961220000000 1.0
C      1  0.4146910000000  0.4920150000000  0.5414350000000 1.0
C      1  0.5144200000000  0.5311850000000  0.5480770000000 1.0
END
