TITL C-2778432-5617-830 -0.00294874636455894 125000 -458.323379610933 0 0 79 (C1) n - 1
REM
REM in /home/nfs/bkarasulu/CARBON/AIRSS/Generating-Clusters/REBO/Only-C1/SD-CG/HFTN-CG
REM
REM
REM
REM
REM
REM ./C.cell (11c1c37f851c82e70ff6c80c92926a4b)
REM
REM compiler GCC version 9.2.1 20190827 (Red Hat 9.2.1-1)
REM options -cpp -mtune=generic -march=x86-64 -g -O0 -fpre-include=/usr/include/finclude/math-vector-fortran.h
REM seed -1982826546 1375079279 311574678 -463334270 -1644375523 931153386 1232005087 969493394 314513065 514587431 -1001102989 1519116444 2057392701 -1799749196 225145686 -1562133791 1082594546 1640318027 483871200 -145146929 1236922643 -1113238878 -1901563093 -1509224084 -351202433 -199191635 -339343240 -1570161383 212196141 -860877683 -206442161 1320352001 -650677684
REM
CELL 1.54180   50.00000   50.00000   50.00000   90.00000   90.00000   90.00000
LATT -1
SFAC C  
C      1  0.4329700000000  0.5304280000000  0.5143570000000 1.0
C      1  0.4694660000000  0.5680030000000  0.4551060000000 1.0
C      1  0.4414650000000  0.5198930000000  0.4855930000000 1.0
C      1  0.4440320000000  0.5657340000000  0.4707830000000 1.0
C      1  0.4235110000000  0.4726230000000  0.4983970000000 1.0
C      1  0.5278120000000  0.4403510000000  0.4999030000000 1.0
C      1  0.5611290000000  0.5128600000000  0.5612180000000 1.0
C      1  0.4530540000000  0.5326830000000  0.4498270000000 1.0
C      1  0.5187960000000  0.5708030000000  0.5102900000000 1.0
C      1  0.4164490000000  0.4740790000000  0.4707860000000 1.0
C      1  0.5762780000000  0.5315040000000  0.5009840000000 1.0
C      1  0.4956990000000  0.4761920000000  0.4700850000000 1.0
C      1  0.4886570000000  0.4173330000000  0.5084470000000 1.0
C      1  0.4751170000000  0.5406670000000  0.4747290000000 1.0
C      1  0.4516520000000  0.4988550000000  0.5301310000000 1.0
C      1  0.5506830000000  0.4495600000000  0.5131740000000 1.0
C      1  0.5240740000000  0.4463960000000  0.5578140000000 1.0
C      1  0.5806480000000  0.4770150000000  0.4908930000000 1.0
C      1  0.5396990000000  0.4613450000000  0.4675450000000 1.0
C      1  0.4978900000000  0.5537810000000  0.4446030000000 1.0
C      1  0.5225710000000  0.5571270000000  0.5414580000000 1.0
C      1  0.4562440000000  0.4727890000000  0.4754890000000 1.0
C      1  0.4716710000000  0.4517610000000  0.5549250000000 1.0
C      1  0.5673200000000  0.4577640000000  0.4740760000000 1.0
C      1  0.5378560000000  0.5659890000000  0.4824880000000 1.0
C      1  0.4504190000000  0.4780930000000  0.5532320000000 1.0
C      1  0.5257600000000  0.4786820000000  0.5510810000000 1.0
C      1  0.4807120000000  0.4828490000000  0.5659700000000 1.0
C      1  0.4859120000000  0.4398330000000  0.4569350000000 1.0
C      1  0.5126150000000  0.5205140000000  0.5817900000000 1.0
C      1  0.5411230000000  0.5201350000000  0.4860500000000 1.0
C      1  0.5648260000000  0.5077810000000  0.5192720000000 1.0
C      1  0.5125740000000  0.4920460000000  0.5026070000000 1.0
C      1  0.5000860000000  0.5318610000000  0.5374550000000 1.0
C      1  0.4819370000000  0.4269340000000  0.5347420000000 1.0
C      1  0.4515330000000  0.5279980000000  0.5419890000000 1.0
C      1  0.5341790000000  0.4923730000000  0.5228070000000 1.0
C      1  0.4999940000000  0.4981830000000  0.5424390000000 1.0
C      1  0.5018310000000  0.4745510000000  0.4402140000000 1.0
C      1  0.5332600000000  0.5312280000000  0.5609900000000 1.0
C      1  0.5693240000000  0.5289530000000  0.4686180000000 1.0
C      1  0.5052230000000  0.4551440000000  0.4895110000000 1.0
C      1  0.5860930000000  0.5037920000000  0.4834100000000 1.0
C      1  0.5384550000000  0.5228050000000  0.5298680000000 1.0
C      1  0.4617450000000  0.5007170000000  0.4837970000000 1.0
C      1  0.5125790000000  0.4996500000000  0.4310230000000 1.0
C      1  0.4863610000000  0.5136510000000  0.5765060000000 1.0
C      1  0.4516140000000  0.4864860000000  0.4370420000000 1.0
C      1  0.5042800000000  0.4287380000000  0.5547140000000 1.0
C      1  0.5340360000000  0.5072660000000  0.4471340000000 1.0
C      1  0.4796140000000  0.4250750000000  0.4817080000000 1.0
C      1  0.5023590000000  0.5259930000000  0.4626420000000 1.0
C      1  0.4643780000000  0.5127650000000  0.4315510000000 1.0
C      1  0.5589630000000  0.5577770000000  0.5039190000000 1.0
C      1  0.4928640000000  0.5232790000000  0.4296970000000 1.0
C      1  0.4916850000000  0.5049430000000  0.4814810000000 1.0
C      1  0.5525410000000  0.4523370000000  0.5450380000000 1.0
C      1  0.4813090000000  0.4888320000000  0.5165840000000 1.0
C      1  0.5711150000000  0.4753780000000  0.5211570000000 1.0
C      1  0.4426970000000  0.4498960000000  0.5371920000000 1.0
C      1  0.5598240000000  0.4851000000000  0.5523150000000 1.0
C      1  0.5325080000000  0.4905330000000  0.4749670000000 1.0
C      1  0.5239630000000  0.5372580000000  0.5061910000000 1.0
C      1  0.4654380000000  0.4607090000000  0.4492540000000 1.0
C      1  0.5292160000000  0.5551410000000  0.4575030000000 1.0
C      1  0.5457950000000  0.5332120000000  0.4488630000000 1.0
C      1  0.4454490000000  0.5574580000000  0.4982740000000 1.0
C      1  0.4740170000000  0.4619120000000  0.5003650000000 1.0
C      1  0.4899430000000  0.5369690000000  0.5053550000000 1.0
C      1  0.4263350000000  0.5210050000000  0.4597280000000 1.0
C      1  0.4248450000000  0.4969630000000  0.5131970000000 1.0
C      1  0.5528780000000  0.5648770000000  0.5299650000000 1.0
C      1  0.4906090000000  0.5829850000000  0.5080600000000 1.0
C      1  0.4252880000000  0.4922630000000  0.4504990000000 1.0
C      1  0.4748630000000  0.5322340000000  0.5568460000000 1.0
C      1  0.5176300000000  0.4143260000000  0.5069800000000 1.0
C      1  0.4714860000000  0.5628800000000  0.5077090000000 1.0
C      1  0.4435960000000  0.4538160000000  0.5085610000000 1.0
C      1  0.5175770000000  0.4482870000000  0.4521010000000 1.0
END
