TITL C-2778423-5760-508 0.00122474466723506 125000 -992.218124080156 0 0 172 (C1) n - 1
REM
REM in /home/nfs/bkarasulu/CARBON/AIRSS/Generating-Clusters/REBO/Only-C1/SD-CG/HFTN-CG
REM
REM
REM
REM
REM
REM ./C.cell (11c1c37f851c82e70ff6c80c92926a4b)
REM
REM compiler GCC version 9.2.1 20190827 (Red Hat 9.2.1-1)
REM options -cpp -mtune=generic -march=x86-64 -g -O0 -fpre-include=/usr/include/finclude/math-vector-fortran.h
REM seed 632732700 -813235477 1776426532 247490608 1560794344 -666618860 -802048813 -1607648913 -217610283 -2109031294 1005398779 624502001 -329834611 112481989 816293053 1068764590 1031576781 -477572736 -160491293 481141419 -1836504707 -1771366687 844784310 192738737 -336741767 -982075428 1537818767 -863569457 -1900984569 -115555134 1710921742 852050091 1540875028
REM
CELL 1.54180   50.00000   50.00000   50.00000   90.00000   90.00000   90.00000
LATT -1
SFAC C  
C      1  0.5007290000000  0.5823390000000  0.5853830000000 1.0
C      1  0.4420600000000  0.5676800000000  0.4663490000000 1.0
C      1  0.5543480000000  0.4585600000000  0.4279710000000 1.0
C      1  0.5748130000000  0.4999420000000  0.5633620000000 1.0
C      1  0.5505650000000  0.4221150000000  0.4774820000000 1.0
C      1  0.4646750000000  0.5701960000000  0.4917140000000 1.0
C      1  0.4739440000000  0.5075090000000  0.6125600000000 1.0
C      1  0.5497450000000  0.4692200000000  0.4801600000000 1.0
C      1  0.4146860000000  0.5276460000000  0.5510180000000 1.0
C      1  0.4996570000000  0.5959770000000  0.5543400000000 1.0
C      1  0.4021360000000  0.4909520000000  0.4674820000000 1.0
C      1  0.3863400000000  0.5202890000000  0.4458160000000 1.0
C      1  0.4527840000000  0.4172960000000  0.4515010000000 1.0
C      1  0.4301450000000  0.5125870000000  0.4241150000000 1.0
C      1  0.5508130000000  0.4895820000000  0.5822710000000 1.0
C      1  0.4533560000000  0.4370420000000  0.4282900000000 1.0
C      1  0.5220300000000  0.4256670000000  0.5770420000000 1.0
C      1  0.5606480000000  0.5132030000000  0.5158370000000 1.0
C      1  0.5367290000000  0.5163200000000  0.5662010000000 1.0
C      1  0.3844820000000  0.4975660000000  0.4910820000000 1.0
C      1  0.3881170000000  0.4861930000000  0.5364520000000 1.0
C      1  0.5869560000000  0.5536510000000  0.4974050000000 1.0
C      1  0.4544780000000  0.4872210000000  0.4985440000000 1.0
C      1  0.4717690000000  0.4587600000000  0.5864830000000 1.0
C      1  0.5295850000000  0.4595070000000  0.4059950000000 1.0
C      1  0.5268450000000  0.5307080000000  0.5152310000000 1.0
C      1  0.4223450000000  0.4244540000000  0.4990520000000 1.0
C      1  0.5199890000000  0.5738000000000  0.4365290000000 1.0
C      1  0.4638430000000  0.4787450000000  0.5420570000000 1.0
C      1  0.4694610000000  0.5590940000000  0.4537780000000 1.0
C      1  0.5096590000000  0.4632900000000  0.5462740000000 1.0
C      1  0.5248460000000  0.4174700000000  0.4982610000000 1.0
C      1  0.5336810000000  0.5392430000000  0.4223180000000 1.0
C      1  0.5157910000000  0.4340100000000  0.5444510000000 1.0
C      1  0.5041130000000  0.4757290000000  0.5030440000000 1.0
C      1  0.3858770000000  0.4875220000000  0.4398740000000 1.0
C      1  0.5719430000000  0.4262700000000  0.5215020000000 1.0
C      1  0.4764240000000  0.5850620000000  0.5317660000000 1.0
C      1  0.4042870000000  0.4590150000000  0.4439650000000 1.0
C      1  0.5025910000000  0.5154300000000  0.5004570000000 1.0
C      1  0.5864680000000  0.4739530000000  0.5180880000000 1.0
C      1  0.5006440000000  0.5568560000000  0.5620850000000 1.0
C      1  0.5801120000000  0.4904780000000  0.4657810000000 1.0
C      1  0.4181960000000  0.5585410000000  0.4441450000000 1.0
C      1  0.4917280000000  0.4736680000000  0.4373920000000 1.0
C      1  0.5180940000000  0.4711160000000  0.4741480000000 1.0
C      1  0.5462410000000  0.5558130000000  0.5399800000000 1.0
C      1  0.5577680000000  0.4856300000000  0.5301490000000 1.0
C      1  0.5885830000000  0.4655750000000  0.4878410000000 1.0
C      1  0.5109040000000  0.5800130000000  0.4687000000000 1.0
C      1  0.4826020000000  0.5363950000000  0.4691070000000 1.0
C      1  0.5742420000000  0.4906680000000  0.4103380000000 1.0
C      1  0.4487470000000  0.4588430000000  0.4711030000000 1.0
C      1  0.5424060000000  0.5018000000000  0.4709450000000 1.0
C      1  0.5390930000000  0.4615760000000  0.5732440000000 1.0
C      1  0.5160840000000  0.4005900000000  0.5233680000000 1.0
C      1  0.5172410000000  0.4987580000000  0.5244960000000 1.0
C      1  0.5961500000000  0.4831580000000  0.5557180000000 1.0
C      1  0.4708250000000  0.5817830000000  0.5707830000000 1.0
C      1  0.5700130000000  0.5617440000000  0.4527910000000 1.0
C      1  0.4961730000000  0.4825690000000  0.5906080000000 1.0
C      1  0.5806510000000  0.5120690000000  0.4922290000000 1.0
C      1  0.3835310000000  0.4757270000000  0.5091720000000 1.0
C      1  0.5474220000000  0.5392420000000  0.5884740000000 1.0
C      1  0.5759380000000  0.4335890000000  0.4915540000000 1.0
C      1  0.4482740000000  0.4524730000000  0.5677050000000 1.0
C      1  0.5249340000000  0.4016590000000  0.4679880000000 1.0
C      1  0.3929100000000  0.5141570000000  0.5350870000000 1.0
C      1  0.4038300000000  0.5303090000000  0.4732710000000 1.0
C      1  0.4093730000000  0.5347870000000  0.4320220000000 1.0
C      1  0.4713130000000  0.6065920000000  0.4777960000000 1.0
C      1  0.4321360000000  0.5066910000000  0.5679340000000 1.0
C      1  0.5259450000000  0.5636230000000  0.5919230000000 1.0
C      1  0.4901440000000  0.5631560000000  0.5117420000000 1.0
C      1  0.5077840000000  0.5353990000000  0.5854380000000 1.0
C      1  0.4741320000000  0.4684790000000  0.5002440000000 1.0
C      1  0.4467140000000  0.5067620000000  0.5939330000000 1.0
C      1  0.4318870000000  0.4756790000000  0.5546350000000 1.0
C      1  0.5815700000000  0.5102750000000  0.4310790000000 1.0
C      1  0.5911130000000  0.4471150000000  0.4382550000000 1.0
C      1  0.5050540000000  0.5104530000000  0.6080070000000 1.0
C      1  0.5332970000000  0.4822130000000  0.5471080000000 1.0
C      1  0.5608910000000  0.5912400000000  0.5290680000000 1.0
C      1  0.4110300000000  0.5612540000000  0.4760920000000 1.0
C      1  0.4857360000000  0.5032500000000  0.5454640000000 1.0
C      1  0.4727670000000  0.4506340000000  0.5356100000000 1.0
C      1  0.4267680000000  0.5706240000000  0.5031930000000 1.0
C      1  0.4716620000000  0.5554660000000  0.5489660000000 1.0
C      1  0.4425790000000  0.5404320000000  0.5009540000000 1.0
C      1  0.5070350000000  0.4128960000000  0.4440320000000 1.0
C      1  0.5282620000000  0.4374370000000  0.4329410000000 1.0
C      1  0.4567550000000  0.5138790000000  0.4106590000000 1.0
C      1  0.4979070000000  0.5975900000000  0.4877850000000 1.0
C      1  0.5438250000000  0.4180420000000  0.5333230000000 1.0
C      1  0.5116330000000  0.5494810000000  0.4676990000000 1.0
C      1  0.4529850000000  0.4703220000000  0.4284130000000 1.0
C      1  0.4759790000000  0.5336550000000  0.5023010000000 1.0
C      1  0.5846220000000  0.4618220000000  0.4140520000000 1.0
C      1  0.5572390000000  0.6023670000000  0.5016280000000 1.0
C      1  0.5612790000000  0.5228470000000  0.4520100000000 1.0
C      1  0.5085310000000  0.5027640000000  0.4739040000000 1.0
C      1  0.4336940000000  0.4219010000000  0.4711780000000 1.0
C      1  0.4252870000000  0.4324170000000  0.5284710000000 1.0
C      1  0.4770440000000  0.4045570000000  0.4567070000000 1.0
C      1  0.5039920000000  0.5510420000000  0.4156880000000 1.0
C      1  0.5766760000000  0.5631970000000  0.5265830000000 1.0
C      1  0.4039210000000  0.4528390000000  0.5020410000000 1.0
C      1  0.5337840000000  0.5374500000000  0.4553600000000 1.0
C      1  0.5917770000000  0.5425320000000  0.5482160000000 1.0
C      1  0.5259720000000  0.4410920000000  0.4649250000000 1.0
C      1  0.5944590000000  0.4548900000000  0.5591010000000 1.0
C      1  0.4715030000000  0.4108710000000  0.5049740000000 1.0
C      1  0.4597230000000  0.4799900000000  0.6064120000000 1.0
C      1  0.4855210000000  0.4348160000000  0.4320300000000 1.0
C      1  0.4768560000000  0.4152150000000  0.5533210000000 1.0
C      1  0.4270430000000  0.5100150000000  0.4579740000000 1.0
C      1  0.5113470000000  0.4557930000000  0.5876790000000 1.0
C      1  0.4961310000000  0.4397010000000  0.5171240000000 1.0
C      1  0.5147430000000  0.5555540000000  0.5332570000000 1.0
C      1  0.5618830000000  0.5260920000000  0.5454130000000 1.0
C      1  0.4775630000000  0.3939030000000  0.4827150000000 1.0
C      1  0.3929710000000  0.5254130000000  0.5041350000000 1.0
C      1  0.5323570000000  0.5071340000000  0.4293360000000 1.0
C      1  0.4872730000000  0.5746260000000  0.4311790000000 1.0
C      1  0.5462060000000  0.5733330000000  0.5677960000000 1.0
C      1  0.5730310000000  0.5529250000000  0.5728760000000 1.0
C      1  0.4114460000000  0.4625750000000  0.5343900000000 1.0
C      1  0.5376460000000  0.5113060000000  0.6049580000000 1.0
C      1  0.4615240000000  0.4394950000000  0.4971110000000 1.0
C      1  0.4875860000000  0.4029670000000  0.5297380000000 1.0
C      1  0.5047310000000  0.5058780000000  0.5685910000000 1.0
C      1  0.5599710000000  0.5535660000000  0.4809260000000 1.0
C      1  0.4496720000000  0.4294320000000  0.5461370000000 1.0
C      1  0.4469010000000  0.5973950000000  0.4972540000000 1.0
C      1  0.6269480000000  0.5040140000000  0.5138650000000 1.0
C      1  0.4802260000000  0.5061030000000  0.4576970000000 1.0
C      1  0.4538060000000  0.4890970000000  0.4558860000000 1.0
C      1  0.5729350000000  0.4514210000000  0.4624740000000 1.0
C      1  0.4146600000000  0.4847560000000  0.4226930000000 1.0
C      1  0.4610640000000  0.6060830000000  0.5517020000000 1.0
C      1  0.4705710000000  0.5296960000000  0.5350000000000 1.0
C      1  0.4896030000000  0.4316070000000  0.5762510000000 1.0
C      1  0.5375500000000  0.5566700000000  0.4972820000000 1.0
C      1  0.4786070000000  0.4523790000000  0.4604670000000 1.0
C      1  0.4167570000000  0.4516220000000  0.4705730000000 1.0
C      1  0.4973960000000  0.4392070000000  0.4829700000000 1.0
C      1  0.5511140000000  0.5657180000000  0.4331460000000 1.0
C      1  0.5449290000000  0.4898990000000  0.4055880000000 1.0
C      1  0.5957450000000  0.5478730000000  0.4657580000000 1.0
C      1  0.5888510000000  0.4356400000000  0.5406270000000 1.0
C      1  0.4995430000000  0.4563860000000  0.4130830000000 1.0
C      1  0.4651030000000  0.4843270000000  0.4048810000000 1.0
C      1  0.4884310000000  0.5260560000000  0.4130230000000 1.0
C      1  0.4357340000000  0.5113920000000  0.5106370000000 1.0
C      1  0.5269070000000  0.4503450000000  0.5070910000000 1.0
C      1  0.4154590000000  0.5440540000000  0.5214880000000 1.0
C      1  0.5310420000000  0.5924920000000  0.5439630000000 1.0
C      1  0.6003280000000  0.5169680000000  0.4580730000000 1.0
C      1  0.5509840000000  0.4323590000000  0.5628940000000 1.0
C      1  0.5096150000000  0.5974280000000  0.5175190000000 1.0
C      1  0.5552100000000  0.4623150000000  0.5095330000000 1.0
C      1  0.4258090000000  0.4529600000000  0.4202630000000 1.0
C      1  0.4689490000000  0.5934300000000  0.4519060000000 1.0
C      1  0.5020220000000  0.5032280000000  0.4334780000000 1.0
C      1  0.4233220000000  0.4880100000000  0.4909490000000 1.0
C      1  0.6112770000000  0.4894460000000  0.5302460000000 1.0
C      1  0.6135920000000  0.5200140000000  0.4892800000000 1.0
C      1  0.5540050000000  0.4847470000000  0.4441500000000 1.0
C      1  0.4473830000000  0.5084390000000  0.5386830000000 1.0
C      1  0.5967890000000  0.5299610000000  0.5175260000000 1.0
C      1  0.5326760000000  0.5838780000000  0.5019080000000 1.0
C      1  0.4897900000000  0.4972350000000  0.3959400000000 1.0
END
