TITL C-2778436-5916-420 0.00365493148796938 125000 -573.553916718379 0 0 99 (C1) n - 1
REM
REM in /home/nfs/bkarasulu/CARBON/AIRSS/Generating-Clusters/REBO/Only-C1/SD-CG/HFTN-CG
REM
REM
REM
REM
REM
REM ./C.cell (11c1c37f851c82e70ff6c80c92926a4b)
REM
REM compiler GCC version 9.2.1 20190827 (Red Hat 9.2.1-1)
REM options -cpp -mtune=generic -march=x86-64 -g -O0 -fpre-include=/usr/include/finclude/math-vector-fortran.h
REM seed 702877030 -399347690 1393722708 1534155946 690070853 -1506673252 -959571984 1461977007 -1634950429 -2120182647 39286001 368311737 1231010943 -1536256505 -1945069498 -213144478 -1025814024 656658572 724290996 1958127373 838729647 1900073481 235836120 2123008920 514477279 -365554926 -1400269355 -1541350709 1263388500 -2001947832 -1213593895 298528255 821200407
REM
CELL 1.54180   50.00000   50.00000   50.00000   90.00000   90.00000   90.00000
LATT -1
SFAC C  
C      1  0.5198320000000  0.4841080000000  0.4222820000000 1.0
C      1  0.5152680000000  0.5317440000000  0.4815050000000 1.0
C      1  0.4920220000000  0.5597370000000  0.4618410000000 1.0
C      1  0.4815640000000  0.4345230000000  0.5446990000000 1.0
C      1  0.5514070000000  0.4885030000000  0.4954290000000 1.0
C      1  0.5836760000000  0.5162570000000  0.5319340000000 1.0
C      1  0.5500200000000  0.5511340000000  0.4845950000000 1.0
C      1  0.4775990000000  0.5434480000000  0.4375970000000 1.0
C      1  0.4476750000000  0.5393180000000  0.5157460000000 1.0
C      1  0.4818670000000  0.4515910000000  0.4916600000000 1.0
C      1  0.4714750000000  0.4114410000000  0.5137020000000 1.0
C      1  0.5280530000000  0.5054130000000  0.4644930000000 1.0
C      1  0.4317840000000  0.5363100000000  0.4597400000000 1.0
C      1  0.4470900000000  0.4655600000000  0.5050680000000 1.0
C      1  0.5232810000000  0.5559540000000  0.5267980000000 1.0
C      1  0.4977530000000  0.5293840000000  0.4203190000000 1.0
C      1  0.5000450000000  0.4686140000000  0.5525980000000 1.0
C      1  0.5609920000000  0.4592390000000  0.5105430000000 1.0
C      1  0.5628850000000  0.4354660000000  0.4731310000000 1.0
C      1  0.4385050000000  0.5248320000000  0.5452170000000 1.0
C      1  0.4714770000000  0.5052910000000  0.5242790000000 1.0
C      1  0.4934100000000  0.5504230000000  0.5401840000000 1.0
C      1  0.5480320000000  0.4873850000000  0.5543510000000 1.0
C      1  0.5494590000000  0.4391100000000  0.5256610000000 1.0
C      1  0.5243560000000  0.4777460000000  0.5310280000000 1.0
C      1  0.5760090000000  0.5421760000000  0.5149390000000 1.0
C      1  0.5172910000000  0.4181880000000  0.4659750000000 1.0
C      1  0.5287410000000  0.4476900000000  0.4560180000000 1.0
C      1  0.5493670000000  0.5484650000000  0.4448800000000 1.0
C      1  0.4631970000000  0.4675700000000  0.4419190000000 1.0
C      1  0.4114080000000  0.5118880000000  0.4599640000000 1.0
C      1  0.5005600000000  0.4145700000000  0.5158370000000 1.0
C      1  0.4984860000000  0.5123370000000  0.4513620000000 1.0
C      1  0.5108180000000  0.4905120000000  0.4865270000000 1.0
C      1  0.5087380000000  0.5864040000000  0.5322220000000 1.0
C      1  0.5229780000000  0.4190610000000  0.5335150000000 1.0
C      1  0.5363610000000  0.5475840000000  0.5635610000000 1.0
C      1  0.4782670000000  0.5234950000000  0.5490330000000 1.0
C      1  0.4378070000000  0.5662940000000  0.5004390000000 1.0
C      1  0.5754120000000  0.5518830000000  0.4617470000000 1.0
C      1  0.5815630000000  0.5002160000000  0.4723080000000 1.0
C      1  0.4821610000000  0.4948810000000  0.4330610000000 1.0
C      1  0.4517920000000  0.4456580000000  0.5567660000000 1.0
C      1  0.4969860000000  0.4506430000000  0.4546760000000 1.0
C      1  0.4251850000000  0.5199670000000  0.4891370000000 1.0
C      1  0.5581980000000  0.4994950000000  0.4524880000000 1.0
C      1  0.4531840000000  0.5300930000000  0.4420930000000 1.0
C      1  0.4813240000000  0.5847030000000  0.4769010000000 1.0
C      1  0.5837720000000  0.4759550000000  0.4929650000000 1.0
C      1  0.5071170000000  0.5415380000000  0.5804260000000 1.0
C      1  0.4197400000000  0.4946780000000  0.5063730000000 1.0
C      1  0.5519650000000  0.5182540000000  0.4938240000000 1.0
C      1  0.5319820000000  0.5168060000000  0.5613810000000 1.0
C      1  0.4508830000000  0.5822280000000  0.4865100000000 1.0
C      1  0.4106330000000  0.4730320000000  0.4910350000000 1.0
C      1  0.5551010000000  0.5547570000000  0.5387770000000 1.0
C      1  0.4369390000000  0.4740470000000  0.5539990000000 1.0
C      1  0.4668750000000  0.4955440000000  0.5752210000000 1.0
C      1  0.5490320000000  0.4151550000000  0.4673590000000 1.0
C      1  0.5081860000000  0.4329890000000  0.4923420000000 1.0
C      1  0.5513780000000  0.4655260000000  0.4723290000000 1.0
C      1  0.4929760000000  0.5138150000000  0.5765500000000 1.0
C      1  0.4820930000000  0.5872380000000  0.5110140000000 1.0
C      1  0.4592030000000  0.5196350000000  0.4911570000000 1.0
C      1  0.4819470000000  0.5300100000000  0.4749530000000 1.0
C      1  0.4865340000000  0.4769150000000  0.4729330000000 1.0
C      1  0.5268060000000  0.5308670000000  0.5101440000000 1.0
C      1  0.5561680000000  0.5698470000000  0.5089820000000 1.0
C      1  0.4461010000000  0.4244550000000  0.5315520000000 1.0
C      1  0.5459230000000  0.5228430000000  0.4333430000000 1.0
C      1  0.5226590000000  0.5125500000000  0.4195070000000 1.0
C      1  0.5108280000000  0.5872470000000  0.4925850000000 1.0
C      1  0.4500860000000  0.4984300000000  0.4348140000000 1.0
C      1  0.5347000000000  0.5906770000000  0.5106460000000 1.0
C      1  0.4935180000000  0.4651520000000  0.4260400000000 1.0
C      1  0.4562050000000  0.4512530000000  0.4688990000000 1.0
C      1  0.5415520000000  0.4735990000000  0.4407920000000 1.0
C      1  0.4837450000000  0.4223640000000  0.4625520000000 1.0
C      1  0.4437600000000  0.4886880000000  0.5267420000000 1.0
C      1  0.4689290000000  0.5643040000000  0.5253860000000 1.0
C      1  0.4439730000000  0.4385330000000  0.5047840000000 1.0
C      1  0.5243000000000  0.5576260000000  0.4633170000000 1.0
C      1  0.4741790000000  0.4689760000000  0.5674230000000 1.0
C      1  0.5105940000000  0.5698390000000  0.5618900000000 1.0
C      1  0.5176470000000  0.4926680000000  0.5790750000000 1.0
C      1  0.4938570000000  0.4531920000000  0.5235280000000 1.0
C      1  0.4561480000000  0.5495970000000  0.5530770000000 1.0
C      1  0.4407110000000  0.5033440000000  0.5637170000000 1.0
C      1  0.5752510000000  0.4963440000000  0.5438190000000 1.0
C      1  0.4240500000000  0.4883330000000  0.4488370000000 1.0
C      1  0.4597850000000  0.4198830000000  0.4826820000000 1.0
C      1  0.4265830000000  0.4668950000000  0.4676100000000 1.0
C      1  0.5246390000000  0.5092940000000  0.5311760000000 1.0
C      1  0.5377650000000  0.4368560000000  0.5560040000000 1.0
C      1  0.5289960000000  0.4630180000000  0.5677340000000 1.0
C      1  0.4945040000000  0.5073950000000  0.5054360000000 1.0
C      1  0.5833130000000  0.5296410000000  0.4849150000000 1.0
C      1  0.5183330000000  0.4639950000000  0.5024060000000 1.0
C      1  0.4626770000000  0.4878700000000  0.4916710000000 1.0
END
