TITL C-2778431-5191-891 -0.067413151223671 125000 -219.861080334671 0 0 39 (C1) n - 1
REM
REM in /home/nfs/bkarasulu/CARBON/AIRSS/Generating-Clusters/REBO/Only-C1/SD-CG/HFTN-CG
REM
REM
REM
REM
REM
REM ./C.cell (11c1c37f851c82e70ff6c80c92926a4b)
REM
REM compiler GCC version 9.2.1 20190827 (Red Hat 9.2.1-1)
REM options -cpp -mtune=generic -march=x86-64 -g -O0 -fpre-include=/usr/include/finclude/math-vector-fortran.h
REM seed -250793141 -1768611836 -1366259281 1976071652 -1042881151 1271224194 -926254415 819307375 1265567149 -1487031635 1763019718 -234427566 1693383904 1133748205 -493910411 1489875753 394843968 -1945480767 -519821316 -866064207 1039748503 -238027948 -719176078 1985116938 1702007591 -1209849045 631995331 61960115 -332747578 1852304939 190577041 1674873125 -912628182
REM
CELL 1.54180   50.00000   50.00000   50.00000   90.00000   90.00000   90.00000
LATT -1
SFAC C  
C      1  0.5026730000000  0.4460700000000  0.5383380000000 1.0
C      1  0.5378590000000  0.4766870000000  0.5286870000000 1.0
C      1  0.4543710000000  0.4535230000000  0.4978260000000 1.0
C      1  0.4433150000000  0.5147040000000  0.4846300000000 1.0
C      1  0.4924300000000  0.5426070000000  0.5956630000000 1.0
C      1  0.4741180000000  0.5280220000000  0.4758480000000 1.0
C      1  0.4964780000000  0.5246580000000  0.5764110000000 1.0
C      1  0.5345620000000  0.5356800000000  0.4991450000000 1.0
C      1  0.5647860000000  0.4918030000000  0.4530620000000 1.0
C      1  0.5063130000000  0.4288300000000  0.4801260000000 1.0
C      1  0.4798900000000  0.4697420000000  0.4845910000000 1.0
C      1  0.5286180000000  0.5025270000000  0.4854200000000 1.0
C      1  0.5266970000000  0.4512940000000  0.5238750000000 1.0
C      1  0.4336740000000  0.4708440000000  0.5049660000000 1.0
C      1  0.4941520000000  0.5434040000000  0.5212800000000 1.0
C      1  0.5412510000000  0.5070220000000  0.5146750000000 1.0
C      1  0.5343100000000  0.4558230000000  0.4713350000000 1.0
C      1  0.5451190000000  0.5453670000000  0.4508720000000 1.0
C      1  0.4450870000000  0.5334370000000  0.4598500000000 1.0
C      1  0.5252190000000  0.5388760000000  0.4692880000000 1.0
C      1  0.4884470000000  0.5602710000000  0.6146090000000 1.0
C      1  0.5007150000000  0.5058660000000  0.5562550000000 1.0
C      1  0.5114860000000  0.4416760000000  0.4507470000000 1.0
C      1  0.5638260000000  0.5514680000000  0.4335610000000 1.0
C      1  0.5174530000000  0.5520000000000  0.5173830000000 1.0
C      1  0.4642030000000  0.5027830000000  0.5239520000000 1.0
C      1  0.4943120000000  0.5404530000000  0.4328640000000 1.0
C      1  0.4977700000000  0.4976190000000  0.4863080000000 1.0
C      1  0.4987130000000  0.5358660000000  0.4600440000000 1.0
C      1  0.5255240000000  0.5017760000000  0.5439440000000 1.0
C      1  0.4818670000000  0.4622240000000  0.5458330000000 1.0
C      1  0.4414750000000  0.4981860000000  0.5072220000000 1.0
C      1  0.4782920000000  0.4904390000000  0.5453170000000 1.0
C      1  0.5296420000000  0.4390730000000  0.4984910000000 1.0
C      1  0.5445200000000  0.4848510000000  0.4683130000000 1.0
C      1  0.4326820000000  0.5457890000000  0.4394510000000 1.0
C      1  0.4801850000000  0.4369850000000  0.4895240000000 1.0
C      1  0.4825800000000  0.5192040000000  0.5061040000000 1.0
C      1  0.5053840000000  0.4725520000000  0.4641900000000 1.0
END
