TITL C-2778424-3986-1129 -0.000922731718313719 125000 -481.618108067929 0 0 84 (C1) n - 1
REM
REM in /home/nfs/bkarasulu/CARBON/AIRSS/Generating-Clusters/REBO/Only-C1/SD-CG/HFTN-CG
REM
REM
REM
REM
REM
REM ./C.cell (11c1c37f851c82e70ff6c80c92926a4b)
REM
REM compiler GCC version 9.2.1 20190827 (Red Hat 9.2.1-1)
REM options -cpp -mtune=generic -march=x86-64 -g -O0 -fpre-include=/usr/include/finclude/math-vector-fortran.h
REM seed -1444479418 913397804 -1181209154 -777043973 -1991507776 1599280394 138506212 -2146403511 -2142224441 682431215 -773793402 -1770477788 -1903176963 -68669587 1423131533 -2100246270 -359918300 -98866351 -1168654363 -570254857 -149133301 906704982 -2108239356 939352891 -127015336 264613479 -2070117581 -1107520319 1141481587 465442345 1437145026 -1541127563 103482743
REM
CELL 1.54180   50.00000   50.00000   50.00000   90.00000   90.00000   90.00000
LATT -1
SFAC C  
C      1  0.5116680000000  0.4743430000000  0.4786260000000 1.0
C      1  0.5041910000000  0.5460150000000  0.5607470000000 1.0
C      1  0.5636150000000  0.5057000000000  0.4688310000000 1.0
C      1  0.4622320000000  0.4702310000000  0.4318420000000 1.0
C      1  0.5171380000000  0.5674240000000  0.4860570000000 1.0
C      1  0.4566780000000  0.5395820000000  0.4810920000000 1.0
C      1  0.4956560000000  0.5569110000000  0.5080210000000 1.0
C      1  0.5803470000000  0.5299830000000  0.5077490000000 1.0
C      1  0.4612160000000  0.5218600000000  0.4455420000000 1.0
C      1  0.4645220000000  0.4528900000000  0.5433100000000 1.0
C      1  0.4691130000000  0.5009570000000  0.4214500000000 1.0
C      1  0.5408850000000  0.4983340000000  0.5201830000000 1.0
C      1  0.5212190000000  0.5326060000000  0.4327450000000 1.0
C      1  0.5516870000000  0.4435690000000  0.5367840000000 1.0
C      1  0.4436180000000  0.4788580000000  0.4753080000000 1.0
C      1  0.5700050000000  0.5071560000000  0.5208320000000 1.0
C      1  0.4423080000000  0.4699300000000  0.5018450000000 1.0
C      1  0.5281930000000  0.5154530000000  0.4532910000000 1.0
C      1  0.4990820000000  0.4941580000000  0.5697420000000 1.0
C      1  0.5676450000000  0.4769850000000  0.4819280000000 1.0
C      1  0.4494550000000  0.5324150000000  0.5270240000000 1.0
C      1  0.4752940000000  0.4696490000000  0.5692320000000 1.0
C      1  0.5308180000000  0.5674970000000  0.5236160000000 1.0
C      1  0.4546060000000  0.4600930000000  0.4569720000000 1.0
C      1  0.5084230000000  0.5638630000000  0.3979440000000 1.0
C      1  0.4681100000000  0.4926020000000  0.5446650000000 1.0
C      1  0.4347070000000  0.4900830000000  0.5511170000000 1.0
C      1  0.4724640000000  0.4403760000000  0.4681060000000 1.0
C      1  0.5054260000000  0.5311680000000  0.4815630000000 1.0
C      1  0.5845760000000  0.5256970000000  0.4812230000000 1.0
C      1  0.5696870000000  0.5630310000000  0.5456570000000 1.0
C      1  0.5221710000000  0.5198320000000  0.5331830000000 1.0
C      1  0.4513460000000  0.5250700000000  0.5604050000000 1.0
C      1  0.5007080000000  0.4472480000000  0.4666050000000 1.0
C      1  0.4044950000000  0.4945370000000  0.5390950000000 1.0
C      1  0.5404170000000  0.5371160000000  0.5106740000000 1.0
C      1  0.4545730000000  0.4955650000000  0.5768190000000 1.0
C      1  0.5049490000000  0.5668450000000  0.5371490000000 1.0
C      1  0.4735290000000  0.5457360000000  0.5470090000000 1.0
C      1  0.5561050000000  0.5511480000000  0.5629170000000 1.0
C      1  0.4789910000000  0.5274700000000  0.5118710000000 1.0
C      1  0.4242140000000  0.5286610000000  0.5114810000000 1.0
C      1  0.5385140000000  0.5251380000000  0.4823140000000 1.0
C      1  0.5280240000000  0.4404180000000  0.5556700000000 1.0
C      1  0.4260930000000  0.5318100000000  0.4810340000000 1.0
C      1  0.4715770000000  0.4160480000000  0.4838890000000 1.0
C      1  0.4180490000000  0.4909510000000  0.4470340000000 1.0
C      1  0.5054940000000  0.5641920000000  0.4592720000000 1.0
C      1  0.4151630000000  0.4643960000000  0.5424930000000 1.0
C      1  0.4768190000000  0.5326480000000  0.4171480000000 1.0
C      1  0.5022620000000  0.5438130000000  0.4152130000000 1.0
C      1  0.5456050000000  0.5736490000000  0.4957580000000 1.0
C      1  0.5188250000000  0.4651920000000  0.4230330000000 1.0
C      1  0.4390870000000  0.5090290000000  0.4627170000000 1.0
C      1  0.4894110000000  0.4462690000000  0.5278700000000 1.0
C      1  0.5039170000000  0.4764400000000  0.5306640000000 1.0
C      1  0.4844820000000  0.5205100000000  0.5681240000000 1.0
C      1  0.5644910000000  0.5046090000000  0.4406060000000 1.0
C      1  0.4024850000000  0.5168500000000  0.5227800000000 1.0
C      1  0.5572530000000  0.4551480000000  0.4657660000000 1.0
C      1  0.5738640000000  0.4783410000000  0.5100280000000 1.0
C      1  0.5166680000000  0.4269060000000  0.5277840000000 1.0
C      1  0.4900830000000  0.4163470000000  0.5119890000000 1.0
C      1  0.4410900000000  0.4582860000000  0.5277920000000 1.0
C      1  0.5430830000000  0.4650460000000  0.4413450000000 1.0
C      1  0.5527650000000  0.4865510000000  0.5567090000000 1.0
C      1  0.4869840000000  0.5413790000000  0.4547760000000 1.0
C      1  0.5018770000000  0.4044140000000  0.4831540000000 1.0
C      1  0.5680490000000  0.5570980000000  0.5155020000000 1.0
C      1  0.5437440000000  0.4342520000000  0.4804690000000 1.0
C      1  0.5317020000000  0.5004860000000  0.5667390000000 1.0
C      1  0.5382340000000  0.4431340000000  0.5084280000000 1.0
C      1  0.5187560000000  0.4245770000000  0.4698130000000 1.0
C      1  0.5651950000000  0.4685880000000  0.5380750000000 1.0
C      1  0.4889450000000  0.4913080000000  0.4634190000000 1.0
C      1  0.4936970000000  0.4809760000000  0.4313480000000 1.0
C      1  0.4057300000000  0.5466250000000  0.4692140000000 1.0
C      1  0.5276840000000  0.4876830000000  0.4547350000000 1.0
C      1  0.5250960000000  0.4726180000000  0.5061880000000 1.0
C      1  0.4927790000000  0.5072490000000  0.5309980000000 1.0
C      1  0.4770040000000  0.5136380000000  0.4812750000000 1.0
C      1  0.5143950000000  0.4650130000000  0.5611050000000 1.0
C      1  0.4667290000000  0.5614030000000  0.4946910000000 1.0
C      1  0.5322150000000  0.5323250000000  0.5627910000000 1.0
END
