TITL C-2778433-5640-781 -0.001233250756469 125000 -925.560017401818 0 0 158 (C1) n - 1
REM
REM in /home/nfs/bkarasulu/CARBON/AIRSS/Generating-Clusters/REBO/Only-C1/SD-CG/HFTN-CG
REM
REM
REM
REM
REM
REM ./C.cell (11c1c37f851c82e70ff6c80c92926a4b)
REM
REM compiler GCC version 9.2.1 20190827 (Red Hat 9.2.1-1)
REM options -cpp -mtune=generic -march=x86-64 -g -O0 -fpre-include=/usr/include/finclude/math-vector-fortran.h
REM seed 1991264046 -312122815 1009047958 -2062922382 418883811 1423124060 -1632559183 -1624658769 1853808116 -642056893 -2021643734 -835836870 1105785748 1014976581 -1839567077 1177332597 -1341674573 1562304041 -1424830118 1782954768 1403844894 345636027 -1720081564 1551396474 1747370153 1145190474 1857365649 1787645642 -283180183 -1775234331 -126246386 -2140799631 -2125030923
REM
CELL 1.54180   50.00000   50.00000   50.00000   90.00000   90.00000   90.00000
LATT -1
SFAC C  
C      1  0.4908310000000  0.4107790000000  0.4393250000000 1.0
C      1  0.5073880000000  0.5406930000000  0.4982080000000 1.0
C      1  0.5247290000000  0.4929170000000  0.4017660000000 1.0
C      1  0.5723340000000  0.4726300000000  0.4082090000000 1.0
C      1  0.5044410000000  0.4389210000000  0.3952430000000 1.0
C      1  0.4805880000000  0.5728180000000  0.4844000000000 1.0
C      1  0.5128160000000  0.4643450000000  0.5221090000000 1.0
C      1  0.4940950000000  0.4504510000000  0.4581220000000 1.0
C      1  0.5342390000000  0.5209500000000  0.4060280000000 1.0
C      1  0.5747410000000  0.4903790000000  0.5479350000000 1.0
C      1  0.5488130000000  0.4184950000000  0.5227430000000 1.0
C      1  0.4764750000000  0.4161400000000  0.5223130000000 1.0
C      1  0.5166270000000  0.4895490000000  0.4407330000000 1.0
C      1  0.6052750000000  0.4744440000000  0.5824370000000 1.0
C      1  0.6223970000000  0.4798320000000  0.6015320000000 1.0
C      1  0.5078830000000  0.4604830000000  0.4361740000000 1.0
C      1  0.5680650000000  0.4943100000000  0.5198530000000 1.0
C      1  0.4960330000000  0.5605600000000  0.5631620000000 1.0
C      1  0.4830710000000  0.4722630000000  0.5243730000000 1.0
C      1  0.5307650000000  0.5479510000000  0.5201580000000 1.0
C      1  0.4279510000000  0.5392540000000  0.5249350000000 1.0
C      1  0.3877310000000  0.4853380000000  0.5232870000000 1.0
C      1  0.5028140000000  0.5384250000000  0.4464220000000 1.0
C      1  0.5114470000000  0.5211800000000  0.4735190000000 1.0
C      1  0.5111170000000  0.5140080000000  0.5271980000000 1.0
C      1  0.5494780000000  0.5151430000000  0.5843440000000 1.0
C      1  0.5174600000000  0.4010540000000  0.5788510000000 1.0
C      1  0.4600520000000  0.4206400000000  0.4921550000000 1.0
C      1  0.4135880000000  0.5586480000000  0.4936040000000 1.0
C      1  0.5208480000000  0.3951840000000  0.4914260000000 1.0
C      1  0.4097530000000  0.4550590000000  0.4784110000000 1.0
C      1  0.5597900000000  0.4242430000000  0.5503430000000 1.0
C      1  0.5354560000000  0.5473300000000  0.4502370000000 1.0
C      1  0.5690510000000  0.5732330000000  0.5196330000000 1.0
C      1  0.5869900000000  0.4686890000000  0.5620450000000 1.0
C      1  0.5261040000000  0.5983870000000  0.4553810000000 1.0
C      1  0.4994710000000  0.4766770000000  0.5662900000000 1.0
C      1  0.5186380000000  0.4331420000000  0.5262930000000 1.0
C      1  0.4989420000000  0.4289240000000  0.5726030000000 1.0
C      1  0.5073810000000  0.4655150000000  0.3932910000000 1.0
C      1  0.5344530000000  0.5145180000000  0.4492360000000 1.0
C      1  0.5572030000000  0.5689860000000  0.5514800000000 1.0
C      1  0.4415960000000  0.5165890000000  0.4758670000000 1.0
C      1  0.5724280000000  0.5150550000000  0.5622190000000 1.0
C      1  0.4931920000000  0.5355490000000  0.5465420000000 1.0
C      1  0.5557430000000  0.5151390000000  0.4830040000000 1.0
C      1  0.4837950000000  0.4733040000000  0.6028850000000 1.0
C      1  0.5937490000000  0.4880570000000  0.4228870000000 1.0
C      1  0.4641630000000  0.5290700000000  0.4454150000000 1.0
C      1  0.5416670000000  0.5331010000000  0.5445700000000 1.0
C      1  0.4709650000000  0.4511040000000  0.5027540000000 1.0
C      1  0.4636400000000  0.4759680000000  0.4189140000000 1.0
C      1  0.4248490000000  0.5727640000000  0.5179300000000 1.0
C      1  0.5265620000000  0.4378780000000  0.4958300000000 1.0
C      1  0.4482910000000  0.5361990000000  0.4994030000000 1.0
C      1  0.4980590000000  0.5070890000000  0.5641950000000 1.0
C      1  0.5108600000000  0.5685430000000  0.4121420000000 1.0
C      1  0.5298650000000  0.4565260000000  0.6047730000000 1.0
C      1  0.5378050000000  0.4128190000000  0.4671950000000 1.0
C      1  0.4359780000000  0.5369580000000  0.4288840000000 1.0
C      1  0.5144870000000  0.5534650000000  0.5870610000000 1.0
C      1  0.4325210000000  0.4793270000000  0.5332320000000 1.0
C      1  0.4903030000000  0.4861160000000  0.4110070000000 1.0
C      1  0.4243800000000  0.4516340000000  0.4006110000000 1.0
C      1  0.4324450000000  0.4297540000000  0.4744940000000 1.0
C      1  0.4145870000000  0.5203490000000  0.4364480000000 1.0
C      1  0.4285330000000  0.4535310000000  0.4511420000000 1.0
C      1  0.5320710000000  0.4442730000000  0.4235970000000 1.0
C      1  0.4761250000000  0.4609920000000  0.5657770000000 1.0
C      1  0.5224170000000  0.5864140000000  0.4311630000000 1.0
C      1  0.5696200000000  0.4980210000000  0.4389690000000 1.0
C      1  0.4218650000000  0.5037010000000  0.5729980000000 1.0
C      1  0.3963640000000  0.5100520000000  0.4830860000000 1.0
C      1  0.4783500000000  0.5307600000000  0.5116730000000 1.0
C      1  0.4936060000000  0.4960650000000  0.4780450000000 1.0
C      1  0.4808420000000  0.5802080000000  0.5318920000000 1.0
C      1  0.4452990000000  0.4728600000000  0.4818350000000 1.0
C      1  0.4143810000000  0.4453120000000  0.4251640000000 1.0
C      1  0.4647090000000  0.5124740000000  0.5572360000000 1.0
C      1  0.4522760000000  0.4757990000000  0.4480920000000 1.0
C      1  0.5572060000000  0.5233490000000  0.4268440000000 1.0
C      1  0.5436710000000  0.5475730000000  0.5745060000000 1.0
C      1  0.5440830000000  0.4856690000000  0.5952390000000 1.0
C      1  0.4805480000000  0.4079070000000  0.4705560000000 1.0
C      1  0.4987450000000  0.5133790000000  0.4255210000000 1.0
C      1  0.4410870000000  0.5616380000000  0.4461210000000 1.0
C      1  0.6020180000000  0.5220690000000  0.4641530000000 1.0
C      1  0.4578770000000  0.4601840000000  0.5391670000000 1.0
C      1  0.4943950000000  0.5041700000000  0.6037160000000 1.0
C      1  0.5789410000000  0.4423370000000  0.5576340000000 1.0
C      1  0.4001970000000  0.5304340000000  0.5060900000000 1.0
C      1  0.4159880000000  0.5137170000000  0.4637590000000 1.0
C      1  0.4746520000000  0.5782450000000  0.6023390000000 1.0
C      1  0.5318830000000  0.5778570000000  0.5305890000000 1.0
C      1  0.4770890000000  0.5359730000000  0.4160190000000 1.0
C      1  0.6045400000000  0.5042160000000  0.4866280000000 1.0
C      1  0.4110630000000  0.4444630000000  0.5274350000000 1.0
C      1  0.4825280000000  0.5639690000000  0.4145330000000 1.0
C      1  0.4786880000000  0.4675950000000  0.4767850000000 1.0
C      1  0.5511490000000  0.4486630000000  0.4921500000000 1.0
C      1  0.4655240000000  0.5773070000000  0.4353220000000 1.0
C      1  0.5072040000000  0.5838310000000  0.5443330000000 1.0
C      1  0.5175770000000  0.5606310000000  0.4756740000000 1.0
C      1  0.4788770000000  0.5572860000000  0.4582240000000 1.0
C      1  0.5449050000000  0.4413530000000  0.4528410000000 1.0
C      1  0.5339210000000  0.4715500000000  0.4642630000000 1.0
C      1  0.5055630000000  0.4231090000000  0.4206800000000 1.0
C      1  0.5743380000000  0.5410550000000  0.5421740000000 1.0
C      1  0.5705660000000  0.4613240000000  0.4760230000000 1.0
C      1  0.5453980000000  0.5725580000000  0.4792480000000 1.0
C      1  0.5497410000000  0.4053890000000  0.4983530000000 1.0
C      1  0.4762090000000  0.5626810000000  0.5098460000000 1.0
C      1  0.5648400000000  0.5572700000000  0.4628440000000 1.0
C      1  0.5870450000000  0.5115010000000  0.5075550000000 1.0
C      1  0.3918020000000  0.4607100000000  0.5365900000000 1.0
C      1  0.5001340000000  0.4504100000000  0.5966950000000 1.0
C      1  0.5610920000000  0.4901430000000  0.4662500000000 1.0
C      1  0.4651370000000  0.5020480000000  0.4621140000000 1.0
C      1  0.4991170000000  0.5674790000000  0.6106110000000 1.0
C      1  0.4369130000000  0.5268190000000  0.5528620000000 1.0
C      1  0.4032560000000  0.5204540000000  0.5542370000000 1.0
C      1  0.4403690000000  0.4313700000000  0.5343300000000 1.0
C      1  0.4671500000000  0.4972820000000  0.5870780000000 1.0
C      1  0.5325650000000  0.4735500000000  0.5442810000000 1.0
C      1  0.5453790000000  0.4677960000000  0.4073680000000 1.0
C      1  0.4914370000000  0.6010860000000  0.4884780000000 1.0
C      1  0.5282410000000  0.4659650000000  0.5731280000000 1.0
C      1  0.4638070000000  0.6032850000000  0.5040450000000 1.0
C      1  0.5238500000000  0.5456630000000  0.4007060000000 1.0
C      1  0.5859170000000  0.5440190000000  0.4754610000000 1.0
C      1  0.4571120000000  0.5879550000000  0.5509790000000 1.0
C      1  0.4498490000000  0.4306090000000  0.5646110000000 1.0
C      1  0.4476050000000  0.4659520000000  0.3993080000000 1.0
C      1  0.4943750000000  0.4021290000000  0.4999450000000 1.0
C      1  0.5168280000000  0.5213120000000  0.5879730000000 1.0
C      1  0.4290840000000  0.4779170000000  0.5637000000000 1.0
C      1  0.4760600000000  0.4236470000000  0.5506440000000 1.0
C      1  0.5373020000000  0.5036860000000  0.5433680000000 1.0
C      1  0.5351500000000  0.4955540000000  0.5111080000000 1.0
C      1  0.5465930000000  0.5333910000000  0.4960760000000 1.0
C      1  0.4374610000000  0.4499870000000  0.5065520000000 1.0
C      1  0.4704760000000  0.5758370000000  0.5740830000000 1.0
C      1  0.5787850000000  0.4443370000000  0.4531670000000 1.0
C      1  0.5732810000000  0.5457940000000  0.4251330000000 1.0
C      1  0.5187540000000  0.4772690000000  0.4911860000000 1.0
C      1  0.4440130000000  0.5927040000000  0.5233010000000 1.0
C      1  0.5277690000000  0.4241520000000  0.5560800000000 1.0
C      1  0.5828460000000  0.5441110000000  0.5093450000000 1.0
C      1  0.3910010000000  0.5126670000000  0.5304930000000 1.0
C      1  0.4267550000000  0.4879760000000  0.5060840000000 1.0
C      1  0.3964880000000  0.4803580000000  0.4932500000000 1.0
C      1  0.6075920000000  0.5102970000000  0.4386340000000 1.0
C      1  0.4363600000000  0.5560940000000  0.4738440000000 1.0
C      1  0.5445710000000  0.5916590000000  0.5042160000000 1.0
C      1  0.4804100000000  0.5026060000000  0.5286530000000 1.0
C      1  0.5073800000000  0.4271900000000  0.4717280000000 1.0
C      1  0.5200300000000  0.6028970000000  0.4831930000000 1.0
C      1  0.4461300000000  0.4582760000000  0.5772120000000 1.0
END
