TITL C-2778429-3646-884 0.00245685486983239 125000 -738.074544804191 0 0 128 (C1) n - 1
REM
REM in /home/nfs/bkarasulu/CARBON/AIRSS/Generating-Clusters/REBO/Only-C1/SD-CG/HFTN-CG
REM
REM
REM
REM
REM
REM ./C.cell (11c1c37f851c82e70ff6c80c92926a4b)
REM
REM compiler GCC version 9.2.1 20190827 (Red Hat 9.2.1-1)
REM options -cpp -mtune=generic -march=x86-64 -g -O0 -fpre-include=/usr/include/finclude/math-vector-fortran.h
REM seed 1200962315 -375182855 760955419 -120291049 -1874018636 -1310084076 922434844 -839511408 514696445 -313135978 -636207234 2141222350 -1895502540 -1485650877 1603453657 -1289051112 -265988883 1492808079 1257108757 -1680947025 606199600 577242620 748307019 1076640216 145416241 1485278303 131331376 776900145 105313119 2084370373 1699310473 1145912859 -154624688
REM
CELL 1.54180   50.00000   50.00000   50.00000   90.00000   90.00000   90.00000
LATT -1
SFAC C  
C      1  0.5033650000000  0.5289370000000  0.5826270000000 1.0
C      1  0.5426330000000  0.4222710000000  0.4889980000000 1.0
C      1  0.5879750000000  0.4718080000000  0.5212590000000 1.0
C      1  0.4680230000000  0.5106300000000  0.5822160000000 1.0
C      1  0.4458490000000  0.5154950000000  0.4122960000000 1.0
C      1  0.4739420000000  0.5480230000000  0.4993360000000 1.0
C      1  0.4438150000000  0.4682550000000  0.4413210000000 1.0
C      1  0.5226520000000  0.4860910000000  0.5629660000000 1.0
C      1  0.4539720000000  0.4411070000000  0.4356930000000 1.0
C      1  0.5365930000000  0.5212790000000  0.5497490000000 1.0
C      1  0.5227190000000  0.4184150000000  0.4637830000000 1.0
C      1  0.4742260000000  0.5424940000000  0.5876290000000 1.0
C      1  0.5647910000000  0.4469020000000  0.5220450000000 1.0
C      1  0.5272020000000  0.5784890000000  0.4370250000000 1.0
C      1  0.5324060000000  0.4234500000000  0.5209940000000 1.0
C      1  0.5339900000000  0.5319450000000  0.4991980000000 1.0
C      1  0.4725120000000  0.4191350000000  0.5071420000000 1.0
C      1  0.4797240000000  0.4346170000000  0.5367430000000 1.0
C      1  0.4762460000000  0.5839870000000  0.4368660000000 1.0
C      1  0.5437900000000  0.4599510000000  0.5019920000000 1.0
C      1  0.4787980000000  0.4335160000000  0.4836040000000 1.0
C      1  0.5330340000000  0.5382140000000  0.5853040000000 1.0
C      1  0.4821250000000  0.4743760000000  0.5904470000000 1.0
C      1  0.4678900000000  0.5558140000000  0.4193990000000 1.0
C      1  0.4726610000000  0.4919580000000  0.5558260000000 1.0
C      1  0.4191990000000  0.5162390000000  0.5366540000000 1.0
C      1  0.4370280000000  0.4635300000000  0.5690440000000 1.0
C      1  0.5608970000000  0.5658640000000  0.5204190000000 1.0
C      1  0.4705230000000  0.5298380000000  0.4086420000000 1.0
C      1  0.5005210000000  0.5066290000000  0.5576580000000 1.0
C      1  0.5460600000000  0.4768030000000  0.4215100000000 1.0
C      1  0.5179540000000  0.4593190000000  0.5814660000000 1.0
C      1  0.4185150000000  0.4674940000000  0.4550550000000 1.0
C      1  0.5621550000000  0.5442480000000  0.4536380000000 1.0
C      1  0.5200560000000  0.5913330000000  0.5086900000000 1.0
C      1  0.4903670000000  0.5074570000000  0.5153770000000 1.0
C      1  0.5184920000000  0.5052010000000  0.5283570000000 1.0
C      1  0.5652660000000  0.5486120000000  0.5467620000000 1.0
C      1  0.4677740000000  0.4302700000000  0.5622570000000 1.0
C      1  0.4278630000000  0.5335330000000  0.4843520000000 1.0
C      1  0.5200130000000  0.5280550000000  0.4168970000000 1.0
C      1  0.5005380000000  0.4107070000000  0.4470120000000 1.0
C      1  0.4895950000000  0.4637300000000  0.5622900000000 1.0
C      1  0.4938700000000  0.5364920000000  0.4459040000000 1.0
C      1  0.5506490000000  0.5109070000000  0.5770590000000 1.0
C      1  0.5319530000000  0.5659240000000  0.5201760000000 1.0
C      1  0.4182230000000  0.4430700000000  0.4702380000000 1.0
C      1  0.5580700000000  0.4489820000000  0.4470820000000 1.0
C      1  0.4406380000000  0.4390500000000  0.4940220000000 1.0
C      1  0.5859000000000  0.4864190000000  0.5520090000000 1.0
C      1  0.5352990000000  0.4707260000000  0.5395060000000 1.0
C      1  0.5077510000000  0.5938370000000  0.5354220000000 1.0
C      1  0.5749670000000  0.4740230000000  0.4319160000000 1.0
C      1  0.4170910000000  0.5187210000000  0.4623030000000 1.0
C      1  0.5443790000000  0.5317050000000  0.4356440000000 1.0
C      1  0.5196680000000  0.4862280000000  0.4832650000000 1.0
C      1  0.5422850000000  0.4893010000000  0.5138280000000 1.0
C      1  0.5435890000000  0.5096330000000  0.4782670000000 1.0
C      1  0.4038890000000  0.4909370000000  0.5286760000000 1.0
C      1  0.4657450000000  0.5188920000000  0.4467830000000 1.0
C      1  0.5039100000000  0.5657210000000  0.4317240000000 1.0
C      1  0.4825290000000  0.4661190000000  0.4745710000000 1.0
C      1  0.4983270000000  0.4988650000000  0.5967530000000 1.0
C      1  0.4602250000000  0.4558700000000  0.5165650000000 1.0
C      1  0.5844770000000  0.4939700000000  0.4481880000000 1.0
C      1  0.5197150000000  0.5447090000000  0.5342500000000 1.0
C      1  0.4333120000000  0.5194470000000  0.4393660000000 1.0
C      1  0.5076120000000  0.5436350000000  0.4958690000000 1.0
C      1  0.4383230000000  0.4474040000000  0.5414370000000 1.0
C      1  0.5029770000000  0.4656080000000  0.4471280000000 1.0
C      1  0.4764250000000  0.4148410000000  0.4606720000000 1.0
C      1  0.4957890000000  0.5073420000000  0.4839180000000 1.0
C      1  0.5187410000000  0.4495280000000  0.4726490000000 1.0
C      1  0.4502140000000  0.4994990000000  0.4997010000000 1.0
C      1  0.4433330000000  0.4207650000000  0.5224610000000 1.0
C      1  0.4904510000000  0.4870380000000  0.4246140000000 1.0
C      1  0.5796000000000  0.4722120000000  0.4899820000000 1.0
C      1  0.5345090000000  0.5940630000000  0.4580530000000 1.0
C      1  0.4949240000000  0.5147180000000  0.4125400000000 1.0
C      1  0.5627460000000  0.4465500000000  0.4782710000000 1.0
C      1  0.5737250000000  0.5004080000000  0.4775870000000 1.0
C      1  0.5531950000000  0.5267530000000  0.5225420000000 1.0
C      1  0.5740720000000  0.5701720000000  0.4960440000000 1.0
C      1  0.5044120000000  0.4113290000000  0.5312830000000 1.0
C      1  0.5650670000000  0.4623780000000  0.5522960000000 1.0
C      1  0.4834840000000  0.4633850000000  0.4044600000000 1.0
C      1  0.5284940000000  0.4518410000000  0.4299620000000 1.0
C      1  0.4629250000000  0.5719700000000  0.5187900000000 1.0
C      1  0.4956740000000  0.4184640000000  0.4198740000000 1.0
C      1  0.5157270000000  0.5180570000000  0.4598180000000 1.0
C      1  0.4667230000000  0.5144240000000  0.4790320000000 1.0
C      1  0.4526750000000  0.5440290000000  0.5665470000000 1.0
C      1  0.4906220000000  0.5681010000000  0.5473800000000 1.0
C      1  0.3919640000000  0.4885710000000  0.5003440000000 1.0
C      1  0.5871880000000  0.5250780000000  0.4911580000000 1.0
C      1  0.4033430000000  0.4907750000000  0.4681720000000 1.0
C      1  0.5309300000000  0.4887860000000  0.5941590000000 1.0
C      1  0.4376370000000  0.5166640000000  0.5629140000000 1.0
C      1  0.4552840000000  0.5603650000000  0.4490430000000 1.0
C      1  0.5714560000000  0.4999350000000  0.5175070000000 1.0
C      1  0.5319390000000  0.4354790000000  0.5731380000000 1.0
C      1  0.5474900000000  0.4336530000000  0.5482760000000 1.0
C      1  0.4308290000000  0.4782030000000  0.5324180000000 1.0
C      1  0.5216390000000  0.5763300000000  0.5585440000000 1.0
C      1  0.5150940000000  0.4479100000000  0.5044390000000 1.0
C      1  0.4685250000000  0.4851730000000  0.4499460000000 1.0
C      1  0.5758810000000  0.5169750000000  0.5542230000000 1.0
C      1  0.4752390000000  0.4386660000000  0.4163780000000 1.0
C      1  0.5417860000000  0.5590810000000  0.5670800000000 1.0
C      1  0.4557350000000  0.4978100000000  0.5327610000000 1.0
C      1  0.4365560000000  0.4875780000000  0.5749990000000 1.0
C      1  0.4551360000000  0.5459660000000  0.4741540000000 1.0
C      1  0.5283020000000  0.5997960000000  0.4836830000000 1.0
C      1  0.4288180000000  0.5306220000000  0.5127890000000 1.0
C      1  0.5921720000000  0.5251130000000  0.5247960000000 1.0
C      1  0.4588970000000  0.5301990000000  0.5235680000000 1.0
C      1  0.4594040000000  0.5627180000000  0.5467990000000 1.0
C      1  0.5775740000000  0.5486950000000  0.4777940000000 1.0
C      1  0.4996640000000  0.5569160000000  0.4703380000000 1.0
C      1  0.4455630000000  0.4245960000000  0.4633600000000 1.0
C      1  0.5395480000000  0.4739610000000  0.4607790000000 1.0
C      1  0.4753020000000  0.4791010000000  0.5033530000000 1.0
C      1  0.5355870000000  0.4999530000000  0.4404750000000 1.0
C      1  0.4230160000000  0.4950910000000  0.4939710000000 1.0
C      1  0.4705980000000  0.5874010000000  0.4934880000000 1.0
C      1  0.4835020000000  0.5801860000000  0.4691700000000 1.0
C      1  0.5062650000000  0.4559770000000  0.5351490000000 1.0
C      1  0.4894930000000  0.5365970000000  0.5338680000000 1.0
END
