TITL C-2778436-5916-1196 0.000507586588720341 125000 -229.793773744493 0 0 41 (C1) n - 1
REM
REM in /home/nfs/bkarasulu/CARBON/AIRSS/Generating-Clusters/REBO/Only-C1/SD-CG/HFTN-CG
REM
REM
REM
REM
REM
REM ./C.cell (11c1c37f851c82e70ff6c80c92926a4b)
REM
REM compiler GCC version 9.2.1 20190827 (Red Hat 9.2.1-1)
REM options -cpp -mtune=generic -march=x86-64 -g -O0 -fpre-include=/usr/include/finclude/math-vector-fortran.h
REM seed 1869070012 974272979 -637029833 -1596878235 1703809700 1902472738 658454234 363062602 553346954 -993010412 448205576 666761647 905955672 1294549229 -1812620336 722561679 599162100 673561737 2037349049 -1944364292 1773392514 1350649198 611626844 -1420875060 -260132473 -747316355 1398173277 1420011948 -1617571806 2022064412 934356431 238408222 1871136432
REM
CELL 1.54180   50.00000   50.00000   50.00000   90.00000   90.00000   90.00000
LATT -1
SFAC C  
C      1  0.5078790000000  0.4429570000000  0.5180660000000 1.0
C      1  0.5056120000000  0.5378950000000  0.4608240000000 1.0
C      1  0.5403100000000  0.5239200000000  0.4467970000000 1.0
C      1  0.4770110000000  0.5147900000000  0.5543170000000 1.0
C      1  0.4796120000000  0.4768840000000  0.5616690000000 1.0
C      1  0.5454490000000  0.4762640000000  0.4976250000000 1.0
C      1  0.5198670000000  0.5378560000000  0.4301010000000 1.0
C      1  0.5323290000000  0.4953030000000  0.4567020000000 1.0
C      1  0.4996930000000  0.5444790000000  0.4112130000000 1.0
C      1  0.4955080000000  0.5152090000000  0.5256420000000 1.0
C      1  0.5083040000000  0.5080840000000  0.4765150000000 1.0
C      1  0.4451000000000  0.4870980000000  0.5193480000000 1.0
C      1  0.5252400000000  0.5419230000000  0.4884120000000 1.0
C      1  0.4980260000000  0.4491540000000  0.4899590000000 1.0
C      1  0.5032170000000  0.4723360000000  0.5746820000000 1.0
C      1  0.5428040000000  0.5212220000000  0.5578550000000 1.0
C      1  0.4646180000000  0.4493570000000  0.4880930000000 1.0
C      1  0.5319400000000  0.5460510000000  0.5585880000000 1.0
C      1  0.4743120000000  0.5453010000000  0.4231770000000 1.0
C      1  0.4388510000000  0.4591810000000  0.5074350000000 1.0
C      1  0.5422660000000  0.4958920000000  0.5450620000000 1.0
C      1  0.4623950000000  0.5156220000000  0.4637260000000 1.0
C      1  0.4843550000000  0.4851890000000  0.5286280000000 1.0
C      1  0.4790180000000  0.4988490000000  0.4779230000000 1.0
C      1  0.4752390000000  0.5376560000000  0.4508790000000 1.0
C      1  0.5046600000000  0.4455880000000  0.4572980000000 1.0
C      1  0.5271240000000  0.4740370000000  0.5563570000000 1.0
C      1  0.4591700000000  0.4386920000000  0.4590970000000 1.0
C      1  0.4823470000000  0.4377210000000  0.4437450000000 1.0
C      1  0.4521620000000  0.4916310000000  0.5514280000000 1.0
C      1  0.5185710000000  0.5157100000000  0.5068280000000 1.0
C      1  0.5127640000000  0.5636260000000  0.5507740000000 1.0
C      1  0.4529350000000  0.5184370000000  0.5300190000000 1.0
C      1  0.4716830000000  0.4798190000000  0.4994880000000 1.0
C      1  0.5585500000000  0.4813150000000  0.4710580000000 1.0
C      1  0.4764200000000  0.5423670000000  0.5268670000000 1.0
C      1  0.5401180000000  0.4965650000000  0.5163280000000 1.0
C      1  0.5210520000000  0.4687300000000  0.4749550000000 1.0
C      1  0.4891000000000  0.5641120000000  0.5369010000000 1.0
C      1  0.5474000000000  0.5399190000000  0.4696560000000 1.0
C      1  0.5069890000000  0.4632610000000  0.5359610000000 1.0
END
