TITL C-2778429-3646-22 -0.000783888350904678 125000 -367.438754591869 0 0 64 (C1) n - 1
REM
REM in /home/nfs/bkarasulu/CARBON/AIRSS/Generating-Clusters/REBO/Only-C1/SD-CG/HFTN-CG
REM
REM
REM
REM
REM
REM ./C.cell (11c1c37f851c82e70ff6c80c92926a4b)
REM
REM compiler GCC version 9.2.1 20190827 (Red Hat 9.2.1-1)
REM options -cpp -mtune=generic -march=x86-64 -g -O0 -fpre-include=/usr/include/finclude/math-vector-fortran.h
REM seed -356700797 -1548234395 -893912051 614324917 142585903 -880784876 -1871328875 792318354 -1904420431 -2050991163 -435707802 -1187353903 881377185 -1287875178 1041637807 905037426 679355256 1657202319 1498279556 1784046609 -995249834 867993893 36026076 -1052114296 1004402295 -665722852 -1217722119 -1610607103 -1185210462 -952760245 456656646 355447558 -1975775370
REM
CELL 1.54180   50.00000   50.00000   50.00000   90.00000   90.00000   90.00000
LATT -1
SFAC C  
C      1  0.4929000000000  0.5483840000000  0.4490740000000 1.0
C      1  0.5604230000000  0.5023670000000  0.4408140000000 1.0
C      1  0.4894330000000  0.4904100000000  0.5528020000000 1.0
C      1  0.4519210000000  0.5147450000000  0.4483180000000 1.0
C      1  0.4829300000000  0.5245540000000  0.4715920000000 1.0
C      1  0.4992780000000  0.4920980000000  0.5040740000000 1.0
C      1  0.5258430000000  0.5395310000000  0.4433150000000 1.0
C      1  0.5521890000000  0.4973070000000  0.5265880000000 1.0
C      1  0.5215920000000  0.4960110000000  0.5293250000000 1.0
C      1  0.4399080000000  0.4782480000000  0.4781120000000 1.0
C      1  0.4620840000000  0.5683140000000  0.5512320000000 1.0
C      1  0.5112160000000  0.4494670000000  0.4584010000000 1.0
C      1  0.5612440000000  0.5379910000000  0.5007000000000 1.0
C      1  0.4420840000000  0.5222960000000  0.5622320000000 1.0
C      1  0.4718120000000  0.4176770000000  0.5175080000000 1.0
C      1  0.5216590000000  0.5418550000000  0.5465290000000 1.0
C      1  0.5090140000000  0.4654460000000  0.5287010000000 1.0
C      1  0.4926780000000  0.4976750000000  0.4531320000000 1.0
C      1  0.4621900000000  0.5392750000000  0.5522930000000 1.0
C      1  0.5655930000000  0.5201080000000  0.5361630000000 1.0
C      1  0.5343060000000  0.4659490000000  0.5596210000000 1.0
C      1  0.4734150000000  0.5262600000000  0.4330460000000 1.0
C      1  0.4706450000000  0.4901340000000  0.4877910000000 1.0
C      1  0.5180540000000  0.5649550000000  0.4649870000000 1.0
C      1  0.4961780000000  0.4681890000000  0.4386720000000 1.0
C      1  0.5494170000000  0.4645040000000  0.4881100000000 1.0
C      1  0.5034680000000  0.5577120000000  0.5258300000000 1.0
C      1  0.4647440000000  0.4644230000000  0.4366920000000 1.0
C      1  0.4430320000000  0.5252540000000  0.4741210000000 1.0
C      1  0.4471040000000  0.4864140000000  0.4477080000000 1.0
C      1  0.5014750000000  0.4606980000000  0.5600400000000 1.0
C      1  0.5339220000000  0.4906370000000  0.4918090000000 1.0
C      1  0.5162760000000  0.5620220000000  0.4989650000000 1.0
C      1  0.5184770000000  0.4863440000000  0.4252430000000 1.0
C      1  0.5489710000000  0.5423570000000  0.5431780000000 1.0
C      1  0.5595610000000  0.4704620000000  0.5174830000000 1.0
C      1  0.4752490000000  0.4911590000000  0.5273710000000 1.0
C      1  0.5182750000000  0.5068170000000  0.4701640000000 1.0
C      1  0.4675570000000  0.4607800000000  0.4704900000000 1.0
C      1  0.5060640000000  0.5172890000000  0.4281810000000 1.0
C      1  0.4044430000000  0.5062030000000  0.5007980000000 1.0
C      1  0.4700660000000  0.4217520000000  0.5446580000000 1.0
C      1  0.5493300000000  0.5196940000000  0.4846100000000 1.0
C      1  0.4558940000000  0.5486490000000  0.4882530000000 1.0
C      1  0.5372900000000  0.4931980000000  0.5659440000000 1.0
C      1  0.5508670000000  0.4519480000000  0.5390960000000 1.0
C      1  0.5137990000000  0.4390980000000  0.5163450000000 1.0
C      1  0.5379220000000  0.4288980000000  0.5275010000000 1.0
C      1  0.4714510000000  0.5213740000000  0.5016690000000 1.0
C      1  0.5129930000000  0.5357680000000  0.4809340000000 1.0
C      1  0.4332000000000  0.5018010000000  0.5462140000000 1.0
C      1  0.4920600000000  0.4289850000000  0.5009810000000 1.0
C      1  0.4480960000000  0.4965950000000  0.5225400000000 1.0
C      1  0.4800820000000  0.5332050000000  0.5291720000000 1.0
C      1  0.5126150000000  0.5138180000000  0.5548840000000 1.0
C      1  0.5436140000000  0.4795330000000  0.4385490000000 1.0
C      1  0.4822070000000  0.4372590000000  0.5634170000000 1.0
C      1  0.5391190000000  0.4586280000000  0.4602950000000 1.0
C      1  0.5926800000000  0.5213790000000  0.5382840000000 1.0
C      1  0.4612670000000  0.5723780000000  0.5024890000000 1.0
C      1  0.4762160000000  0.5749140000000  0.5269640000000 1.0
C      1  0.4321130000000  0.5030500000000  0.4958760000000 1.0
C      1  0.4900950000000  0.4414840000000  0.4759920000000 1.0
C      1  0.5503990000000  0.5242700000000  0.4541250000000 1.0
END
