TITL C-2778437-8639-1114 -0.00317432706226726 125000 -1064.02775899552 0 0 181 (C1) n - 1
REM
REM in /home/nfs/bkarasulu/CARBON/AIRSS/Generating-Clusters/REBO/Only-C1/SD-CG/HFTN-CG
REM
REM
REM
REM
REM
REM ./C.cell (11c1c37f851c82e70ff6c80c92926a4b)
REM
REM compiler GCC version 9.2.1 20190827 (Red Hat 9.2.1-1)
REM options -cpp -mtune=generic -march=x86-64 -g -O0 -fpre-include=/usr/include/finclude/math-vector-fortran.h
REM seed -172199184 108701366 -341627317 -81801797 792188984 268770531 -2096757540 -430234575 1225113577 1108753348 540558139 -689171454 -55443891 -836039052 -294808276 -47137531 -1086032763 155693052 1293602676 375218741 904652773 986507829 -1461618566 1632272024 1046003378 -309501175 772861800 2109196533 49528890 -1997209197 1374772110 1709606610 1068312396
REM
CELL 1.54180   50.00000   50.00000   50.00000   90.00000   90.00000   90.00000
LATT -1
SFAC C  
C      1  0.5494710000000  0.5707460000000  0.4328200000000 1.0
C      1  0.4382100000000  0.5065510000000  0.4504840000000 1.0
C      1  0.4634820000000  0.5784270000000  0.5158710000000 1.0
C      1  0.4883940000000  0.4261670000000  0.4966170000000 1.0
C      1  0.4405860000000  0.5189940000000  0.4191130000000 1.0
C      1  0.5541030000000  0.4175940000000  0.4629300000000 1.0
C      1  0.5606120000000  0.5677360000000  0.5209950000000 1.0
C      1  0.4498600000000  0.5048200000000  0.5137170000000 1.0
C      1  0.5140970000000  0.5519970000000  0.3940230000000 1.0
C      1  0.4856380000000  0.5769720000000  0.4259010000000 1.0
C      1  0.4226280000000  0.4320270000000  0.4604270000000 1.0
C      1  0.5114750000000  0.5471950000000  0.5332850000000 1.0
C      1  0.5463310000000  0.5278990000000  0.4174140000000 1.0
C      1  0.4382200000000  0.4872730000000  0.5409130000000 1.0
C      1  0.4819550000000  0.5306550000000  0.5124620000000 1.0
C      1  0.5701840000000  0.5130560000000  0.4058060000000 1.0
C      1  0.4042690000000  0.5538790000000  0.5031910000000 1.0
C      1  0.5449800000000  0.5073630000000  0.5974990000000 1.0
C      1  0.5098430000000  0.5724840000000  0.5787210000000 1.0
C      1  0.5765710000000  0.4706880000000  0.4754150000000 1.0
C      1  0.3903460000000  0.4638360000000  0.4776790000000 1.0
C      1  0.5539960000000  0.4478960000000  0.4759970000000 1.0
C      1  0.4166770000000  0.4753940000000  0.4378020000000 1.0
C      1  0.4751160000000  0.5152400000000  0.4383950000000 1.0
C      1  0.4447650000000  0.4786940000000  0.4215290000000 1.0
C      1  0.5048530000000  0.5409090000000  0.4312350000000 1.0
C      1  0.4718590000000  0.4535690000000  0.5088700000000 1.0
C      1  0.5919650000000  0.4529530000000  0.5209940000000 1.0
C      1  0.4493640000000  0.5380060000000  0.4463250000000 1.0
C      1  0.5043040000000  0.4563490000000  0.5751760000000 1.0
C      1  0.4673850000000  0.5568450000000  0.5748640000000 1.0
C      1  0.5322910000000  0.4821280000000  0.6049450000000 1.0
C      1  0.3898150000000  0.4884090000000  0.5013670000000 1.0
C      1  0.5370670000000  0.5548950000000  0.4122050000000 1.0
C      1  0.5284130000000  0.4013900000000  0.5427300000000 1.0
C      1  0.5357240000000  0.4798020000000  0.3853350000000 1.0
C      1  0.5878520000000  0.5216770000000  0.4961240000000 1.0
C      1  0.5552450000000  0.4555600000000  0.5055460000000 1.0
C      1  0.5152560000000  0.4916190000000  0.4289610000000 1.0
C      1  0.4100480000000  0.4365020000000  0.5193720000000 1.0
C      1  0.4585920000000  0.4529240000000  0.4773310000000 1.0
C      1  0.5471190000000  0.5306360000000  0.5269630000000 1.0
C      1  0.4533910000000  0.4151030000000  0.5355370000000 1.0
C      1  0.4799320000000  0.5250140000000  0.4684420000000 1.0
C      1  0.5428830000000  0.4511400000000  0.4311350000000 1.0
C      1  0.5630260000000  0.4476310000000  0.5374340000000 1.0
C      1  0.5673160000000  0.5085480000000  0.4453620000000 1.0
C      1  0.4395980000000  0.5795960000000  0.4841740000000 1.0
C      1  0.4883110000000  0.6090870000000  0.4873770000000 1.0
C      1  0.5112860000000  0.4946740000000  0.3770150000000 1.0
C      1  0.4792910000000  0.4125270000000  0.5566230000000 1.0
C      1  0.4597660000000  0.4859460000000  0.5622730000000 1.0
C      1  0.5589380000000  0.5336380000000  0.5582300000000 1.0
C      1  0.5662000000000  0.4953400000000  0.4937100000000 1.0
C      1  0.5076160000000  0.5186020000000  0.4149220000000 1.0
C      1  0.5992040000000  0.4931110000000  0.5612470000000 1.0
C      1  0.4213070000000  0.4973020000000  0.4960040000000 1.0
C      1  0.4277970000000  0.5257380000000  0.5675160000000 1.0
C      1  0.4885370000000  0.5618250000000  0.5245950000000 1.0
C      1  0.3950780000000  0.4867320000000  0.5704080000000 1.0
C      1  0.4781330000000  0.4870800000000  0.5051450000000 1.0
C      1  0.4704880000000  0.5321680000000  0.4091970000000 1.0
C      1  0.5124970000000  0.3944360000000  0.4934540000000 1.0
C      1  0.5339770000000  0.4956350000000  0.4885130000000 1.0
C      1  0.5285990000000  0.4772890000000  0.5656120000000 1.0
C      1  0.6153320000000  0.5054780000000  0.5078850000000 1.0
C      1  0.4055680000000  0.4546320000000  0.4555820000000 1.0
C      1  0.4537950000000  0.5246390000000  0.4849130000000 1.0
C      1  0.5405050000000  0.5778190000000  0.5410860000000 1.0
C      1  0.4713680000000  0.4212990000000  0.4370680000000 1.0
C      1  0.4240040000000  0.5740440000000  0.5105630000000 1.0
C      1  0.4341180000000  0.4195880000000  0.5097730000000 1.0
C      1  0.5080710000000  0.5720550000000  0.4834610000000 1.0
C      1  0.4592400000000  0.4797680000000  0.6026420000000 1.0
C      1  0.5171040000000  0.4399910000000  0.4892270000000 1.0
C      1  0.5209660000000  0.5486210000000  0.4838430000000 1.0
C      1  0.5086540000000  0.4674040000000  0.5219150000000 1.0
C      1  0.4860910000000  0.5209660000000  0.5648210000000 1.0
C      1  0.4060450000000  0.5021810000000  0.4468430000000 1.0
C      1  0.4650930000000  0.4350890000000  0.5838660000000 1.0
C      1  0.5050170000000  0.4033930000000  0.4682670000000 1.0
C      1  0.5189470000000  0.4197660000000  0.4255410000000 1.0
C      1  0.5115730000000  0.6121230000000  0.4682220000000 1.0
C      1  0.4327290000000  0.4386830000000  0.5448620000000 1.0
C      1  0.5673680000000  0.4672400000000  0.4243800000000 1.0
C      1  0.4390050000000  0.4713280000000  0.4947500000000 1.0
C      1  0.4761780000000  0.4849420000000  0.4340860000000 1.0
C      1  0.4110470000000  0.5440650000000  0.4762480000000 1.0
C      1  0.5363950000000  0.5081390000000  0.5580640000000 1.0
C      1  0.5031550000000  0.4700870000000  0.4489110000000 1.0
C      1  0.6332230000000  0.5497370000000  0.4870480000000 1.0
C      1  0.4411270000000  0.4172740000000  0.4821920000000 1.0
C      1  0.5645700000000  0.5837290000000  0.4927440000000 1.0
C      1  0.4153810000000  0.5544350000000  0.5536480000000 1.0
C      1  0.4566110000000  0.5122570000000  0.5795550000000 1.0
C      1  0.4863800000000  0.4839870000000  0.3879790000000 1.0
C      1  0.5585270000000  0.4846750000000  0.5232970000000 1.0
C      1  0.5473630000000  0.5468520000000  0.4985860000000 1.0
C      1  0.5231210000000  0.5193550000000  0.4708560000000 1.0
C      1  0.5748550000000  0.5472210000000  0.5732560000000 1.0
C      1  0.4852900000000  0.4798360000000  0.4726930000000 1.0
C      1  0.5364330000000  0.5905690000000  0.4476640000000 1.0
C      1  0.4994510000000  0.3954580000000  0.5401280000000 1.0
C      1  0.5756490000000  0.4102360000000  0.4467460000000 1.0
C      1  0.5723240000000  0.4994160000000  0.5437910000000 1.0
C      1  0.4760010000000  0.5124000000000  0.5360110000000 1.0
C      1  0.5360620000000  0.4668720000000  0.5383420000000 1.0
C      1  0.5718700000000  0.4694800000000  0.5800030000000 1.0
C      1  0.5170990000000  0.5356950000000  0.5648570000000 1.0
C      1  0.5831480000000  0.5306630000000  0.4318790000000 1.0
C      1  0.5106220000000  0.4374890000000  0.5294400000000 1.0
C      1  0.5130370000000  0.4734060000000  0.4916030000000 1.0
C      1  0.5767840000000  0.4819690000000  0.4470810000000 1.0
C      1  0.4529430000000  0.5420460000000  0.5540590000000 1.0
C      1  0.4957970000000  0.4327350000000  0.4204140000000 1.0
C      1  0.4552460000000  0.5494890000000  0.5061880000000 1.0
C      1  0.5193880000000  0.5157260000000  0.5303030000000 1.0
C      1  0.4972490000000  0.5124380000000  0.4919490000000 1.0
C      1  0.5053990000000  0.5518740000000  0.5994010000000 1.0
C      1  0.5638630000000  0.4848000000000  0.4002130000000 1.0
C      1  0.6003760000000  0.5148240000000  0.5346380000000 1.0
C      1  0.4601830000000  0.4503390000000  0.4224330000000 1.0
C      1  0.4891330000000  0.5790030000000  0.4597630000000 1.0
C      1  0.3938670000000  0.4551640000000  0.5079620000000 1.0
C      1  0.3919260000000  0.5220340000000  0.5065640000000 1.0
C      1  0.5260610000000  0.4111030000000  0.4513940000000 1.0
C      1  0.4614400000000  0.5000820000000  0.4003130000000 1.0
C      1  0.4633700000000  0.5800270000000  0.5498420000000 1.0
C      1  0.5895100000000  0.4611490000000  0.5539640000000 1.0
C      1  0.5332370000000  0.4164530000000  0.5689850000000 1.0
C      1  0.4347800000000  0.4687160000000  0.5913250000000 1.0
C      1  0.4067020000000  0.5282410000000  0.5337090000000 1.0
C      1  0.5028770000000  0.4959600000000  0.5754880000000 1.0
C      1  0.5728720000000  0.5564130000000  0.4462940000000 1.0
C      1  0.6209980000000  0.4814900000000  0.4969370000000 1.0
C      1  0.4918030000000  0.5483970000000  0.4531650000000 1.0
C      1  0.5580190000000  0.4133480000000  0.4955390000000 1.0
C      1  0.4506180000000  0.4413750000000  0.4519090000000 1.0
C      1  0.5065510000000  0.4305430000000  0.5588790000000 1.0
C      1  0.4344590000000  0.5569240000000  0.4654740000000 1.0
C      1  0.4841990000000  0.5587560000000  0.4020100000000 1.0
C      1  0.5127580000000  0.5226520000000  0.3851130000000 1.0
C      1  0.5346340000000  0.5132140000000  0.4438200000000 1.0
C      1  0.4075950000000  0.4762650000000  0.5923070000000 1.0
C      1  0.4131060000000  0.5020230000000  0.5514320000000 1.0
C      1  0.5004140000000  0.4918940000000  0.5414520000000 1.0
C      1  0.4959460000000  0.5859970000000  0.5554740000000 1.0
C      1  0.5863700000000  0.5702290000000  0.4733280000000 1.0
C      1  0.5362610000000  0.5653650000000  0.5659020000000 1.0
C      1  0.4783770000000  0.5425580000000  0.5973960000000 1.0
C      1  0.4743580000000  0.5100740000000  0.6068020000000 1.0
C      1  0.4984970000000  0.4859400000000  0.6054190000000 1.0
C      1  0.5700590000000  0.5011250000000  0.5783610000000 1.0
C      1  0.4707370000000  0.5713720000000  0.3802930000000 1.0
C      1  0.5276440000000  0.5298270000000  0.5972570000000 1.0
C      1  0.6070960000000  0.5481440000000  0.4854750000000 1.0
C      1  0.4541640000000  0.4924160000000  0.4737220000000 1.0
C      1  0.5394100000000  0.5967640000000  0.4809600000000 1.0
C      1  0.4640720000000  0.5971280000000  0.4910080000000 1.0
C      1  0.5291800000000  0.4694830000000  0.4126730000000 1.0
C      1  0.5444070000000  0.4315910000000  0.5898880000000 1.0
C      1  0.4832500000000  0.4569050000000  0.6008080000000 1.0
C      1  0.5144340000000  0.5962060000000  0.5043640000000 1.0
C      1  0.4724730000000  0.4131300000000  0.4695080000000 1.0
C      1  0.4886850000000  0.4625230000000  0.4109300000000 1.0
C      1  0.4728120000000  0.4427650000000  0.5412150000000 1.0
C      1  0.4407850000000  0.4458580000000  0.5743940000000 1.0
C      1  0.5789760000000  0.5390890000000  0.5241820000000 1.0
C      1  0.4037840000000  0.5144130000000  0.4745850000000 1.0
C      1  0.5303120000000  0.4162140000000  0.5115240000000 1.0
C      1  0.4379090000000  0.5339370000000  0.5278990000000 1.0
C      1  0.4766360000000  0.4658320000000  0.5610320000000 1.0
C      1  0.5492480000000  0.4593210000000  0.5947770000000 1.0
C      1  0.5256230000000  0.4505340000000  0.4583480000000 1.0
C      1  0.5684750000000  0.5421900000000  0.4771060000000 1.0
C      1  0.5997720000000  0.4628280000000  0.4958350000000 1.0
C      1  0.4403760000000  0.4618560000000  0.5240620000000 1.0
C      1  0.5156810000000  0.5900340000000  0.5334600000000 1.0
C      1  0.5062120000000  0.5996830000000  0.4385700000000 1.0
C      1  0.4907070000000  0.3967500000000  0.5136850000000 1.0
C      1  0.4314730000000  0.5741540000000  0.5390240000000 1.0
END
