TITL C-2778435-5768-1479 -0.00549560197945484 125000 -545.967500299852 0 0 94 (C1) n - 1
REM
REM in /home/nfs/bkarasulu/CARBON/AIRSS/Generating-Clusters/REBO/Only-C1/SD-CG/HFTN-CG
REM
REM
REM
REM
REM
REM ./C.cell (11c1c37f851c82e70ff6c80c92926a4b)
REM
REM compiler GCC version 9.2.1 20190827 (Red Hat 9.2.1-1)
REM options -cpp -mtune=generic -march=x86-64 -g -O0 -fpre-include=/usr/include/finclude/math-vector-fortran.h
REM seed 770949609 235862144 -866427138 -1569587004 -1814307598 27906015 1349358248 -1507107339 -549047090 -649127765 1262027043 -681831676 -1916187717 1298065396 -1205756130 1410388812 -284557421 -968194614 493902012 -916389580 1893476862 -293731162 1419990161 1779606915 -2122312617 -84062156 2045414703 -413094942 -1177867715 1947362332 -891422016 733157182 -501110815
REM
CELL 1.54180   50.00000   50.00000   50.00000   90.00000   90.00000   90.00000
LATT -1
SFAC C  
C      1  0.5450670000000  0.4406900000000  0.5550210000000 1.0
C      1  0.4220430000000  0.4992960000000  0.5132080000000 1.0
C      1  0.5244110000000  0.5325170000000  0.5214590000000 1.0
C      1  0.4823950000000  0.5601260000000  0.5332640000000 1.0
C      1  0.4889820000000  0.5472920000000  0.5615120000000 1.0
C      1  0.4705290000000  0.4657700000000  0.5052790000000 1.0
C      1  0.5275770000000  0.4513890000000  0.5793550000000 1.0
C      1  0.5256890000000  0.5236990000000  0.4538550000000 1.0
C      1  0.5736060000000  0.5000790000000  0.5452020000000 1.0
C      1  0.5812830000000  0.4854580000000  0.4708680000000 1.0
C      1  0.4931970000000  0.5228490000000  0.5830550000000 1.0
C      1  0.4700200000000  0.4247620000000  0.4583350000000 1.0
C      1  0.4408500000000  0.4827980000000  0.4989110000000 1.0
C      1  0.5125750000000  0.4776880000000  0.4201660000000 1.0
C      1  0.5039210000000  0.5445950000000  0.4894890000000 1.0
C      1  0.4450260000000  0.4434210000000  0.5016920000000 1.0
C      1  0.5462020000000  0.4489050000000  0.4787340000000 1.0
C      1  0.5792600000000  0.5362870000000  0.4950910000000 1.0
C      1  0.5124440000000  0.4355140000000  0.5552500000000 1.0
C      1  0.5449530000000  0.4967990000000  0.5600560000000 1.0
C      1  0.4279230000000  0.5321240000000  0.5147490000000 1.0
C      1  0.5604990000000  0.4496160000000  0.5330450000000 1.0
C      1  0.4600310000000  0.5309510000000  0.5628330000000 1.0
C      1  0.5659480000000  0.5306130000000  0.5569190000000 1.0
C      1  0.4517580000000  0.4857000000000  0.5783120000000 1.0
C      1  0.5225010000000  0.4481570000000  0.4345910000000 1.0
C      1  0.4470610000000  0.4378500000000  0.4679600000000 1.0
C      1  0.5469810000000  0.4844640000000  0.5073410000000 1.0
C      1  0.4654550000000  0.4582120000000  0.5780360000000 1.0
C      1  0.4613190000000  0.5089980000000  0.4192700000000 1.0
C      1  0.5473500000000  0.4446400000000  0.5082930000000 1.0
C      1  0.5466870000000  0.4684830000000  0.4369060000000 1.0
C      1  0.4851090000000  0.4588440000000  0.4276130000000 1.0
C      1  0.5200770000000  0.4637860000000  0.5050100000000 1.0
C      1  0.5002790000000  0.4752610000000  0.5301600000000 1.0
C      1  0.4163210000000  0.5202430000000  0.4624220000000 1.0
C      1  0.4942520000000  0.4903250000000  0.5770290000000 1.0
C      1  0.5212170000000  0.5852070000000  0.5092330000000 1.0
C      1  0.4263770000000  0.4618970000000  0.4799970000000 1.0
C      1  0.4869660000000  0.4375720000000  0.5120700000000 1.0
C      1  0.4480740000000  0.4859390000000  0.5448610000000 1.0
C      1  0.4637160000000  0.5780380000000  0.5226750000000 1.0
C      1  0.5737680000000  0.5332480000000  0.4615910000000 1.0
C      1  0.4612390000000  0.5753010000000  0.4889890000000 1.0
C      1  0.4613970000000  0.5109970000000  0.5862550000000 1.0
C      1  0.5553280000000  0.5551260000000  0.4851070000000 1.0
C      1  0.4640640000000  0.5015700000000  0.4896880000000 1.0
C      1  0.5337370000000  0.5780170000000  0.4605200000000 1.0
C      1  0.5189290000000  0.5821550000000  0.5369300000000 1.0
C      1  0.4848420000000  0.5555830000000  0.4404490000000 1.0
C      1  0.4362780000000  0.4947410000000  0.4546460000000 1.0
C      1  0.5251850000000  0.5146380000000  0.5817760000000 1.0
C      1  0.5315950000000  0.5567370000000  0.5010640000000 1.0
C      1  0.4883160000000  0.4337100000000  0.5416750000000 1.0
C      1  0.4451470000000  0.4542730000000  0.5335330000000 1.0
C      1  0.5775670000000  0.4728360000000  0.5300390000000 1.0
C      1  0.4853330000000  0.4915120000000  0.4335090000000 1.0
C      1  0.5323920000000  0.5017890000000  0.4745750000000 1.0
C      1  0.4942420000000  0.4107010000000  0.4956370000000 1.0
C      1  0.4935810000000  0.5254260000000  0.4523180000000 1.0
C      1  0.5126800000000  0.5122420000000  0.4964390000000 1.0
C      1  0.4876060000000  0.5671950000000  0.4723880000000 1.0
C      1  0.4920030000000  0.4921420000000  0.5032390000000 1.0
C      1  0.5739760000000  0.5221080000000  0.5187650000000 1.0
C      1  0.4633510000000  0.4413130000000  0.5531180000000 1.0
C      1  0.5136170000000  0.5842940000000  0.4785870000000 1.0
C      1  0.5185680000000  0.5515910000000  0.5476660000000 1.0
C      1  0.5505410000000  0.4775220000000  0.4675680000000 1.0
C      1  0.5319170000000  0.4322690000000  0.4612670000000 1.0
C      1  0.4650520000000  0.5115040000000  0.4615490000000 1.0
C      1  0.4662820000000  0.5211840000000  0.5128380000000 1.0
C      1  0.4421920000000  0.5573630000000  0.4722160000000 1.0
C      1  0.4378260000000  0.5630380000000  0.5112600000000 1.0
C      1  0.4859270000000  0.5398860000000  0.5138950000000 1.0
C      1  0.4803980000000  0.4773910000000  0.5519370000000 1.0
C      1  0.4226030000000  0.5394810000000  0.4830420000000 1.0
C      1  0.5186630000000  0.5110230000000  0.4239670000000 1.0
C      1  0.5787780000000  0.4791420000000  0.4995980000000 1.0
C      1  0.4939250000000  0.4408850000000  0.4522150000000 1.0
C      1  0.5452450000000  0.5478360000000  0.4545030000000 1.0
C      1  0.5491880000000  0.4986040000000  0.4336310000000 1.0
C      1  0.4571890000000  0.5428750000000  0.4507330000000 1.0
C      1  0.5244180000000  0.4804720000000  0.5816640000000 1.0
C      1  0.4894830000000  0.5284360000000  0.4195530000000 1.0
C      1  0.4371350000000  0.5224220000000  0.4352160000000 1.0
C      1  0.5721680000000  0.5064610000000  0.4504940000000 1.0
C      1  0.5400870000000  0.5367810000000  0.5649100000000 1.0
C      1  0.5271440000000  0.4807320000000  0.5417740000000 1.0
C      1  0.5459430000000  0.5102230000000  0.5184170000000 1.0
C      1  0.4564090000000  0.4755970000000  0.4260300000000 1.0
C      1  0.4370490000000  0.4640590000000  0.4484740000000 1.0
C      1  0.4480900000000  0.5168040000000  0.5376950000000 1.0
C      1  0.5025880000000  0.4477090000000  0.4834320000000 1.0
C      1  0.5130900000000  0.4141990000000  0.4744920000000 1.0
END
