TITL C-2778433-5640-97 -0.000663478491769129 125000 -692.430556274515 0 0 119 (C1) n - 1
REM
REM in /home/nfs/bkarasulu/CARBON/AIRSS/Generating-Clusters/REBO/Only-C1/SD-CG/HFTN-CG
REM
REM
REM
REM
REM
REM ./C.cell (11c1c37f851c82e70ff6c80c92926a4b)
REM
REM compiler GCC version 9.2.1 20190827 (Red Hat 9.2.1-1)
REM options -cpp -mtune=generic -march=x86-64 -g -O0 -fpre-include=/usr/include/finclude/math-vector-fortran.h
REM seed -5873828 -431410156 1797988524 285674666 50933875 -617561769 -104164936 -817062019 220605534 971642748 -354367197 1022548666 -1030863288 -1082250952 -873930300 -2011820421 1702521156 -1263505497 1626123920 -761506054 707596148 -1957449500 1210854864 -1538139373 289288598 -1831187046 -1946507624 1143060243 1133893949 -1896435472 -1317199474 -748792121 -80125577
REM
CELL 1.54180   50.00000   50.00000   50.00000   90.00000   90.00000   90.00000
LATT -1
SFAC C  
C      1  0.4563740000000  0.5055640000000  0.4322140000000 1.0
C      1  0.4567990000000  0.5334810000000  0.5784760000000 1.0
C      1  0.5386140000000  0.5371710000000  0.4214230000000 1.0
C      1  0.5561580000000  0.5694660000000  0.5381220000000 1.0
C      1  0.4661130000000  0.4346740000000  0.5245730000000 1.0
C      1  0.5262610000000  0.5277380000000  0.4916740000000 1.0
C      1  0.4658100000000  0.5057320000000  0.4725960000000 1.0
C      1  0.5326970000000  0.5238240000000  0.5305700000000 1.0
C      1  0.4831980000000  0.5188980000000  0.4142300000000 1.0
C      1  0.4781350000000  0.5962840000000  0.4791580000000 1.0
C      1  0.4845370000000  0.4898330000000  0.4411870000000 1.0
C      1  0.5158150000000  0.4677260000000  0.4304680000000 1.0
C      1  0.4914910000000  0.4056710000000  0.4875630000000 1.0
C      1  0.5214040000000  0.5544220000000  0.5587840000000 1.0
C      1  0.4709110000000  0.4426070000000  0.4254990000000 1.0
C      1  0.4384490000000  0.4993190000000  0.4675190000000 1.0
C      1  0.4965610000000  0.4776350000000  0.5886590000000 1.0
C      1  0.5036840000000  0.5073470000000  0.4602150000000 1.0
C      1  0.5467330000000  0.5442400000000  0.5672750000000 1.0
C      1  0.5845790000000  0.5313620000000  0.5165340000000 1.0
C      1  0.4932500000000  0.5508290000000  0.5002740000000 1.0
C      1  0.4823930000000  0.4638620000000  0.5028930000000 1.0
C      1  0.4777360000000  0.5658990000000  0.4735010000000 1.0
C      1  0.4755250000000  0.5263870000000  0.5439380000000 1.0
C      1  0.4393660000000  0.4641750000000  0.5760420000000 1.0
C      1  0.5140560000000  0.4751310000000  0.4636690000000 1.0
C      1  0.4282260000000  0.4636150000000  0.4913380000000 1.0
C      1  0.5014880000000  0.4405540000000  0.4276760000000 1.0
C      1  0.4974730000000  0.4884890000000  0.4106850000000 1.0
C      1  0.5001130000000  0.5480070000000  0.5773790000000 1.0
C      1  0.5524480000000  0.4410330000000  0.4597610000000 1.0
C      1  0.4101550000000  0.5213610000000  0.5151090000000 1.0
C      1  0.4857610000000  0.4128090000000  0.4609690000000 1.0
C      1  0.4568200000000  0.4451750000000  0.4931130000000 1.0
C      1  0.4878230000000  0.5886150000000  0.5247310000000 1.0
C      1  0.4823280000000  0.4717440000000  0.3890300000000 1.0
C      1  0.4858250000000  0.5627190000000  0.4417880000000 1.0
C      1  0.5061130000000  0.6023690000000  0.4866070000000 1.0
C      1  0.5199180000000  0.4941480000000  0.5995790000000 1.0
C      1  0.5872220000000  0.5079990000000  0.4573140000000 1.0
C      1  0.5410890000000  0.4322540000000  0.5098460000000 1.0
C      1  0.5769740000000  0.4592280000000  0.5271760000000 1.0
C      1  0.5045460000000  0.4509250000000  0.5690010000000 1.0
C      1  0.4309870000000  0.4623410000000  0.5431250000000 1.0
C      1  0.4076660000000  0.4930590000000  0.5297360000000 1.0
C      1  0.5545840000000  0.5123680000000  0.5752310000000 1.0
C      1  0.5029680000000  0.4484850000000  0.4807850000000 1.0
C      1  0.4765220000000  0.5258560000000  0.5127070000000 1.0
C      1  0.4471300000000  0.5599590000000  0.4954710000000 1.0
C      1  0.4665060000000  0.5437970000000  0.4285980000000 1.0
C      1  0.5472210000000  0.5744180000000  0.4615380000000 1.0
C      1  0.4639950000000  0.4813400000000  0.5901100000000 1.0
C      1  0.4266930000000  0.5385920000000  0.5332510000000 1.0
C      1  0.5633980000000  0.5285900000000  0.4526060000000 1.0
C      1  0.4711490000000  0.4560090000000  0.5676490000000 1.0
C      1  0.4287020000000  0.4481460000000  0.5210300000000 1.0
C      1  0.5346980000000  0.5570070000000  0.5214050000000 1.0
C      1  0.5055920000000  0.5434350000000  0.4216310000000 1.0
C      1  0.5453760000000  0.4767580000000  0.4277200000000 1.0
C      1  0.5331100000000  0.5159420000000  0.4542340000000 1.0
C      1  0.4526090000000  0.4135880000000  0.4832750000000 1.0
C      1  0.4719850000000  0.6034950000000  0.5072720000000 1.0
C      1  0.4363150000000  0.4559720000000  0.4608460000000 1.0
C      1  0.5245650000000  0.5547730000000  0.4475170000000 1.0
C      1  0.4812150000000  0.5323120000000  0.4669240000000 1.0
C      1  0.4976300000000  0.5515730000000  0.5343670000000 1.0
C      1  0.5031290000000  0.5095570000000  0.5028340000000 1.0
C      1  0.4315330000000  0.4926580000000  0.5594450000000 1.0
C      1  0.5346260000000  0.5907410000000  0.4827050000000 1.0
C      1  0.5019630000000  0.5171640000000  0.5865120000000 1.0
C      1  0.4396200000000  0.4164940000000  0.5148600000000 1.0
C      1  0.5305710000000  0.4743420000000  0.4935150000000 1.0
C      1  0.4436140000000  0.5598890000000  0.5245750000000 1.0
C      1  0.5125340000000  0.4645380000000  0.5161260000000 1.0
C      1  0.4689800000000  0.5679220000000  0.5418430000000 1.0
C      1  0.4210660000000  0.4968040000000  0.4931740000000 1.0
C      1  0.4613730000000  0.4890800000000  0.5426530000000 1.0
C      1  0.5425000000000  0.5028820000000  0.5048730000000 1.0
C      1  0.4421220000000  0.5387070000000  0.4730600000000 1.0
C      1  0.4570220000000  0.4297060000000  0.4539260000000 1.0
C      1  0.5919050000000  0.4775990000000  0.5407240000000 1.0
C      1  0.5139140000000  0.4246310000000  0.5010770000000 1.0
C      1  0.4428000000000  0.5225020000000  0.5535380000000 1.0
C      1  0.5753390000000  0.5476370000000  0.5449900000000 1.0
C      1  0.5490030000000  0.4461330000000  0.5381930000000 1.0
C      1  0.5550800000000  0.5407160000000  0.5021020000000 1.0
C      1  0.4479180000000  0.5245240000000  0.5026860000000 1.0
C      1  0.4686370000000  0.3983280000000  0.5095010000000 1.0
C      1  0.4625930000000  0.4675530000000  0.4428210000000 1.0
C      1  0.5074500000000  0.5176060000000  0.5524890000000 1.0
C      1  0.4325820000000  0.4826010000000  0.4398940000000 1.0
C      1  0.5354980000000  0.4199340000000  0.4528650000000 1.0
C      1  0.5453380000000  0.5050270000000  0.4262120000000 1.0
C      1  0.4735130000000  0.5554180000000  0.5713010000000 1.0
C      1  0.5430790000000  0.4884530000000  0.5835950000000 1.0
C      1  0.4927760000000  0.4174770000000  0.5254510000000 1.0
C      1  0.5770650000000  0.4663460000000  0.4970850000000 1.0
C      1  0.4885850000000  0.4907680000000  0.5582960000000 1.0
C      1  0.5628900000000  0.4633490000000  0.4455060000000 1.0
C      1  0.5178290000000  0.5803780000000  0.5107340000000 1.0
C      1  0.5667740000000  0.5527700000000  0.4744260000000 1.0
C      1  0.4809070000000  0.4921820000000  0.4916690000000 1.0
C      1  0.4684710000000  0.4515550000000  0.3958190000000 1.0
C      1  0.5150970000000  0.4395930000000  0.5391180000000 1.0
C      1  0.5083830000000  0.4201870000000  0.4453670000000 1.0
C      1  0.4461430000000  0.5327940000000  0.4471040000000 1.0
C      1  0.5793120000000  0.4790650000000  0.4654670000000 1.0
C      1  0.4728290000000  0.4614610000000  0.5362080000000 1.0
C      1  0.5610980000000  0.5167360000000  0.5448770000000 1.0
C      1  0.5141810000000  0.4793970000000  0.5429430000000 1.0
C      1  0.5617030000000  0.5578370000000  0.4354640000000 1.0
C      1  0.4409790000000  0.4974260000000  0.5209910000000 1.0
C      1  0.5114190000000  0.5447890000000  0.4719470000000 1.0
C      1  0.5351890000000  0.4652050000000  0.5626090000000 1.0
C      1  0.4714310000000  0.5120200000000  0.5915340000000 1.0
C      1  0.5879730000000  0.5278870000000  0.4840280000000 1.0
C      1  0.5883230000000  0.5035670000000  0.5349720000000 1.0
C      1  0.5718590000000  0.4992430000000  0.4929210000000 1.0
C      1  0.5518900000000  0.4506840000000  0.4881870000000 1.0
END
