TITL C-2778433-5640-324 -0.00101933274083212 125000 -433.909081964339 0 0 75 (C1) n - 1
REM
REM in /home/nfs/bkarasulu/CARBON/AIRSS/Generating-Clusters/REBO/Only-C1/SD-CG/HFTN-CG
REM
REM
REM
REM
REM
REM ./C.cell (11c1c37f851c82e70ff6c80c92926a4b)
REM
REM compiler GCC version 9.2.1 20190827 (Red Hat 9.2.1-1)
REM options -cpp -mtune=generic -march=x86-64 -g -O0 -fpre-include=/usr/include/finclude/math-vector-fortran.h
REM seed -1144128051 -103466011 -1869926870 450928617 -859721412 357481439 514949462 933443915 1404230238 -2068059614 882733474 -459267660 -974975360 93044100 1576960531 -1670787806 1933571353 1336586337 675376783 -399855138 -2061399818 1957494542 -1665475750 -716673950 1291193012 -2142607318 -1280435682 1888798753 1814913087 457581279 -2069693326 1362329926 49908213
REM
CELL 1.54180   50.00000   50.00000   50.00000   90.00000   90.00000   90.00000
LATT -1
SFAC C  
C      1  0.5322480000000  0.4790910000000  0.4366570000000 1.0
C      1  0.4200830000000  0.4466540000000  0.4994660000000 1.0
C      1  0.5350630000000  0.5033910000000  0.5605040000000 1.0
C      1  0.5390380000000  0.4767750000000  0.5486520000000 1.0
C      1  0.5469030000000  0.5082000000000  0.4464570000000 1.0
C      1  0.5404150000000  0.5306930000000  0.4320340000000 1.0
C      1  0.4975260000000  0.4246380000000  0.4713730000000 1.0
C      1  0.5043690000000  0.4944230000000  0.4423280000000 1.0
C      1  0.5552670000000  0.5777160000000  0.5258660000000 1.0
C      1  0.5393660000000  0.5234220000000  0.4946800000000 1.0
C      1  0.4293280000000  0.5141460000000  0.5315550000000 1.0
C      1  0.4564150000000  0.4814000000000  0.5058600000000 1.0
C      1  0.5846670000000  0.4982940000000  0.4865270000000 1.0
C      1  0.4594310000000  0.5120920000000  0.4539610000000 1.0
C      1  0.4409930000000  0.4546390000000  0.5202950000000 1.0
C      1  0.5389060000000  0.5062400000000  0.5208800000000 1.0
C      1  0.4750840000000  0.4409090000000  0.4628720000000 1.0
C      1  0.5137720000000  0.5367810000000  0.4236410000000 1.0
C      1  0.4336160000000  0.4979620000000  0.5553480000000 1.0
C      1  0.5076270000000  0.5109130000000  0.5595280000000 1.0
C      1  0.4517710000000  0.5369710000000  0.5298540000000 1.0
C      1  0.4828750000000  0.4606070000000  0.4421560000000 1.0
C      1  0.4878070000000  0.5590100000000  0.4962390000000 1.0
C      1  0.4632480000000  0.4430870000000  0.5436030000000 1.0
C      1  0.5180360000000  0.5489270000000  0.5032480000000 1.0
C      1  0.4184300000000  0.4582550000000  0.4770890000000 1.0
C      1  0.4604700000000  0.5136290000000  0.5065490000000 1.0
C      1  0.5246100000000  0.5818880000000  0.4816920000000 1.0
C      1  0.5183470000000  0.4567480000000  0.5476370000000 1.0
C      1  0.5272050000000  0.5868850000000  0.5118130000000 1.0
C      1  0.5454050000000  0.4477750000000  0.5056150000000 1.0
C      1  0.5197930000000  0.4333900000000  0.4546380000000 1.0
C      1  0.4387950000000  0.4658140000000  0.5519940000000 1.0
C      1  0.4983620000000  0.5559360000000  0.4407700000000 1.0
C      1  0.5092170000000  0.4981340000000  0.5182650000000 1.0
C      1  0.5113220000000  0.4553820000000  0.4378020000000 1.0
C      1  0.4861150000000  0.4363000000000  0.5238880000000 1.0
C      1  0.4875230000000  0.4590690000000  0.5598370000000 1.0
C      1  0.5203460000000  0.4372790000000  0.5225720000000 1.0
C      1  0.5008320000000  0.5022980000000  0.4694160000000 1.0
C      1  0.3939260000000  0.4976930000000  0.5010900000000 1.0
C      1  0.4677560000000  0.5595940000000  0.5146360000000 1.0
C      1  0.5409520000000  0.5758070000000  0.5560360000000 1.0
C      1  0.5517550000000  0.5238640000000  0.5458480000000 1.0
C      1  0.5585550000000  0.4802610000000  0.5248440000000 1.0
C      1  0.4405250000000  0.4795120000000  0.4665630000000 1.0
C      1  0.4403390000000  0.5083460000000  0.4811640000000 1.0
C      1  0.6077180000000  0.5055670000000  0.4741380000000 1.0
C      1  0.5443560000000  0.4399090000000  0.4723670000000 1.0
C      1  0.4735390000000  0.4835100000000  0.5787800000000 1.0
C      1  0.5568230000000  0.5061130000000  0.4750350000000 1.0
C      1  0.5026310000000  0.4197200000000  0.4991760000000 1.0
C      1  0.4876520000000  0.5211120000000  0.5235970000000 1.0
C      1  0.5178910000000  0.4560510000000  0.4874020000000 1.0
C      1  0.4645680000000  0.4820330000000  0.5366220000000 1.0
C      1  0.5592490000000  0.4708550000000  0.4520560000000 1.0
C      1  0.4578310000000  0.4565640000000  0.4834310000000 1.0
C      1  0.4649610000000  0.4831900000000  0.4435950000000 1.0
C      1  0.5017930000000  0.5413610000000  0.5470030000000 1.0
C      1  0.4986040000000  0.5126840000000  0.4212570000000 1.0
C      1  0.4718250000000  0.5277010000000  0.5538480000000 1.0
C      1  0.5166350000000  0.5744730000000  0.4599240000000 1.0
C      1  0.4862900000000  0.4560180000000  0.4981180000000 1.0
C      1  0.5199310000000  0.5610890000000  0.5334850000000 1.0
C      1  0.4934750000000  0.4878320000000  0.5445260000000 1.0
C      1  0.4193220000000  0.5075930000000  0.5058320000000 1.0
C      1  0.5027040000000  0.4837090000000  0.4928220000000 1.0
C      1  0.4589240000000  0.5049450000000  0.5689160000000 1.0
C      1  0.4727440000000  0.5355550000000  0.4508290000000 1.0
C      1  0.5824520000000  0.4827720000000  0.5103740000000 1.0
C      1  0.5574970000000  0.5503360000000  0.5435290000000 1.0
C      1  0.5172720000000  0.6119310000000  0.5198200000000 1.0
C      1  0.4812340000000  0.5588560000000  0.4697450000000 1.0
C      1  0.5567010000000  0.4702600000000  0.4825690000000 1.0
C      1  0.5109470000000  0.5274250000000  0.4778630000000 1.0
END
