TITL C-2778425-5191-826 -0.00108291704422703 125000 -746.687243622976 0 0 127 (C1) n - 1
REM
REM in /home/nfs/bkarasulu/CARBON/AIRSS/Generating-Clusters/REBO/Only-C1/SD-CG/HFTN-CG
REM
REM
REM
REM
REM
REM ./C.cell (11c1c37f851c82e70ff6c80c92926a4b)
REM
REM compiler GCC version 9.2.1 20190827 (Red Hat 9.2.1-1)
REM options -cpp -mtune=generic -march=x86-64 -g -O0 -fpre-include=/usr/include/finclude/math-vector-fortran.h
REM seed -1024513284 1685897991 -402316785 -489979071 1860647051 516750225 -1005905035 2110042902 1376950981 -305887788 -177120250 -554385021 1834908762 -1996862831 648045702 1633250215 -1993910113 -1699936930 2064705252 -37968212 -471853788 -2118785291 -1253223419 1333090769 1997231809 -846001140 1338096609 -477486990 660478703 -354002486 1363929191 1324976300 1252895362
REM
CELL 1.54180   50.00000   50.00000   50.00000   90.00000   90.00000   90.00000
LATT -1
SFAC C  
C      1  0.5626290000000  0.4521330000000  0.4558290000000 1.0
C      1  0.4930530000000  0.5161890000000  0.5272110000000 1.0
C      1  0.5224580000000  0.4942240000000  0.4144600000000 1.0
C      1  0.4539590000000  0.5091940000000  0.5777290000000 1.0
C      1  0.4235040000000  0.5333700000000  0.5306980000000 1.0
C      1  0.5503120000000  0.5108140000000  0.5096360000000 1.0
C      1  0.5501890000000  0.5452740000000  0.5602740000000 1.0
C      1  0.4256740000000  0.5260520000000  0.4672880000000 1.0
C      1  0.4809470000000  0.4385400000000  0.4797210000000 1.0
C      1  0.5196410000000  0.4297340000000  0.4353530000000 1.0
C      1  0.4833440000000  0.3800930000000  0.4743650000000 1.0
C      1  0.4777440000000  0.4786260000000  0.5677740000000 1.0
C      1  0.4878060000000  0.6020450000000  0.5158540000000 1.0
C      1  0.4787460000000  0.4637210000000  0.4308940000000 1.0
C      1  0.4410240000000  0.5733790000000  0.4958690000000 1.0
C      1  0.5206410000000  0.5040340000000  0.5638210000000 1.0
C      1  0.5249600000000  0.5804720000000  0.5343250000000 1.0
C      1  0.5045800000000  0.5807790000000  0.5546550000000 1.0
C      1  0.5028920000000  0.4993660000000  0.5003920000000 1.0
C      1  0.4985620000000  0.4034410000000  0.4722610000000 1.0
C      1  0.5683720000000  0.4502250000000  0.4861720000000 1.0
C      1  0.4784960000000  0.5349310000000  0.5596570000000 1.0
C      1  0.4854270000000  0.5227570000000  0.4532500000000 1.0
C      1  0.5030540000000  0.4610490000000  0.5819120000000 1.0
C      1  0.4436600000000  0.4782760000000  0.5675760000000 1.0
C      1  0.5909110000000  0.5276300000000  0.4994200000000 1.0
C      1  0.4851940000000  0.5299600000000  0.4140540000000 1.0
C      1  0.4718850000000  0.5352330000000  0.5141890000000 1.0
C      1  0.4702250000000  0.4360070000000  0.4396980000000 1.0
C      1  0.5739140000000  0.5522390000000  0.5383410000000 1.0
C      1  0.4588800000000  0.5495290000000  0.4220620000000 1.0
C      1  0.5355890000000  0.4426840000000  0.5471570000000 1.0
C      1  0.5310170000000  0.4164650000000  0.4143670000000 1.0
C      1  0.4680220000000  0.4186640000000  0.4930640000000 1.0
C      1  0.4588140000000  0.5639000000000  0.4589120000000 1.0
C      1  0.4900750000000  0.4000260000000  0.5449150000000 1.0
C      1  0.5659560000000  0.5335650000000  0.4375160000000 1.0
C      1  0.5585460000000  0.4599310000000  0.5539580000000 1.0
C      1  0.5504820000000  0.5867890000000  0.4660130000000 1.0
C      1  0.4511770000000  0.4645010000000  0.5101640000000 1.0
C      1  0.5919020000000  0.5002880000000  0.4903910000000 1.0
C      1  0.4833560000000  0.4513930000000  0.5485340000000 1.0
C      1  0.5313160000000  0.4832860000000  0.4376230000000 1.0
C      1  0.5854540000000  0.4746980000000  0.4984110000000 1.0
C      1  0.4594840000000  0.4816110000000  0.4201380000000 1.0
C      1  0.5451560000000  0.4876860000000  0.4873620000000 1.0
C      1  0.5067640000000  0.5121420000000  0.4015310000000 1.0
C      1  0.5603630000000  0.4368200000000  0.5167050000000 1.0
C      1  0.5037930000000  0.4526110000000  0.4681910000000 1.0
C      1  0.5339290000000  0.4544860000000  0.4466690000000 1.0
C      1  0.4945900000000  0.4198080000000  0.4473020000000 1.0
C      1  0.5917550000000  0.5032930000000  0.5405520000000 1.0
C      1  0.4129430000000  0.4497700000000  0.4711610000000 1.0
C      1  0.4686890000000  0.5934330000000  0.4956390000000 1.0
C      1  0.5153920000000  0.4095990000000  0.5545690000000 1.0
C      1  0.5318050000000  0.5378090000000  0.5818500000000 1.0
C      1  0.5157110000000  0.5312900000000  0.5458770000000 1.0
C      1  0.5073650000000  0.5281250000000  0.5927410000000 1.0
C      1  0.5131230000000  0.4368550000000  0.5708420000000 1.0
C      1  0.5360960000000  0.4154560000000  0.5280080000000 1.0
C      1  0.4806190000000  0.5795510000000  0.4736940000000 1.0
C      1  0.5071650000000  0.5681570000000  0.4649930000000 1.0
C      1  0.4443310000000  0.4543270000000  0.4809730000000 1.0
C      1  0.4806240000000  0.5933180000000  0.5437300000000 1.0
C      1  0.4056810000000  0.4845960000000  0.5070640000000 1.0
C      1  0.5415080000000  0.5307270000000  0.4608850000000 1.0
C      1  0.4421750000000  0.4394470000000  0.5288850000000 1.0
C      1  0.4195970000000  0.4986230000000  0.4618430000000 1.0
C      1  0.4893450000000  0.5041320000000  0.5580810000000 1.0
C      1  0.5168010000000  0.4747480000000  0.5119490000000 1.0
C      1  0.5714050000000  0.5476210000000  0.4891060000000 1.0
C      1  0.4393770000000  0.4467230000000  0.4493580000000 1.0
C      1  0.4949170000000  0.4745000000000  0.4514280000000 1.0
C      1  0.4245250000000  0.5136260000000  0.5598250000000 1.0
C      1  0.4418540000000  0.4202010000000  0.5023460000000 1.0
C      1  0.4664220000000  0.5352630000000  0.4749100000000 1.0
C      1  0.5807570000000  0.4724600000000  0.5314140000000 1.0
C      1  0.4590380000000  0.4932150000000  0.4582130000000 1.0
C      1  0.4230740000000  0.4838850000000  0.5430580000000 1.0
C      1  0.4339600000000  0.4788130000000  0.4390650000000 1.0
C      1  0.5251260000000  0.5903640000000  0.4494380000000 1.0
C      1  0.5238750000000  0.4807260000000  0.5865840000000 1.0
C      1  0.5333990000000  0.5021250000000  0.4628120000000 1.0
C      1  0.5170400000000  0.5972510000000  0.5113380000000 1.0
C      1  0.5865000000000  0.4879500000000  0.4275660000000 1.0
C      1  0.4267080000000  0.5424110000000  0.4974430000000 1.0
C      1  0.4491020000000  0.5180340000000  0.4986890000000 1.0
C      1  0.5272420000000  0.4584770000000  0.4857120000000 1.0
C      1  0.5503760000000  0.4696210000000  0.5161010000000 1.0
C      1  0.5174880000000  0.4102630000000  0.4997480000000 1.0
C      1  0.4063400000000  0.5094580000000  0.5173420000000 1.0
C      1  0.4073790000000  0.4801740000000  0.4795090000000 1.0
C      1  0.4992390000000  0.5490450000000  0.4379710000000 1.0
C      1  0.5096850000000  0.4573040000000  0.5359460000000 1.0
C      1  0.5017160000000  0.5004550000000  0.4660270000000 1.0
C      1  0.4436200000000  0.4943990000000  0.5174720000000 1.0
C      1  0.4874970000000  0.4064310000000  0.5130130000000 1.0
C      1  0.5349290000000  0.5518050000000  0.5304200000000 1.0
C      1  0.4646720000000  0.5111720000000  0.4302340000000 1.0
C      1  0.4589310000000  0.5614300000000  0.5171700000000 1.0
C      1  0.5795990000000  0.5140440000000  0.4262020000000 1.0
C      1  0.5004050000000  0.5544390000000  0.5635190000000 1.0
C      1  0.5540490000000  0.4723300000000  0.5845270000000 1.0
C      1  0.5760910000000  0.5812630000000  0.4881320000000 1.0
C      1  0.4531070000000  0.4480780000000  0.5644560000000 1.0
C      1  0.4592210000000  0.4829750000000  0.4824650000000 1.0
C      1  0.5017890000000  0.5818020000000  0.4282330000000 1.0
C      1  0.4716350000000  0.5767450000000  0.4300420000000 1.0
C      1  0.4489920000000  0.5434230000000  0.5510470000000 1.0
C      1  0.5625840000000  0.5575320000000  0.4593100000000 1.0
C      1  0.4390510000000  0.5405890000000  0.4465310000000 1.0
C      1  0.5479250000000  0.4915770000000  0.5568130000000 1.0
C      1  0.4588240000000  0.5747360000000  0.5436460000000 1.0
C      1  0.5207370000000  0.5458940000000  0.4813240000000 1.0
C      1  0.5611500000000  0.5067950000000  0.5358390000000 1.0
C      1  0.5455370000000  0.5911370000000  0.4996150000000 1.0
C      1  0.4531360000000  0.5098860000000  0.5431590000000 1.0
C      1  0.5920980000000  0.5308110000000  0.5281160000000 1.0
C      1  0.5810490000000  0.4644110000000  0.4397600000000 1.0
C      1  0.5669130000000  0.5730670000000  0.5196100000000 1.0
C      1  0.4697720000000  0.4246740000000  0.5366430000000 1.0
C      1  0.4142530000000  0.4585180000000  0.5243300000000 1.0
C      1  0.4815550000000  0.5172380000000  0.5949840000000 1.0
C      1  0.5399810000000  0.4312990000000  0.4917560000000 1.0
C      1  0.4151330000000  0.4352120000000  0.5000380000000 1.0
C      1  0.5437230000000  0.5410690000000  0.5029570000000 1.0
C      1  0.4963070000000  0.5313270000000  0.4906930000000 1.0
END
