TITL C-2778431-5191-1126 0.000314315838868154 125000 -773.034900159648 0 0 134 (C1) n - 1
REM
REM in /home/nfs/bkarasulu/CARBON/AIRSS/Generating-Clusters/REBO/Only-C1/SD-CG/HFTN-CG
REM
REM
REM
REM
REM
REM ./C.cell (11c1c37f851c82e70ff6c80c92926a4b)
REM
REM compiler GCC version 9.2.1 20190827 (Red Hat 9.2.1-1)
REM options -cpp -mtune=generic -march=x86-64 -g -O0 -fpre-include=/usr/include/finclude/math-vector-fortran.h
REM seed 487482736 1274574679 816709872 2137512828 -1305756207 1260896205 1218410326 -34074145 -160600068 -1204568633 -71711212 -538679167 1770891841 -1949636127 1867700272 -27607701 -857732784 -692000754 -1710420546 -1684561627 -2132994375 400147891 -1088970343 1290042707 233190843 -542046182 -982270309 1318861121 1015621232 1654825179 496488902 -336673185 -882760253
REM
CELL 1.54180   50.00000   50.00000   50.00000   90.00000   90.00000   90.00000
LATT -1
SFAC C  
C      1  0.4599660000000  0.5515980000000  0.4593120000000 1.0
C      1  0.4987990000000  0.4619060000000  0.5600390000000 1.0
C      1  0.5127130000000  0.5698780000000  0.5404550000000 1.0
C      1  0.5219360000000  0.5915290000000  0.4659220000000 1.0
C      1  0.5244630000000  0.5101270000000  0.5752890000000 1.0
C      1  0.6089240000000  0.4755250000000  0.5121950000000 1.0
C      1  0.5637350000000  0.4748850000000  0.4181090000000 1.0
C      1  0.4948630000000  0.5967490000000  0.5429760000000 1.0
C      1  0.4254850000000  0.5281480000000  0.5371410000000 1.0
C      1  0.4665640000000  0.4626040000000  0.4441300000000 1.0
C      1  0.4911490000000  0.4138260000000  0.5239520000000 1.0
C      1  0.4943530000000  0.4898500000000  0.4795450000000 1.0
C      1  0.4375710000000  0.5369020000000  0.5646230000000 1.0
C      1  0.5318410000000  0.4996250000000  0.4703890000000 1.0
C      1  0.4718590000000  0.4351360000000  0.5221390000000 1.0
C      1  0.5392700000000  0.4747830000000  0.5224550000000 1.0
C      1  0.4396860000000  0.4827750000000  0.5713090000000 1.0
C      1  0.5596100000000  0.5690820000000  0.4330550000000 1.0
C      1  0.5626770000000  0.4909000000000  0.5380020000000 1.0
C      1  0.5449790000000  0.4272100000000  0.5228190000000 1.0
C      1  0.4122890000000  0.4708550000000  0.4662480000000 1.0
C      1  0.5764560000000  0.5045960000000  0.4861990000000 1.0
C      1  0.4266100000000  0.4637770000000  0.5029140000000 1.0
C      1  0.4657830000000  0.4450390000000  0.5750440000000 1.0
C      1  0.6081790000000  0.5097640000000  0.5098630000000 1.0
C      1  0.5044350000000  0.4928420000000  0.5567560000000 1.0
C      1  0.4749350000000  0.4909010000000  0.5298430000000 1.0
C      1  0.5157600000000  0.4553940000000  0.5873910000000 1.0
C      1  0.5195950000000  0.4519840000000  0.4904310000000 1.0
C      1  0.5483140000000  0.5252150000000  0.4666450000000 1.0
C      1  0.3994710000000  0.5063400000000  0.5114410000000 1.0
C      1  0.5051960000000  0.5330700000000  0.5267540000000 1.0
C      1  0.4596240000000  0.4703480000000  0.5881820000000 1.0
C      1  0.4398870000000  0.5778090000000  0.4985950000000 1.0
C      1  0.4966480000000  0.4086220000000  0.5515980000000 1.0
C      1  0.5030770000000  0.5576490000000  0.4210280000000 1.0
C      1  0.5127080000000  0.4766270000000  0.4535380000000 1.0
C      1  0.4898220000000  0.4352390000000  0.4864880000000 1.0
C      1  0.4245410000000  0.4821940000000  0.4372500000000 1.0
C      1  0.5599670000000  0.4548530000000  0.5597860000000 1.0
C      1  0.4859840000000  0.5220540000000  0.4866520000000 1.0
C      1  0.5645660000000  0.4522900000000  0.5277970000000 1.0
C      1  0.5109040000000  0.5072860000000  0.4114200000000 1.0
C      1  0.5340020000000  0.4441440000000  0.5663260000000 1.0
C      1  0.4596820000000  0.4243610000000  0.4789750000000 1.0
C      1  0.6065960000000  0.5184550000000  0.4781620000000 1.0
C      1  0.5260730000000  0.5262740000000  0.4299080000000 1.0
C      1  0.5011710000000  0.4832690000000  0.4222410000000 1.0
C      1  0.5361830000000  0.4165810000000  0.4985930000000 1.0
C      1  0.4937720000000  0.5690630000000  0.5141800000000 1.0
C      1  0.5686960000000  0.4844900000000  0.4669530000000 1.0
C      1  0.4268780000000  0.5220650000000  0.4699070000000 1.0
C      1  0.5270460000000  0.5438210000000  0.5050530000000 1.0
C      1  0.4910290000000  0.4299520000000  0.5695350000000 1.0
C      1  0.5640470000000  0.4816990000000  0.5695440000000 1.0
C      1  0.4255000000000  0.5530890000000  0.5172960000000 1.0
C      1  0.4701580000000  0.5963350000000  0.5389840000000 1.0
C      1  0.5229610000000  0.4365920000000  0.5406830000000 1.0
C      1  0.4360220000000  0.4954000000000  0.4999340000000 1.0
C      1  0.4801010000000  0.4843770000000  0.6033960000000 1.0
C      1  0.4930020000000  0.5831450000000  0.4921980000000 1.0
C      1  0.4936490000000  0.5482150000000  0.5550500000000 1.0
C      1  0.4691020000000  0.4926830000000  0.4572920000000 1.0
C      1  0.5761390000000  0.4907470000000  0.4363930000000 1.0
C      1  0.5346210000000  0.5450130000000  0.5703200000000 1.0
C      1  0.4928950000000  0.5296970000000  0.4043350000000 1.0
C      1  0.4644920000000  0.5788790000000  0.4756210000000 1.0
C      1  0.4516740000000  0.5069870000000  0.5582830000000 1.0
C      1  0.4886690000000  0.5977860000000  0.4619550000000 1.0
C      1  0.5807080000000  0.4920740000000  0.5153680000000 1.0
C      1  0.4759330000000  0.5420340000000  0.5124720000000 1.0
C      1  0.4481590000000  0.4692300000000  0.4164880000000 1.0
C      1  0.4733280000000  0.5218860000000  0.4487790000000 1.0
C      1  0.4016010000000  0.4831060000000  0.4934240000000 1.0
C      1  0.5838160000000  0.5417760000000  0.4738640000000 1.0
C      1  0.4489600000000  0.5741130000000  0.5304940000000 1.0
C      1  0.4313240000000  0.4250290000000  0.4978340000000 1.0
C      1  0.4242660000000  0.4428800000000  0.5260910000000 1.0
C      1  0.5035960000000  0.4686980000000  0.6090410000000 1.0
C      1  0.5787850000000  0.4412240000000  0.4836470000000 1.0
C      1  0.5483050000000  0.4301530000000  0.4733920000000 1.0
C      1  0.5057540000000  0.5362260000000  0.5823590000000 1.0
C      1  0.4743310000000  0.4622590000000  0.5399880000000 1.0
C      1  0.4341190000000  0.5534450000000  0.4783530000000 1.0
C      1  0.5419080000000  0.4552620000000  0.4248310000000 1.0
C      1  0.4443610000000  0.4809020000000  0.4717400000000 1.0
C      1  0.5756060000000  0.5205070000000  0.4480700000000 1.0
C      1  0.5425700000000  0.4692230000000  0.4790990000000 1.0
C      1  0.5710950000000  0.5176150000000  0.5537150000000 1.0
C      1  0.4810060000000  0.5080060000000  0.5689190000000 1.0
C      1  0.5135130000000  0.4454620000000  0.4263560000000 1.0
C      1  0.4117160000000  0.5289800000000  0.4996640000000 1.0
C      1  0.5454230000000  0.5799200000000  0.4798800000000 1.0
C      1  0.4443200000000  0.5226540000000  0.4212500000000 1.0
C      1  0.5592750000000  0.5977000000000  0.5052600000000 1.0
C      1  0.5091690000000  0.5449670000000  0.4785310000000 1.0
C      1  0.4791260000000  0.4735760000000  0.4081080000000 1.0
C      1  0.4532920000000  0.5282800000000  0.4910320000000 1.0
C      1  0.4300720000000  0.5113910000000  0.4415040000000 1.0
C      1  0.5340140000000  0.5567170000000  0.4156070000000 1.0
C      1  0.4201130000000  0.4694180000000  0.5479120000000 1.0
C      1  0.4234290000000  0.4391290000000  0.4711160000000 1.0
C      1  0.5584120000000  0.4552810000000  0.4525580000000 1.0
C      1  0.5432950000000  0.5599190000000  0.5424360000000 1.0
C      1  0.5690790000000  0.5496080000000  0.5289770000000 1.0
C      1  0.4461750000000  0.4476140000000  0.5499080000000 1.0
C      1  0.4095860000000  0.4984170000000  0.5382690000000 1.0
C      1  0.4659780000000  0.5363000000000  0.5812310000000 1.0
C      1  0.4837380000000  0.4660180000000  0.4998050000000 1.0
C      1  0.5208150000000  0.4436700000000  0.4580640000000 1.0
C      1  0.5573540000000  0.5359520000000  0.4292280000000 1.0
C      1  0.5204860000000  0.4930910000000  0.5020090000000 1.0
C      1  0.4473550000000  0.5056270000000  0.5249990000000 1.0
C      1  0.4367050000000  0.4486250000000  0.4447130000000 1.0
C      1  0.4738550000000  0.5513310000000  0.4314340000000 1.0
C      1  0.5866610000000  0.4534760000000  0.5071310000000 1.0
C      1  0.4620700000000  0.5582070000000  0.5553910000000 1.0
C      1  0.4852790000000  0.3909710000000  0.4487500000000 1.0
C      1  0.5050430000000  0.5277450000000  0.4519610000000 1.0
C      1  0.5046480000000  0.5032140000000  0.5269120000000 1.0
C      1  0.4859440000000  0.4401030000000  0.4392670000000 1.0
C      1  0.4555870000000  0.4555700000000  0.4891490000000 1.0
C      1  0.5867590000000  0.5364300000000  0.5075970000000 1.0
C      1  0.5548960000000  0.5285450000000  0.4980990000000 1.0
C      1  0.5476970000000  0.4957200000000  0.5860400000000 1.0
C      1  0.5639150000000  0.5366770000000  0.5676110000000 1.0
C      1  0.4848480000000  0.5168690000000  0.6011760000000 1.0
C      1  0.5093150000000  0.4585750000000  0.5210790000000 1.0
C      1  0.5406930000000  0.5720720000000  0.5120390000000 1.0
C      1  0.5580030000000  0.5582250000000  0.4634590000000 1.0
C      1  0.4648640000000  0.5245780000000  0.4033330000000 1.0
C      1  0.5026900000000  0.5674140000000  0.4536320000000 1.0
C      1  0.4775080000000  0.4170490000000  0.4531730000000 1.0
C      1  0.5083930000000  0.4123680000000  0.4995480000000 1.0
END
