TITL C-2778436-5916-664 -0.00175177493054687 125000 -505.176371597964 0 0 86 (C1) n - 1
REM
REM in /home/nfs/bkarasulu/CARBON/AIRSS/Generating-Clusters/REBO/Only-C1/SD-CG/HFTN-CG
REM
REM
REM
REM
REM
REM ./C.cell (11c1c37f851c82e70ff6c80c92926a4b)
REM
REM compiler GCC version 9.2.1 20190827 (Red Hat 9.2.1-1)
REM options -cpp -mtune=generic -march=x86-64 -g -O0 -fpre-include=/usr/include/finclude/math-vector-fortran.h
REM seed 1320552123 -253441875 15290366 -1208970164 -2098559350 30785110 -1167437242 1926552896 -955803831 1000862154 920370630 1492931104 -342976539 1484734678 -1036819446 -621529121 755006171 905478485 760946446 -443393259 -2081337098 -150971025 364971545 -1426824838 -2096494093 6311893 -2136999290 -548936859 -1502715930 1736543126 746140777 -292238951 -1167387588
REM
CELL 1.54180   50.00000   50.00000   50.00000   90.00000   90.00000   90.00000
LATT -1
SFAC C  
C      1  0.4757790000000  0.4538340000000  0.4631870000000 1.0
C      1  0.5428620000000  0.4723720000000  0.4765000000000 1.0
C      1  0.5177420000000  0.5481970000000  0.5707780000000 1.0
C      1  0.5292460000000  0.4957250000000  0.4303760000000 1.0
C      1  0.5050800000000  0.5196760000000  0.5459790000000 1.0
C      1  0.4865720000000  0.5891640000000  0.5093640000000 1.0
C      1  0.5473500000000  0.5196760000000  0.4323990000000 1.0
C      1  0.5762360000000  0.4735110000000  0.4569300000000 1.0
C      1  0.5315500000000  0.5030400000000  0.5212880000000 1.0
C      1  0.4105040000000  0.5081100000000  0.4657840000000 1.0
C      1  0.4645930000000  0.5078280000000  0.5766450000000 1.0
C      1  0.4912270000000  0.5526320000000  0.5633700000000 1.0
C      1  0.5320760000000  0.5093530000000  0.4677780000000 1.0
C      1  0.5080250000000  0.4868420000000  0.5851570000000 1.0
C      1  0.4252280000000  0.4957800000000  0.4471170000000 1.0
C      1  0.4434670000000  0.4812490000000  0.4913730000000 1.0
C      1  0.5105980000000  0.5488140000000  0.5289560000000 1.0
C      1  0.4513680000000  0.4749130000000  0.4397630000000 1.0
C      1  0.4120870000000  0.5234060000000  0.4883500000000 1.0
C      1  0.4882480000000  0.5462050000000  0.4397310000000 1.0
C      1  0.4913890000000  0.4291020000000  0.4739650000000 1.0
C      1  0.4458010000000  0.5267480000000  0.5658210000000 1.0
C      1  0.5628750000000  0.5356670000000  0.5064420000000 1.0
C      1  0.4315270000000  0.4685570000000  0.5178520000000 1.0
C      1  0.5246980000000  0.4557710000000  0.5473940000000 1.0
C      1  0.4750910000000  0.5338320000000  0.5395600000000 1.0
C      1  0.5402540000000  0.5346420000000  0.5592880000000 1.0
C      1  0.5084300000000  0.5388410000000  0.4989270000000 1.0
C      1  0.4878030000000  0.5129150000000  0.4989260000000 1.0
C      1  0.5141780000000  0.4339010000000  0.5276410000000 1.0
C      1  0.4343330000000  0.4454700000000  0.4958490000000 1.0
C      1  0.5401180000000  0.5458460000000  0.4387560000000 1.0
C      1  0.4674960000000  0.4078070000000  0.5141710000000 1.0
C      1  0.4839500000000  0.4677900000000  0.4330800000000 1.0
C      1  0.4889340000000  0.4793150000000  0.4756090000000 1.0
C      1  0.5323900000000  0.4732440000000  0.4485640000000 1.0
C      1  0.4658730000000  0.5677280000000  0.4949540000000 1.0
C      1  0.5729390000000  0.5053150000000  0.5127940000000 1.0
C      1  0.4452210000000  0.4587480000000  0.4679810000000 1.0
C      1  0.5132250000000  0.5589730000000  0.4430030000000 1.0
C      1  0.5246100000000  0.4263200000000  0.4960120000000 1.0
C      1  0.4786530000000  0.4644190000000  0.5562040000000 1.0
C      1  0.4996570000000  0.5038960000000  0.4590190000000 1.0
C      1  0.4696490000000  0.5508590000000  0.4655440000000 1.0
C      1  0.4695650000000  0.5190010000000  0.4642560000000 1.0
C      1  0.5261410000000  0.4581600000000  0.4984490000000 1.0
C      1  0.4429800000000  0.4748310000000  0.5417040000000 1.0
C      1  0.4815630000000  0.4749160000000  0.5282010000000 1.0
C      1  0.5441210000000  0.5619890000000  0.4679890000000 1.0
C      1  0.4937390000000  0.5100050000000  0.5752780000000 1.0
C      1  0.5127510000000  0.4536210000000  0.4417950000000 1.0
C      1  0.5614890000000  0.5000870000000  0.4533200000000 1.0
C      1  0.5610080000000  0.5119730000000  0.5620940000000 1.0
C      1  0.5661370000000  0.4945810000000  0.5394470000000 1.0
C      1  0.5164430000000  0.5808280000000  0.4686450000000 1.0
C      1  0.4994380000000  0.4733470000000  0.5045330000000 1.0
C      1  0.5357700000000  0.5340360000000  0.4855760000000 1.0
C      1  0.4369800000000  0.5222540000000  0.5384970000000 1.0
C      1  0.4372620000000  0.5273270000000  0.5063130000000 1.0
C      1  0.4564830000000  0.4805320000000  0.5701270000000 1.0
C      1  0.5709680000000  0.4868350000000  0.4895340000000 1.0
C      1  0.4863110000000  0.5718990000000  0.5358120000000 1.0
C      1  0.5544330000000  0.5657630000000  0.4999680000000 1.0
C      1  0.5425920000000  0.4255090000000  0.4685040000000 1.0
C      1  0.5546600000000  0.4579630000000  0.5118830000000 1.0
C      1  0.5038580000000  0.4627970000000  0.5700230000000 1.0
C      1  0.5148090000000  0.4302550000000  0.4574890000000 1.0
C      1  0.4640890000000  0.5017070000000  0.5371410000000 1.0
C      1  0.5661970000000  0.4419690000000  0.4651600000000 1.0
C      1  0.4568360000000  0.5077610000000  0.4920190000000 1.0
C      1  0.5135160000000  0.5912210000000  0.4995570000000 1.0
C      1  0.4540530000000  0.5671170000000  0.5454490000000 1.0
C      1  0.5436340000000  0.5266130000000  0.5293650000000 1.0
C      1  0.4929240000000  0.4196040000000  0.5049750000000 1.0
C      1  0.4677750000000  0.3857700000000  0.5308130000000 1.0
C      1  0.5303560000000  0.5731710000000  0.5152140000000 1.0
C      1  0.5529880000000  0.4691890000000  0.5378600000000 1.0
C      1  0.4553600000000  0.5508050000000  0.5177460000000 1.0
C      1  0.4537750000000  0.5084600000000  0.4383430000000 1.0
C      1  0.5173050000000  0.4998190000000  0.4948930000000 1.0
C      1  0.5183590000000  0.4884280000000  0.5432700000000 1.0
C      1  0.4799660000000  0.5223230000000  0.4259060000000 1.0
C      1  0.4449440000000  0.4202080000000  0.5050570000000 1.0
C      1  0.4985240000000  0.4967860000000  0.4257130000000 1.0
C      1  0.4953280000000  0.5602500000000  0.4824580000000 1.0
C      1  0.5756350000000  0.4542560000000  0.4914420000000 1.0
END
