TITL C-2778422-5617-1373 -0.000436748356193606 125000 -392.591887941723 0 0 69 (C1) n - 1
REM
REM in /home/nfs/bkarasulu/CARBON/AIRSS/Generating-Clusters/REBO/Only-C1/SD-CG/HFTN-CG
REM
REM
REM
REM
REM
REM ./C.cell (11c1c37f851c82e70ff6c80c92926a4b)
REM
REM compiler GCC version 9.2.1 20190827 (Red Hat 9.2.1-1)
REM options -cpp -mtune=generic -march=x86-64 -g -O0 -fpre-include=/usr/include/finclude/math-vector-fortran.h
REM seed 1992755653 1973130889 -596731087 -1481248257 594863414 -1845623401 -732405694 1445795806 -226296798 1608662639 1620650907 779062489 -1144966943 2056842129 -612241298 -1697851346 -1838195826 -883825132 412307994 1779811369 942086697 887691913 -185051488 -425715776 1772440298 758882067 520357522 -1644462989 -2104964844 -1561976549 1398426410 -1692243951 -1009492597
REM
CELL 1.54180   50.00000   50.00000   50.00000   90.00000   90.00000   90.00000
LATT -1
SFAC C  
C      1  0.4579260000000  0.5004850000000  0.5267030000000 1.0
C      1  0.5131620000000  0.4844330000000  0.5739890000000 1.0
C      1  0.4858880000000  0.4957690000000  0.5422670000000 1.0
C      1  0.4934950000000  0.4665360000000  0.5684740000000 1.0
C      1  0.5039770000000  0.4506610000000  0.5310370000000 1.0
C      1  0.4308160000000  0.4716890000000  0.4717650000000 1.0
C      1  0.5238510000000  0.5019250000000  0.4134770000000 1.0
C      1  0.4727500000000  0.5549950000000  0.4513280000000 1.0
C      1  0.4613260000000  0.4366950000000  0.4909850000000 1.0
C      1  0.5244320000000  0.4226870000000  0.5280710000000 1.0
C      1  0.4510670000000  0.5403740000000  0.4610700000000 1.0
C      1  0.5000590000000  0.4887260000000  0.4235100000000 1.0
C      1  0.5206530000000  0.5102100000000  0.5155280000000 1.0
C      1  0.5268050000000  0.4404950000000  0.5545650000000 1.0
C      1  0.4727710000000  0.5000460000000  0.4693270000000 1.0
C      1  0.4928820000000  0.4346900000000  0.4463510000000 1.0
C      1  0.5214550000000  0.4396010000000  0.4593240000000 1.0
C      1  0.5110940000000  0.4840180000000  0.5319760000000 1.0
C      1  0.5194020000000  0.5116210000000  0.5707360000000 1.0
C      1  0.5696080000000  0.4788620000000  0.5379510000000 1.0
C      1  0.4639540000000  0.5622370000000  0.5121960000000 1.0
C      1  0.4486630000000  0.5399120000000  0.4920250000000 1.0
C      1  0.5241880000000  0.5143310000000  0.3892870000000 1.0
C      1  0.5013990000000  0.5439050000000  0.4597700000000 1.0
C      1  0.4332650000000  0.5181420000000  0.5328430000000 1.0
C      1  0.4362270000000  0.4516790000000  0.4945620000000 1.0
C      1  0.5171970000000  0.5642750000000  0.5116150000000 1.0
C      1  0.4700150000000  0.4373110000000  0.4616180000000 1.0
C      1  0.5631540000000  0.4922400000000  0.4588670000000 1.0
C      1  0.5387900000000  0.5151820000000  0.4613790000000 1.0
C      1  0.5076290000000  0.4637710000000  0.4390550000000 1.0
C      1  0.4457680000000  0.5620450000000  0.5695730000000 1.0
C      1  0.4890530000000  0.4646920000000  0.4843940000000 1.0
C      1  0.4241570000000  0.4938970000000  0.4563830000000 1.0
C      1  0.4497910000000  0.5116030000000  0.4484580000000 1.0
C      1  0.5476800000000  0.5384470000000  0.4782210000000 1.0
C      1  0.4864040000000  0.5527850000000  0.4891740000000 1.0
C      1  0.5399570000000  0.4672280000000  0.5278890000000 1.0
C      1  0.5401930000000  0.4787390000000  0.4778300000000 1.0
C      1  0.5450640000000  0.5021410000000  0.4996160000000 1.0
C      1  0.4239890000000  0.5277210000000  0.5081980000000 1.0
C      1  0.5382350000000  0.5227950000000  0.5491080000000 1.0
C      1  0.5870660000000  0.4797710000000  0.5118570000000 1.0
C      1  0.5627650000000  0.5303680000000  0.5265860000000 1.0
C      1  0.5634880000000  0.5375920000000  0.5001340000000 1.0
C      1  0.4390520000000  0.5382950000000  0.5505430000000 1.0
C      1  0.5457350000000  0.5025670000000  0.4314330000000 1.0
C      1  0.4983260000000  0.5217280000000  0.4965340000000 1.0
C      1  0.4925640000000  0.5439740000000  0.5500090000000 1.0
C      1  0.5249080000000  0.5570230000000  0.4792530000000 1.0
C      1  0.4665020000000  0.5132170000000  0.4992920000000 1.0
C      1  0.4756240000000  0.5001630000000  0.4294770000000 1.0
C      1  0.4702470000000  0.4614250000000  0.5554690000000 1.0
C      1  0.5525480000000  0.4568090000000  0.5574750000000 1.0
C      1  0.5749120000000  0.4926840000000  0.4909000000000 1.0
C      1  0.4975810000000  0.5299470000000  0.5730760000000 1.0
C      1  0.4847060000000  0.4469160000000  0.5083350000000 1.0
C      1  0.5165900000000  0.5408310000000  0.5300130000000 1.0
C      1  0.4317510000000  0.4585080000000  0.5217770000000 1.0
C      1  0.5041320000000  0.5821850000000  0.4847590000000 1.0
C      1  0.4889860000000  0.5832980000000  0.5144170000000 1.0
C      1  0.4520260000000  0.4713670000000  0.5366170000000 1.0
C      1  0.5351210000000  0.4489470000000  0.4817320000000 1.0
C      1  0.4658060000000  0.5553540000000  0.5424940000000 1.0
C      1  0.5360620000000  0.4429670000000  0.5084790000000 1.0
C      1  0.4616630000000  0.4693560000000  0.4681760000000 1.0
C      1  0.5110320000000  0.4776460000000  0.4677550000000 1.0
C      1  0.5673690000000  0.5070810000000  0.5478340000000 1.0
C      1  0.5052440000000  0.5103820000000  0.4650760000000 1.0
END
