TITL C-2778435-5768-1397 0.0157598157929159 125000 -266.995558326498 0 0 47 (C1) n - 1
REM
REM in /home/nfs/bkarasulu/CARBON/AIRSS/Generating-Clusters/REBO/Only-C1/SD-CG/HFTN-CG
REM
REM
REM
REM
REM
REM ./C.cell (11c1c37f851c82e70ff6c80c92926a4b)
REM
REM compiler GCC version 9.2.1 20190827 (Red Hat 9.2.1-1)
REM options -cpp -mtune=generic -march=x86-64 -g -O0 -fpre-include=/usr/include/finclude/math-vector-fortran.h
REM seed 676357517 348850241 503712200 -561130606 1386653077 2078673774 1394621247 -349471231 1735710307 928012934 200421656 -546843589 2087705099 952572209 -1054956863 -1851793826 1524468708 -1184547129 -82274241 -1910812803 -801982770 1937851072 1688118880 969486581 1025480866 -1899115311 -266741426 298754879 2020801494 121732349 -314996664 963648021 -301673202
REM
CELL 1.54180   50.00000   50.00000   50.00000   90.00000   90.00000   90.00000
LATT -1
SFAC C  
C      1  0.5274090000000  0.4671830000000  0.5309300000000 1.0
C      1  0.4285790000000  0.4362310000000  0.5049200000000 1.0
C      1  0.5144420000000  0.5752960000000  0.5075140000000 1.0
C      1  0.4257010000000  0.4870700000000  0.5229130000000 1.0
C      1  0.5410730000000  0.5390170000000  0.4654140000000 1.0
C      1  0.5004870000000  0.5541430000000  0.5142070000000 1.0
C      1  0.5636260000000  0.5466970000000  0.4486530000000 1.0
C      1  0.4551000000000  0.5070840000000  0.4879990000000 1.0
C      1  0.4691460000000  0.5051860000000  0.4409940000000 1.0
C      1  0.5377220000000  0.5153310000000  0.5151460000000 1.0
C      1  0.5389260000000  0.5478950000000  0.5233140000000 1.0
C      1  0.5089840000000  0.4239060000000  0.5150290000000 1.0
C      1  0.4849890000000  0.5318260000000  0.5204760000000 1.0
C      1  0.5517490000000  0.5373050000000  0.4949050000000 1.0
C      1  0.4959290000000  0.4314350000000  0.4780790000000 1.0
C      1  0.4997390000000  0.4908950000000  0.4947400000000 1.0
C      1  0.4579370000000  0.4920540000000  0.4632720000000 1.0
C      1  0.5383130000000  0.5930500000000  0.5391380000000 1.0
C      1  0.5874050000000  0.5487920000000  0.4634810000000 1.0
C      1  0.5026830000000  0.4509470000000  0.5181840000000 1.0
C      1  0.5128860000000  0.5318400000000  0.5729750000000 1.0
C      1  0.4884680000000  0.4627790000000  0.4906710000000 1.0
C      1  0.4716060000000  0.5082260000000  0.4104780000000 1.0
C      1  0.5326810000000  0.5665910000000  0.5420300000000 1.0
C      1  0.4959120000000  0.5235260000000  0.4380290000000 1.0
C      1  0.4450380000000  0.4232050000000  0.4874210000000 1.0
C      1  0.4714740000000  0.5287390000000  0.5449970000000 1.0
C      1  0.4291130000000  0.5061300000000  0.5008840000000 1.0
C      1  0.5165580000000  0.5318290000000  0.4546530000000 1.0
C      1  0.4227070000000  0.4597560000000  0.5168020000000 1.0
C      1  0.5223270000000  0.4208060000000  0.4880560000000 1.0
C      1  0.5161250000000  0.5080470000000  0.5604180000000 1.0
C      1  0.4080730000000  0.5207540000000  0.4916610000000 1.0
C      1  0.4515560000000  0.5146560000000  0.5567730000000 1.0
C      1  0.4806600000000  0.5110530000000  0.5006840000000 1.0
C      1  0.4626010000000  0.4646190000000  0.4681260000000 1.0
C      1  0.4664300000000  0.4348820000000  0.4728600000000 1.0
C      1  0.5256750000000  0.4965450000000  0.5381650000000 1.0
C      1  0.5446220000000  0.4396550000000  0.4855370000000 1.0
C      1  0.5407310000000  0.4639930000000  0.5000000000000 1.0
C      1  0.5825600000000  0.5433520000000  0.4905010000000 1.0
C      1  0.4328140000000  0.4967910000000  0.5484760000000 1.0
C      1  0.5270770000000  0.4909440000000  0.4987560000000 1.0
C      1  0.5407210000000  0.4521740000000  0.5508700000000 1.0
C      1  0.4956550000000  0.5260270000000  0.4057130000000 1.0
C      1  0.5661640000000  0.4346740000000  0.4697690000000 1.0
C      1  0.5198290000000  0.5570650000000  0.5653880000000 1.0
END
