TITL C-2778430-5657-82 -0.0051519087770398 125000 -1006.31610221509 0 0 175 (C1) n - 1
REM
REM in /home/nfs/bkarasulu/CARBON/AIRSS/Generating-Clusters/REBO/Only-C1/SD-CG/HFTN-CG
REM
REM
REM
REM
REM
REM ./C.cell (11c1c37f851c82e70ff6c80c92926a4b)
REM
REM compiler GCC version 9.2.1 20190827 (Red Hat 9.2.1-1)
REM options -cpp -mtune=generic -march=x86-64 -g -O0 -fpre-include=/usr/include/finclude/math-vector-fortran.h
REM seed 1454468227 -351115848 -2111327340 1607698359 -388559992 1007194064 1454560209 1835816461 530465639 -542866300 129530564 54099291 -1722684919 -1098632602 -1167133927 85987374 168939504 90814089 507116078 1007728990 440554517 -31347440 1204961572 -1823915296 1386227921 -1249103828 925180354 -2091200374 342276231 -264420624 1350717889 -597852025 2028162147
REM
CELL 1.54180   50.00000   50.00000   50.00000   90.00000   90.00000   90.00000
LATT -1
SFAC C  
C      1  0.5403670000000  0.5384080000000  0.5218550000000 1.0
C      1  0.4719820000000  0.4158350000000  0.4509160000000 1.0
C      1  0.4412880000000  0.5874380000000  0.5097930000000 1.0
C      1  0.4643540000000  0.5919070000000  0.5248860000000 1.0
C      1  0.4195580000000  0.5168450000000  0.5731240000000 1.0
C      1  0.4918570000000  0.4748250000000  0.5643950000000 1.0
C      1  0.4936380000000  0.4622950000000  0.3983630000000 1.0
C      1  0.5076870000000  0.5745980000000  0.4930860000000 1.0
C      1  0.6008750000000  0.5060300000000  0.5187240000000 1.0
C      1  0.4690830000000  0.5329420000000  0.5135700000000 1.0
C      1  0.4586100000000  0.5206220000000  0.4206770000000 1.0
C      1  0.5214190000000  0.4080370000000  0.5663280000000 1.0
C      1  0.4880840000000  0.5307940000000  0.4080270000000 1.0
C      1  0.5637700000000  0.4430830000000  0.5635570000000 1.0
C      1  0.5080680000000  0.4558240000000  0.4368890000000 1.0
C      1  0.5946190000000  0.5375730000000  0.4606970000000 1.0
C      1  0.4994270000000  0.4957760000000  0.5385770000000 1.0
C      1  0.4604050000000  0.5457200000000  0.5412320000000 1.0
C      1  0.4837100000000  0.4898790000000  0.4943990000000 1.0
C      1  0.4111090000000  0.4550480000000  0.4739100000000 1.0
C      1  0.4602230000000  0.4551860000000  0.4850340000000 1.0
C      1  0.5677270000000  0.5271150000000  0.4464480000000 1.0
C      1  0.4901920000000  0.5381950000000  0.4627910000000 1.0
C      1  0.4024050000000  0.4807190000000  0.5161960000000 1.0
C      1  0.3886520000000  0.5019280000000  0.4741210000000 1.0
C      1  0.4881130000000  0.6029820000000  0.4748100000000 1.0
C      1  0.5465020000000  0.5397700000000  0.4884320000000 1.0
C      1  0.4281740000000  0.4929580000000  0.5434590000000 1.0
C      1  0.5853040000000  0.4694870000000  0.5604870000000 1.0
C      1  0.5569660000000  0.4643800000000  0.4147480000000 1.0
C      1  0.5656150000000  0.5163680000000  0.4780090000000 1.0
C      1  0.4883410000000  0.4454900000000  0.5743760000000 1.0
C      1  0.5385300000000  0.4836770000000  0.4594140000000 1.0
C      1  0.4940960000000  0.5784340000000  0.5617730000000 1.0
C      1  0.6068010000000  0.4836250000000  0.5048830000000 1.0
C      1  0.5931250000000  0.4312250000000  0.5175450000000 1.0
C      1  0.4804630000000  0.5204540000000  0.5520130000000 1.0
C      1  0.5185280000000  0.4000490000000  0.5160260000000 1.0
C      1  0.3940680000000  0.5535500000000  0.4994280000000 1.0
C      1  0.4257330000000  0.4373060000000  0.4937560000000 1.0
C      1  0.5143650000000  0.4730290000000  0.6009060000000 1.0
C      1  0.5133100000000  0.4403140000000  0.5921200000000 1.0
C      1  0.4442680000000  0.4825770000000  0.4496920000000 1.0
C      1  0.4398780000000  0.4323750000000  0.5764290000000 1.0
C      1  0.5060010000000  0.4465610000000  0.5385970000000 1.0
C      1  0.4587070000000  0.4460520000000  0.4428540000000 1.0
C      1  0.4800570000000  0.4723880000000  0.6025040000000 1.0
C      1  0.4801360000000  0.3958660000000  0.4956940000000 1.0
C      1  0.4710300000000  0.5253690000000  0.5934840000000 1.0
C      1  0.3932160000000  0.5083220000000  0.5319490000000 1.0
C      1  0.5404080000000  0.4385920000000  0.4525620000000 1.0
C      1  0.5923720000000  0.4684140000000  0.4654820000000 1.0
C      1  0.4512290000000  0.4236460000000  0.4750000000000 1.0
C      1  0.4549540000000  0.5029520000000  0.6083690000000 1.0
C      1  0.5487530000000  0.4532560000000  0.4826190000000 1.0
C      1  0.5390760000000  0.5894670000000  0.5364320000000 1.0
C      1  0.5680470000000  0.4126070000000  0.5031270000000 1.0
C      1  0.5888580000000  0.5485420000000  0.4860520000000 1.0
C      1  0.4639420000000  0.5919610000000  0.4637780000000 1.0
C      1  0.4227280000000  0.5132100000000  0.4365320000000 1.0
C      1  0.4277420000000  0.4565540000000  0.4500860000000 1.0
C      1  0.4447900000000  0.4120600000000  0.5066040000000 1.0
C      1  0.4627100000000  0.5019350000000  0.5108210000000 1.0
C      1  0.4996670000000  0.5192540000000  0.5063750000000 1.0
C      1  0.4625780000000  0.4722760000000  0.4009280000000 1.0
C      1  0.5464970000000  0.4786520000000  0.5607930000000 1.0
C      1  0.5222350000000  0.4065050000000  0.4666540000000 1.0
C      1  0.4703580000000  0.4344600000000  0.5079930000000 1.0
C      1  0.5200730000000  0.5738990000000  0.4060170000000 1.0
C      1  0.6013570000000  0.4542110000000  0.4940240000000 1.0
C      1  0.5522740000000  0.4684320000000  0.5325090000000 1.0
C      1  0.4457830000000  0.5938620000000  0.6031100000000 1.0
C      1  0.3945320000000  0.4761910000000  0.4855860000000 1.0
C      1  0.4075770000000  0.5268640000000  0.5478440000000 1.0
C      1  0.5935560000000  0.4988400000000  0.4704000000000 1.0
C      1  0.4636990000000  0.4848220000000  0.5576320000000 1.0
C      1  0.5139060000000  0.5673240000000  0.5871100000000 1.0
C      1  0.5817980000000  0.4721550000000  0.4333360000000 1.0
C      1  0.4594270000000  0.5496950000000  0.4536170000000 1.0
C      1  0.5544620000000  0.5765180000000  0.4381040000000 1.0
C      1  0.5451790000000  0.4912250000000  0.5125940000000 1.0
C      1  0.5870560000000  0.5479550000000  0.5351810000000 1.0
C      1  0.4452200000000  0.4772400000000  0.4794090000000 1.0
C      1  0.4820820000000  0.4835850000000  0.4257220000000 1.0
C      1  0.6152200000000  0.5158250000000  0.4605630000000 1.0
C      1  0.5146690000000  0.5778290000000  0.4345950000000 1.0
C      1  0.5677760000000  0.5002670000000  0.4284340000000 1.0
C      1  0.5531580000000  0.5672660000000  0.5166040000000 1.0
C      1  0.5665010000000  0.4227240000000  0.5362730000000 1.0
C      1  0.5289050000000  0.5105130000000  0.5320850000000 1.0
C      1  0.5035120000000  0.4713060000000  0.5151720000000 1.0
C      1  0.4691480000000  0.5740360000000  0.5463040000000 1.0
C      1  0.5365320000000  0.4263810000000  0.5230900000000 1.0
C      1  0.5040600000000  0.5514380000000  0.5170070000000 1.0
C      1  0.5402470000000  0.4578760000000  0.5840420000000 1.0
C      1  0.5042990000000  0.4163610000000  0.4389670000000 1.0
C      1  0.4465200000000  0.4778020000000  0.5939220000000 1.0
C      1  0.4834420000000  0.4241690000000  0.5525430000000 1.0
C      1  0.4270760000000  0.5451440000000  0.4435140000000 1.0
C      1  0.4926990000000  0.5568160000000  0.4295420000000 1.0
C      1  0.5075670000000  0.5816320000000  0.5323170000000 1.0
C      1  0.5762790000000  0.4359000000000  0.4820730000000 1.0
C      1  0.5241800000000  0.5428230000000  0.4628970000000 1.0
C      1  0.4427940000000  0.4498660000000  0.5205460000000 1.0
C      1  0.5578580000000  0.5285000000000  0.5760790000000 1.0
C      1  0.5712360000000  0.4975430000000  0.5732420000000 1.0
C      1  0.5948880000000  0.5007650000000  0.5496720000000 1.0
C      1  0.4239000000000  0.5592960000000  0.5078480000000 1.0
C      1  0.5312420000000  0.4573380000000  0.3958500000000 1.0
C      1  0.5583790000000  0.4854620000000  0.4833710000000 1.0
C      1  0.4634100000000  0.5750340000000  0.5975160000000 1.0
C      1  0.5455120000000  0.5492170000000  0.4371730000000 1.0
C      1  0.4348300000000  0.5161330000000  0.4691120000000 1.0
C      1  0.5192860000000  0.5110040000000  0.4594050000000 1.0
C      1  0.5126870000000  0.5545570000000  0.3875090000000 1.0
C      1  0.4229980000000  0.4828340000000  0.5738840000000 1.0
C      1  0.4521880000000  0.5121840000000  0.5695960000000 1.0
C      1  0.5608190000000  0.6100410000000  0.4878540000000 1.0
C      1  0.5217830000000  0.4985580000000  0.4923160000000 1.0
C      1  0.4827870000000  0.4674210000000  0.4541370000000 1.0
C      1  0.5822400000000  0.4587490000000  0.5302540000000 1.0
C      1  0.3996350000000  0.5275320000000  0.4542570000000 1.0
C      1  0.5636640000000  0.5685770000000  0.4862500000000 1.0
C      1  0.4606330000000  0.5086510000000  0.4482120000000 1.0
C      1  0.5325890000000  0.4325240000000  0.5546820000000 1.0
C      1  0.4887160000000  0.5000590000000  0.5871690000000 1.0
C      1  0.5333150000000  0.5718760000000  0.5612310000000 1.0
C      1  0.5642810000000  0.5156890000000  0.4021010000000 1.0
C      1  0.4907540000000  0.5996810000000  0.5086830000000 1.0
C      1  0.4389870000000  0.4832760000000  0.3954820000000 1.0
C      1  0.4119130000000  0.4653780000000  0.5456800000000 1.0
C      1  0.5294510000000  0.5371230000000  0.5897920000000 1.0
C      1  0.5172990000000  0.5886070000000  0.4641550000000 1.0
C      1  0.4520320000000  0.4777690000000  0.5286250000000 1.0
C      1  0.5351580000000  0.5116660000000  0.4291620000000 1.0
C      1  0.5128170000000  0.4390810000000  0.4727370000000 1.0
C      1  0.4910290000000  0.4129500000000  0.4763080000000 1.0
C      1  0.5407830000000  0.5344620000000  0.4068320000000 1.0
C      1  0.5334300000000  0.4722980000000  0.4326870000000 1.0
C      1  0.5716740000000  0.4454100000000  0.4509670000000 1.0
C      1  0.5134140000000  0.5205750000000  0.3918940000000 1.0
C      1  0.4626270000000  0.5530180000000  0.4139950000000 1.0
C      1  0.5341370000000  0.5076630000000  0.5633670000000 1.0
C      1  0.4532740000000  0.4161310000000  0.5390270000000 1.0
C      1  0.4836060000000  0.5534630000000  0.5911080000000 1.0
C      1  0.4332500000000  0.5060880000000  0.4084060000000 1.0
C      1  0.5495160000000  0.5900770000000  0.4660130000000 1.0
C      1  0.5017420000000  0.5339010000000  0.5693490000000 1.0
C      1  0.4282790000000  0.6125580000000  0.6086640000000 1.0
C      1  0.4867110000000  0.5056880000000  0.4645360000000 1.0
C      1  0.5187770000000  0.5054880000000  0.5917590000000 1.0
C      1  0.4974320000000  0.4258270000000  0.5155760000000 1.0
C      1  0.4297830000000  0.4373290000000  0.5485960000000 1.0
C      1  0.4597360000000  0.4483190000000  0.5892760000000 1.0
C      1  0.5406260000000  0.4003750000000  0.4926830000000 1.0
C      1  0.5260220000000  0.5454740000000  0.5509920000000 1.0
C      1  0.5592810000000  0.6008920000000  0.5135720000000 1.0
C      1  0.4329610000000  0.5119810000000  0.5209190000000 1.0
C      1  0.4268450000000  0.4973400000000  0.4942240000000 1.0
C      1  0.5152140000000  0.4866430000000  0.3875240000000 1.0
C      1  0.4309910000000  0.5413860000000  0.5306800000000 1.0
C      1  0.4771140000000  0.3971010000000  0.5244940000000 1.0
C      1  0.5025280000000  0.3965830000000  0.5458560000000 1.0
C      1  0.3866410000000  0.5332420000000  0.4835190000000 1.0
C      1  0.4457280000000  0.5799290000000  0.4815850000000 1.0
C      1  0.5321300000000  0.4537070000000  0.5092260000000 1.0
C      1  0.4637610000000  0.5780210000000  0.4367860000000 1.0
C      1  0.4834470000000  0.5516720000000  0.4898880000000 1.0
C      1  0.5275750000000  0.4344720000000  0.4211730000000 1.0
C      1  0.4382450000000  0.5475510000000  0.4799680000000 1.0
C      1  0.4846760000000  0.4390930000000  0.4217130000000 1.0
C      1  0.5943560000000  0.5341030000000  0.5107200000000 1.0
C      1  0.5108070000000  0.4717840000000  0.4733900000000 1.0
C      1  0.5114190000000  0.4914480000000  0.4190100000000 1.0
C      1  0.5832020000000  0.5314650000000  0.5568060000000 1.0
END
