TITL C-2778431-5191-157 0.00765365123402196 125000 -1103.64990101868 0 0 190 (C1) n - 1
REM
REM in /home/nfs/bkarasulu/CARBON/AIRSS/Generating-Clusters/REBO/Only-C1/SD-CG/HFTN-CG
REM
REM
REM
REM
REM
REM ./C.cell (11c1c37f851c82e70ff6c80c92926a4b)
REM
REM compiler GCC version 9.2.1 20190827 (Red Hat 9.2.1-1)
REM options -cpp -mtune=generic -march=x86-64 -g -O0 -fpre-include=/usr/include/finclude/math-vector-fortran.h
REM seed -30050394 -1388835553 -829011675 39874573 1195492861 1572399661 -895612108 777706931 1159284701 618358447 404001935 -1366714176 194356955 1170326613 -1803211656 1827441674 -2146540433 1797125229 -292305556 1186095856 -2023968475 -50101517 -80362996 -131516941 -1147600565 650521612 -816840686 1827149604 1259948647 928758329 1578884453 -303466585 294003352
REM
CELL 1.54180   50.00000   50.00000   50.00000   90.00000   90.00000   90.00000
LATT -1
SFAC C  
C      1  0.4986650000000  0.5338800000000  0.5575100000000 1.0
C      1  0.4937680000000  0.4242010000000  0.4960060000000 1.0
C      1  0.4128310000000  0.4774370000000  0.4667050000000 1.0
C      1  0.6135420000000  0.5188760000000  0.5361510000000 1.0
C      1  0.5718660000000  0.5609930000000  0.4647660000000 1.0
C      1  0.5766300000000  0.4519690000000  0.5330110000000 1.0
C      1  0.4048820000000  0.5667100000000  0.5188640000000 1.0
C      1  0.5481700000000  0.4693520000000  0.5256170000000 1.0
C      1  0.4687550000000  0.4075670000000  0.4572870000000 1.0
C      1  0.5070660000000  0.4455160000000  0.5732440000000 1.0
C      1  0.4765920000000  0.5582900000000  0.4289650000000 1.0
C      1  0.3991560000000  0.5491700000000  0.4931790000000 1.0
C      1  0.4386280000000  0.4575450000000  0.3931500000000 1.0
C      1  0.4856170000000  0.6085090000000  0.4788460000000 1.0
C      1  0.4625160000000  0.4693060000000  0.5420110000000 1.0
C      1  0.4753580000000  0.4889480000000  0.3874520000000 1.0
C      1  0.4350970000000  0.5390580000000  0.5637370000000 1.0
C      1  0.6021470000000  0.4546940000000  0.5103470000000 1.0
C      1  0.5036470000000  0.3928180000000  0.4872500000000 1.0
C      1  0.4720380000000  0.4920260000000  0.4444300000000 1.0
C      1  0.6022880000000  0.5451900000000  0.5355630000000 1.0
C      1  0.5618930000000  0.5624200000000  0.5149110000000 1.0
C      1  0.4750960000000  0.4109190000000  0.5484520000000 1.0
C      1  0.5095270000000  0.5868300000000  0.5706800000000 1.0
C      1  0.5020250000000  0.4308680000000  0.5267860000000 1.0
C      1  0.5753080000000  0.4733110000000  0.4589800000000 1.0
C      1  0.4689320000000  0.5632690000000  0.4621730000000 1.0
C      1  0.5612720000000  0.4256440000000  0.4402250000000 1.0
C      1  0.4451270000000  0.4915140000000  0.4853730000000 1.0
C      1  0.6003790000000  0.4619650000000  0.4775730000000 1.0
C      1  0.4412060000000  0.5888980000000  0.4339020000000 1.0
C      1  0.4082500000000  0.5107720000000  0.5550500000000 1.0
C      1  0.4879400000000  0.5062080000000  0.4107590000000 1.0
C      1  0.5167550000000  0.6061040000000  0.4931550000000 1.0
C      1  0.4043200000000  0.4823330000000  0.5481270000000 1.0
C      1  0.5207890000000  0.5346700000000  0.4824460000000 1.0
C      1  0.4249630000000  0.5143810000000  0.5800730000000 1.0
C      1  0.4607830000000  0.4296890000000  0.4893530000000 1.0
C      1  0.4423260000000  0.4242180000000  0.4611060000000 1.0
C      1  0.5393210000000  0.4730510000000  0.4232290000000 1.0
C      1  0.4500240000000  0.4255950000000  0.5648570000000 1.0
C      1  0.4577020000000  0.5203920000000  0.4775390000000 1.0
C      1  0.5728950000000  0.4971640000000  0.4133580000000 1.0
C      1  0.4479720000000  0.4982540000000  0.5394530000000 1.0
C      1  0.4835370000000  0.5550400000000  0.5275070000000 1.0
C      1  0.5932890000000  0.5171330000000  0.4582150000000 1.0
C      1  0.4799580000000  0.3953220000000  0.5193410000000 1.0
C      1  0.5870260000000  0.4311580000000  0.4818230000000 1.0
C      1  0.6002430000000  0.4952550000000  0.4810970000000 1.0
C      1  0.5578120000000  0.5609600000000  0.5694450000000 1.0
C      1  0.4699640000000  0.5271560000000  0.5944880000000 1.0
C      1  0.5003480000000  0.5423890000000  0.5961860000000 1.0
C      1  0.4419260000000  0.4470150000000  0.4425720000000 1.0
C      1  0.5045870000000  0.5095870000000  0.5163140000000 1.0
C      1  0.5581800000000  0.5809630000000  0.5410070000000 1.0
C      1  0.5410290000000  0.5046070000000  0.4361960000000 1.0
C      1  0.4498020000000  0.3927920000000  0.5057400000000 1.0
C      1  0.5459770000000  0.5575160000000  0.4848650000000 1.0
C      1  0.4358450000000  0.5258660000000  0.4221440000000 1.0
C      1  0.4444970000000  0.4433290000000  0.5362430000000 1.0
C      1  0.5032910000000  0.5033710000000  0.3741980000000 1.0
C      1  0.5484120000000  0.5348560000000  0.5895420000000 1.0
C      1  0.5731060000000  0.4829200000000  0.4975370000000 1.0
C      1  0.4260660000000  0.5234590000000  0.4708600000000 1.0
C      1  0.4783470000000  0.4516020000000  0.4714150000000 1.0
C      1  0.5371910000000  0.5704550000000  0.4475970000000 1.0
C      1  0.5620120000000  0.4500150000000  0.5827130000000 1.0
C      1  0.4773230000000  0.5247770000000  0.5024440000000 1.0
C      1  0.5916050000000  0.4929760000000  0.5723150000000 1.0
C      1  0.5297220000000  0.4620730000000  0.4604320000000 1.0
C      1  0.5274230000000  0.5451470000000  0.5488910000000 1.0
C      1  0.4806000000000  0.4660350000000  0.5943440000000 1.0
C      1  0.4458350000000  0.4848830000000  0.3948490000000 1.0
C      1  0.5140030000000  0.3940880000000  0.5173470000000 1.0
C      1  0.5694540000000  0.4136190000000  0.4644480000000 1.0
C      1  0.4206140000000  0.4247990000000  0.4844140000000 1.0
C      1  0.5109360000000  0.5585950000000  0.4086480000000 1.0
C      1  0.4504790000000  0.4415170000000  0.4117630000000 1.0
C      1  0.5265720000000  0.3884280000000  0.4679540000000 1.0
C      1  0.4330620000000  0.4984940000000  0.4176200000000 1.0
C      1  0.5456880000000  0.4483260000000  0.4376550000000 1.0
C      1  0.5874280000000  0.5560080000000  0.5559540000000 1.0
C      1  0.4967220000000  0.5842640000000  0.4210280000000 1.0
C      1  0.5629660000000  0.5253430000000  0.4688870000000 1.0
C      1  0.4294520000000  0.5011120000000  0.5109900000000 1.0
C      1  0.5652920000000  0.4878430000000  0.5706990000000 1.0
C      1  0.4952590000000  0.6007600000000  0.5168790000000 1.0
C      1  0.4193180000000  0.4366860000000  0.5555150000000 1.0
C      1  0.4270790000000  0.5674850000000  0.5805940000000 1.0
C      1  0.4313990000000  0.5761560000000  0.4987560000000 1.0
C      1  0.6132160000000  0.5050720000000  0.5609960000000 1.0
C      1  0.4190530000000  0.4793220000000  0.4375320000000 1.0
C      1  0.4541880000000  0.4720200000000  0.4586000000000 1.0
C      1  0.4385480000000  0.5589850000000  0.4297740000000 1.0
C      1  0.4140470000000  0.4521630000000  0.4242220000000 1.0
C      1  0.4074090000000  0.5033600000000  0.4777720000000 1.0
C      1  0.5689660000000  0.5029320000000  0.5221560000000 1.0
C      1  0.4091480000000  0.5424640000000  0.5424040000000 1.0
C      1  0.5165440000000  0.5759070000000  0.5190400000000 1.0
C      1  0.4807730000000  0.4373400000000  0.4085980000000 1.0
C      1  0.4005590000000  0.4750330000000  0.5194900000000 1.0
C      1  0.4959660000000  0.5360950000000  0.4423670000000 1.0
C      1  0.5491440000000  0.4955130000000  0.5460550000000 1.0
C      1  0.4525750000000  0.5995110000000  0.4840880000000 1.0
C      1  0.5530950000000  0.4108430000000  0.5497830000000 1.0
C      1  0.4183110000000  0.5394830000000  0.4455760000000 1.0
C      1  0.4874200000000  0.4896730000000  0.4865760000000 1.0
C      1  0.5445400000000  0.5369960000000  0.4442840000000 1.0
C      1  0.5658660000000  0.5261700000000  0.4996400000000 1.0
C      1  0.4415370000000  0.4938200000000  0.5947040000000 1.0
C      1  0.5079920000000  0.5052760000000  0.4760240000000 1.0
C      1  0.5496920000000  0.3992040000000  0.4780640000000 1.0
C      1  0.4682140000000  0.5819490000000  0.5387770000000 1.0
C      1  0.5247870000000  0.4720170000000  0.3964730000000 1.0
C      1  0.4880490000000  0.4856280000000  0.5678850000000 1.0
C      1  0.4655160000000  0.5396110000000  0.5519610000000 1.0
C      1  0.4904820000000  0.6024520000000  0.5505450000000 1.0
C      1  0.5672390000000  0.5688180000000  0.4359590000000 1.0
C      1  0.4891380000000  0.5628710000000  0.5738930000000 1.0
C      1  0.4481570000000  0.5489790000000  0.6000530000000 1.0
C      1  0.4321140000000  0.4661410000000  0.5890400000000 1.0
C      1  0.5191960000000  0.4652630000000  0.4986940000000 1.0
C      1  0.5188940000000  0.5182710000000  0.5881280000000 1.0
C      1  0.5457650000000  0.4753730000000  0.5948170000000 1.0
C      1  0.5152400000000  0.4672720000000  0.5963350000000 1.0
C      1  0.4404220000000  0.5760490000000  0.5504740000000 1.0
C      1  0.5959600000000  0.5456420000000  0.4764650000000 1.0
C      1  0.5155950000000  0.5195200000000  0.4230830000000 1.0
C      1  0.4068580000000  0.5583910000000  0.4684500000000 1.0
C      1  0.4136760000000  0.4567320000000  0.4938310000000 1.0
C      1  0.5423020000000  0.5971550000000  0.5147790000000 1.0
C      1  0.5036950000000  0.4150560000000  0.5643870000000 1.0
C      1  0.4969960000000  0.4635200000000  0.3939630000000 1.0
C      1  0.5184110000000  0.4907170000000  0.4520790000000 1.0
C      1  0.5327140000000  0.4932190000000  0.5060150000000 1.0
C      1  0.4695830000000  0.5848800000000  0.5058250000000 1.0
C      1  0.5902050000000  0.5490850000000  0.5081750000000 1.0
C      1  0.5121340000000  0.5536020000000  0.4607560000000 1.0
C      1  0.4429320000000  0.4481140000000  0.5076140000000 1.0
C      1  0.4725890000000  0.4964810000000  0.6075340000000 1.0
C      1  0.4554940000000  0.4481470000000  0.5878660000000 1.0
C      1  0.4383840000000  0.5664290000000  0.4667760000000 1.0
C      1  0.4975090000000  0.4814010000000  0.4320590000000 1.0
C      1  0.5458410000000  0.4384250000000  0.5114420000000 1.0
C      1  0.5091910000000  0.4614210000000  0.5269680000000 1.0
C      1  0.5823620000000  0.5215310000000  0.4261850000000 1.0
C      1  0.4732220000000  0.3922160000000  0.4837800000000 1.0
C      1  0.3954810000000  0.5016160000000  0.5051630000000 1.0
C      1  0.5658160000000  0.4515470000000  0.4946870000000 1.0
C      1  0.5714480000000  0.5465450000000  0.4165230000000 1.0
C      1  0.5272370000000  0.5613720000000  0.5853710000000 1.0
C      1  0.5115740000000  0.5427510000000  0.5124280000000 1.0
C      1  0.5049230000000  0.4959130000000  0.6043220000000 1.0
C      1  0.4792390000000  0.5560980000000  0.4930460000000 1.0
C      1  0.4443100000000  0.6037460000000  0.4538270000000 1.0
C      1  0.4863350000000  0.4208270000000  0.4382060000000 1.0
C      1  0.6020000000000  0.5042540000000  0.5138690000000 1.0
C      1  0.5540320000000  0.5073730000000  0.6032100000000 1.0
C      1  0.4817100000000  0.4447550000000  0.5503770000000 1.0
C      1  0.5875970000000  0.4249390000000  0.5150870000000 1.0
C      1  0.4740620000000  0.5175170000000  0.4533090000000 1.0
C      1  0.4983840000000  0.4515660000000  0.4319430000000 1.0
C      1  0.5519440000000  0.5886790000000  0.4868000000000 1.0
C      1  0.4894880000000  0.4875720000000  0.5336260000000 1.0
C      1  0.5653870000000  0.4373810000000  0.5587200000000 1.0
C      1  0.4865660000000  0.5381050000000  0.4037030000000 1.0
C      1  0.5781190000000  0.4757400000000  0.4319750000000 1.0
C      1  0.5178960000000  0.4731320000000  0.5569050000000 1.0
C      1  0.5722650000000  0.3826430000000  0.5500700000000 1.0
C      1  0.5432640000000  0.5364800000000  0.5229160000000 1.0
C      1  0.5442500000000  0.4066770000000  0.5077250000000 1.0
C      1  0.5168780000000  0.5867780000000  0.4676550000000 1.0
C      1  0.4622720000000  0.5043590000000  0.5698870000000 1.0
C      1  0.5715460000000  0.4015390000000  0.5238500000000 1.0
C      1  0.5278510000000  0.5763960000000  0.5484530000000 1.0
C      1  0.4257370000000  0.4046860000000  0.5025110000000 1.0
C      1  0.4610960000000  0.5702060000000  0.5771550000000 1.0
C      1  0.4211850000000  0.5318700000000  0.5094880000000 1.0
C      1  0.5200010000000  0.5070770000000  0.5575120000000 1.0
C      1  0.4645630000000  0.4686440000000  0.4968000000000 1.0
C      1  0.4125810000000  0.4619620000000  0.5677380000000 1.0
C      1  0.5385060000000  0.5504510000000  0.4131450000000 1.0
C      1  0.5085150000000  0.4464770000000  0.4766060000000 1.0
C      1  0.4882000000000  0.5884360000000  0.4522910000000 1.0
C      1  0.4420010000000  0.5552390000000  0.5236280000000 1.0
C      1  0.5248990000000  0.4107160000000  0.5424150000000 1.0
C      1  0.5232740000000  0.5115920000000  0.3919130000000 1.0
C      1  0.5480840000000  0.4826200000000  0.4772860000000 1.0
C      1  0.5499950000000  0.4960450000000  0.3929450000000 1.0
C      1  0.4572900000000  0.5254110000000  0.5249860000000 1.0
END
