TITL C-2778430-5657-631 -0.253422614204674 125000 -290.891247967927 0 0 53 (C1) n - 1
REM
REM in /home/nfs/bkarasulu/CARBON/AIRSS/Generating-Clusters/REBO/Only-C1/SD-CG/HFTN-CG
REM
REM
REM
REM
REM
REM ./C.cell (11c1c37f851c82e70ff6c80c92926a4b)
REM
REM compiler GCC version 9.2.1 20190827 (Red Hat 9.2.1-1)
REM options -cpp -mtune=generic -march=x86-64 -g -O0 -fpre-include=/usr/include/finclude/math-vector-fortran.h
REM seed 1191350201 306203177 702043042 -157004225 785931228 825957577 1091599042 -1061491301 1673141255 654599907 -846385766 979299415 408477925 -593843613 710640541 -2080588047 -1250013391 798368206 -1812053027 -1260170414 -1828509538 359030899 919360778 -719160018 -771396462 247328251 1911783999 779796433 1392172860 -201151312 1251135622 1322568033 13395652
REM
CELL 1.54180   50.00000   50.00000   50.00000   90.00000   90.00000   90.00000
LATT -1
SFAC C  
C      1  0.5037550000000  0.5147030000000  0.4090740000000 1.0
C      1  0.5395760000000  0.5222070000000  0.4656460000000 1.0
C      1  0.4725400000000  0.5550640000000  0.4918920000000 1.0
C      1  0.4970300000000  0.5253180000000  0.5484240000000 1.0
C      1  0.5379340000000  0.4813840000000  0.4958700000000 1.0
C      1  0.4988240000000  0.5410470000000  0.4833900000000 1.0
C      1  0.4390700000000  0.5030070000000  0.5111380000000 1.0
C      1  0.5624790000000  0.5030010000000  0.5600150000000 1.0
C      1  0.5614280000000  0.5388330000000  0.4824180000000 1.0
C      1  0.4819950000000  0.5532150000000  0.4293090000000 1.0
C      1  0.5560980000000  0.4953100000000  0.5096200000000 1.0
C      1  0.4842230000000  0.4426100000000  0.4301260000000 1.0
C      1  0.4894500000000  0.5300120000000  0.5996280000000 1.0
C      1  0.4536160000000  0.5322340000000  0.5066060000000 1.0
C      1  0.5279570000000  0.4530170000000  0.5739100000000 1.0
C      1  0.4830380000000  0.5681120000000  0.5216220000000 1.0
C      1  0.5787960000000  0.5023620000000  0.5817360000000 1.0
C      1  0.4758800000000  0.5385640000000  0.5278800000000 1.0
C      1  0.4573910000000  0.3985860000000  0.4986980000000 1.0
C      1  0.4251120000000  0.4360160000000  0.5103790000000 1.0
C      1  0.4575370000000  0.4528860000000  0.4766560000000 1.0
C      1  0.4728990000000  0.4736450000000  0.4865090000000 1.0
C      1  0.5232600000000  0.4961610000000  0.4702110000000 1.0
C      1  0.5097800000000  0.4501960000000  0.5537770000000 1.0
C      1  0.5151210000000  0.5460120000000  0.5299930000000 1.0
C      1  0.4988810000000  0.4440130000000  0.4797590000000 1.0
C      1  0.5004860000000  0.5693340000000  0.5694740000000 1.0
C      1  0.5059750000000  0.5738870000000  0.5412170000000 1.0
C      1  0.4951920000000  0.5415460000000  0.5753530000000 1.0
C      1  0.4801830000000  0.4678590000000  0.5192410000000 1.0
C      1  0.5700440000000  0.5236450000000  0.5044880000000 1.0
C      1  0.5284060000000  0.5413330000000  0.4449430000000 1.0
C      1  0.4207720000000  0.5261810000000  0.5001690000000 1.0
C      1  0.4827410000000  0.4394570000000  0.5045280000000 1.0
C      1  0.4856170000000  0.4640410000000  0.4139840000000 1.0
C      1  0.5347940000000  0.4977820000000  0.5615370000000 1.0
C      1  0.4998910000000  0.5192860000000  0.4623480000000 1.0
C      1  0.5166490000000  0.4647570000000  0.4802810000000 1.0
C      1  0.5719910000000  0.5087310000000  0.5339660000000 1.0
C      1  0.4602760000000  0.5720130000000  0.4735280000000 1.0
C      1  0.4513960000000  0.4813690000000  0.5193090000000 1.0
C      1  0.4927360000000  0.4892890000000  0.4089200000000 1.0
C      1  0.4834330000000  0.4936030000000  0.4722180000000 1.0
C      1  0.5522960000000  0.5583910000000  0.4572260000000 1.0
C      1  0.4791990000000  0.4096640000000  0.5112200000000 1.0
C      1  0.5017750000000  0.4255700000000  0.5452200000000 1.0
C      1  0.5087410000000  0.4978370000000  0.5506380000000 1.0
C      1  0.4990030000000  0.4732960000000  0.5415110000000 1.0
C      1  0.5178250000000  0.5244580000000  0.3872630000000 1.0
C      1  0.4483440000000  0.4301750000000  0.4962810000000 1.0
C      1  0.4896090000000  0.4344450000000  0.4552480000000 1.0
C      1  0.5181890000000  0.5419090000000  0.5025110000000 1.0
C      1  0.5007670000000  0.5326250000000  0.4330920000000 1.0
END
