TITL C-2778430-5657-1003 -0.0386667873027458 125000 -603.560671300344 0 0 102 (C1) n - 1
REM
REM in /home/nfs/bkarasulu/CARBON/AIRSS/Generating-Clusters/REBO/Only-C1/SD-CG/HFTN-CG
REM
REM
REM
REM
REM
REM ./C.cell (11c1c37f851c82e70ff6c80c92926a4b)
REM
REM compiler GCC version 9.2.1 20190827 (Red Hat 9.2.1-1)
REM options -cpp -mtune=generic -march=x86-64 -g -O0 -fpre-include=/usr/include/finclude/math-vector-fortran.h
REM seed -166195454 -120347041 838731573 -1406049005 -2074732677 747544514 -1411968918 2090813621 734268507 1395630988 -157540344 1997328631 93335111 -2128561727 256923258 1654321957 396190312 -597025452 245875602 -609625987 -980188782 1038450567 131709296 -1757378718 711435002 1133760529 193959253 -818021051 -1673665498 -1975455178 -502866087 -1716077836 1696178853
REM
CELL 1.54180   50.00000   50.00000   50.00000   90.00000   90.00000   90.00000
LATT -1
SFAC C  
C      1  0.5223840000000  0.5303170000000  0.3962170000000 1.0
C      1  0.5612080000000  0.5681230000000  0.5077010000000 1.0
C      1  0.5358870000000  0.4606340000000  0.4190420000000 1.0
C      1  0.5156650000000  0.4764520000000  0.5003500000000 1.0
C      1  0.5552030000000  0.5211300000000  0.5652980000000 1.0
C      1  0.5736760000000  0.4754650000000  0.5397750000000 1.0
C      1  0.5256000000000  0.4704400000000  0.5394850000000 1.0
C      1  0.5364500000000  0.5776830000000  0.5195620000000 1.0
C      1  0.5448540000000  0.4302390000000  0.5383410000000 1.0
C      1  0.4984120000000  0.5618470000000  0.5519040000000 1.0
C      1  0.4136010000000  0.5146480000000  0.5189690000000 1.0
C      1  0.5636650000000  0.5019050000000  0.4751780000000 1.0
C      1  0.5753520000000  0.4757210000000  0.4847670000000 1.0
C      1  0.5798690000000  0.4711860000000  0.5123730000000 1.0
C      1  0.5800570000000  0.5296850000000  0.4834740000000 1.0
C      1  0.4522210000000  0.4341720000000  0.5404880000000 1.0
C      1  0.4764870000000  0.5692060000000  0.5030210000000 1.0
C      1  0.4866300000000  0.5392580000000  0.5036120000000 1.0
C      1  0.4991150000000  0.4603280000000  0.5205830000000 1.0
C      1  0.4961960000000  0.5079060000000  0.5329980000000 1.0
C      1  0.5245220000000  0.4654590000000  0.4507550000000 1.0
C      1  0.4363600000000  0.5584950000000  0.4392090000000 1.0
C      1  0.4761340000000  0.4413320000000  0.4819800000000 1.0
C      1  0.4606090000000  0.4246900000000  0.4644920000000 1.0
C      1  0.4598060000000  0.4660930000000  0.5336000000000 1.0
C      1  0.5223060000000  0.5186240000000  0.4445780000000 1.0
C      1  0.4618110000000  0.4936610000000  0.5183520000000 1.0
C      1  0.5524960000000  0.4568960000000  0.5533230000000 1.0
C      1  0.5565550000000  0.4570050000000  0.4424980000000 1.0
C      1  0.5190300000000  0.5918560000000  0.5019960000000 1.0
C      1  0.5010180000000  0.4813940000000  0.4634600000000 1.0
C      1  0.4484070000000  0.5181490000000  0.4737840000000 1.0
C      1  0.4241680000000  0.5230420000000  0.5470480000000 1.0
C      1  0.5666360000000  0.5851400000000  0.4338330000000 1.0
C      1  0.5404480000000  0.5894660000000  0.4273030000000 1.0
C      1  0.5312290000000  0.5052800000000  0.5772760000000 1.0
C      1  0.5239940000000  0.5559380000000  0.5378160000000 1.0
C      1  0.4437120000000  0.5385870000000  0.5296770000000 1.0
C      1  0.4741490000000  0.5711050000000  0.5337920000000 1.0
C      1  0.5700570000000  0.5023770000000  0.5469510000000 1.0
C      1  0.4939260000000  0.5825470000000  0.4584260000000 1.0
C      1  0.4898200000000  0.4363690000000  0.5053920000000 1.0
C      1  0.4813800000000  0.4442530000000  0.5738190000000 1.0
C      1  0.4310470000000  0.4940870000000  0.5059320000000 1.0
C      1  0.5495810000000  0.5112690000000  0.4468780000000 1.0
C      1  0.4661660000000  0.4673450000000  0.5795440000000 1.0
C      1  0.5358410000000  0.5482900000000  0.4842300000000 1.0
C      1  0.5160170000000  0.5058280000000  0.5059380000000 1.0
C      1  0.4534540000000  0.5486230000000  0.4647080000000 1.0
C      1  0.4989660000000  0.4127460000000  0.5168010000000 1.0
C      1  0.5543290000000  0.5723950000000  0.4781110000000 1.0
C      1  0.4102070000000  0.5518880000000  0.4419310000000 1.0
C      1  0.4697430000000  0.5646270000000  0.4424810000000 1.0
C      1  0.4741510000000  0.4701940000000  0.4703380000000 1.0
C      1  0.4700780000000  0.5240860000000  0.5256180000000 1.0
C      1  0.4561210000000  0.4918200000000  0.5756310000000 1.0
C      1  0.5165350000000  0.5400910000000  0.5109970000000 1.0
C      1  0.5030380000000  0.5092690000000  0.4639750000000 1.0
C      1  0.4580950000000  0.4896260000000  0.4860270000000 1.0
C      1  0.5521750000000  0.4433220000000  0.4883480000000 1.0
C      1  0.4817900000000  0.5236000000000  0.4773790000000 1.0
C      1  0.4500640000000  0.5642720000000  0.4900030000000 1.0
C      1  0.5104060000000  0.4462840000000  0.5584400000000 1.0
C      1  0.4583050000000  0.3709280000000  0.4618840000000 1.0
C      1  0.5293900000000  0.4601930000000  0.4818940000000 1.0
C      1  0.5365980000000  0.4722410000000  0.5776940000000 1.0
C      1  0.5721140000000  0.5268280000000  0.4363270000000 1.0
C      1  0.5044630000000  0.5161260000000  0.5877970000000 1.0
C      1  0.4873400000000  0.4795900000000  0.5456480000000 1.0
C      1  0.5515170000000  0.5184360000000  0.5255900000000 1.0
C      1  0.4196610000000  0.4488760000000  0.4674430000000 1.0
C      1  0.4810100000000  0.5216730000000  0.5833710000000 1.0
C      1  0.5533150000000  0.4293260000000  0.5124900000000 1.0
C      1  0.4322850000000  0.5492970000000  0.5063070000000 1.0
C      1  0.5470040000000  0.5450760000000  0.5554340000000 1.0
C      1  0.4824420000000  0.5093520000000  0.4185810000000 1.0
C      1  0.5279110000000  0.5017630000000  0.5436560000000 1.0
C      1  0.5433420000000  0.5172580000000  0.4930770000000 1.0
C      1  0.4425780000000  0.4439280000000  0.4505890000000 1.0
C      1  0.5150250000000  0.5817010000000  0.4347430000000 1.0
C      1  0.4185190000000  0.5271010000000  0.4874610000000 1.0
C      1  0.4665190000000  0.4884450000000  0.4249120000000 1.0
C      1  0.4586290000000  0.4681730000000  0.4427640000000 1.0
C      1  0.4679840000000  0.4223370000000  0.5604950000000 1.0
C      1  0.4821280000000  0.3875360000000  0.5246890000000 1.0
C      1  0.4352980000000  0.4481590000000  0.5181120000000 1.0
C      1  0.5714980000000  0.4521400000000  0.4661630000000 1.0
C      1  0.4962250000000  0.5852200000000  0.4864050000000 1.0
C      1  0.4690930000000  0.5497880000000  0.5581150000000 1.0
C      1  0.4967670000000  0.5583790000000  0.4271680000000 1.0
C      1  0.4594260000000  0.3970800000000  0.4631520000000 1.0
C      1  0.5069380000000  0.5303720000000  0.4199200000000 1.0
C      1  0.4009150000000  0.5381100000000  0.4640740000000 1.0
C      1  0.5161520000000  0.4182780000000  0.5449760000000 1.0
C      1  0.5711750000000  0.5406980000000  0.5091590000000 1.0
C      1  0.5043580000000  0.4766110000000  0.5726950000000 1.0
C      1  0.4207470000000  0.4489900000000  0.4949230000000 1.0
C      1  0.4872210000000  0.4018340000000  0.5527390000000 1.0
C      1  0.5837520000000  0.5433960000000  0.4572090000000 1.0
C      1  0.4681580000000  0.3676060000000  0.5139790000000 1.0
C      1  0.5733750000000  0.5702360000000  0.4569260000000 1.0
C      1  0.4519140000000  0.5231560000000  0.5656270000000 1.0
END
