TITL C-2778425-5191-1260 0.000610828523163338 125000 -856.135800989527 0 0 147 (C1) n - 1
REM
REM in /home/nfs/bkarasulu/CARBON/AIRSS/Generating-Clusters/REBO/Only-C1/SD-CG/HFTN-CG
REM
REM
REM
REM
REM
REM ./C.cell (11c1c37f851c82e70ff6c80c92926a4b)
REM
REM compiler GCC version 9.2.1 20190827 (Red Hat 9.2.1-1)
REM options -cpp -mtune=generic -march=x86-64 -g -O0 -fpre-include=/usr/include/finclude/math-vector-fortran.h
REM seed 103874194 1890452368 -995947270 -777301480 877879828 -488187219 1915926030 1111032717 -230262924 -1574499239 768855421 -5100638 -1919092243 1062190638 -1260313369 -624110749 -1932303906 -1064130030 1088018496 -998863403 1054813365 1151898758 246204265 1872185366 1738766249 1968701905 962048305 -140454071 1067431195 727110072 -595893396 -416896840 646586467
REM
CELL 1.54180   50.00000   50.00000   50.00000   90.00000   90.00000   90.00000
LATT -1
SFAC C  
C      1  0.4495610000000  0.5643200000000  0.5644160000000 1.0
C      1  0.5225250000000  0.5414640000000  0.5236350000000 1.0
C      1  0.5544110000000  0.4794680000000  0.4150060000000 1.0
C      1  0.5087640000000  0.4396020000000  0.4736730000000 1.0
C      1  0.5772400000000  0.4797270000000  0.4697440000000 1.0
C      1  0.6147360000000  0.4786670000000  0.5044020000000 1.0
C      1  0.4526650000000  0.5378390000000  0.5755630000000 1.0
C      1  0.4769030000000  0.5069860000000  0.5680240000000 1.0
C      1  0.5072040000000  0.5162310000000  0.5061900000000 1.0
C      1  0.5964980000000  0.5453690000000  0.4908380000000 1.0
C      1  0.4757420000000  0.5686040000000  0.4459720000000 1.0
C      1  0.4692930000000  0.4863840000000  0.5285630000000 1.0
C      1  0.4391190000000  0.4429850000000  0.5607820000000 1.0
C      1  0.5723120000000  0.5684790000000  0.4872830000000 1.0
C      1  0.6016880000000  0.4905820000000  0.4811800000000 1.0
C      1  0.4788130000000  0.4391510000000  0.5321250000000 1.0
C      1  0.4101840000000  0.4633880000000  0.5249560000000 1.0
C      1  0.5287160000000  0.3957040000000  0.4892180000000 1.0
C      1  0.5487700000000  0.5230830000000  0.5475160000000 1.0
C      1  0.4214850000000  0.4800510000000  0.5439270000000 1.0
C      1  0.5428120000000  0.4882840000000  0.5290760000000 1.0
C      1  0.5347750000000  0.4697930000000  0.5860430000000 1.0
C      1  0.4418500000000  0.4256450000000  0.5390540000000 1.0
C      1  0.4487250000000  0.4501030000000  0.4925280000000 1.0
C      1  0.5314130000000  0.4394460000000  0.5687090000000 1.0
C      1  0.4880380000000  0.5900220000000  0.4608930000000 1.0
C      1  0.5129810000000  0.4983200000000  0.4672940000000 1.0
C      1  0.4541740000000  0.4109380000000  0.5013980000000 1.0
C      1  0.4274690000000  0.4726570000000  0.4677040000000 1.0
C      1  0.5697370000000  0.4514190000000  0.5073980000000 1.0
C      1  0.5090760000000  0.5336920000000  0.4258770000000 1.0
C      1  0.5844260000000  0.5752820000000  0.5144150000000 1.0
C      1  0.5414490000000  0.5574180000000  0.4911360000000 1.0
C      1  0.5151350000000  0.5837590000000  0.4767880000000 1.0
C      1  0.5532110000000  0.5178700000000  0.5147910000000 1.0
C      1  0.5179130000000  0.5231970000000  0.5587470000000 1.0
C      1  0.4619030000000  0.5196190000000  0.4811080000000 1.0
C      1  0.4015240000000  0.5452000000000  0.4995450000000 1.0
C      1  0.4435870000000  0.4622670000000  0.4260020000000 1.0
C      1  0.4455290000000  0.5059490000000  0.4084890000000 1.0
C      1  0.6049710000000  0.5180750000000  0.4738390000000 1.0
C      1  0.4780500000000  0.4516450000000  0.5032850000000 1.0
C      1  0.4539200000000  0.5643510000000  0.5109120000000 1.0
C      1  0.4840610000000  0.5000910000000  0.4946810000000 1.0
C      1  0.4649420000000  0.5148880000000  0.4421580000000 1.0
C      1  0.5388490000000  0.4400250000000  0.5127180000000 1.0
C      1  0.5470940000000  0.5816940000000  0.4685920000000 1.0
C      1  0.5017860000000  0.5546320000000  0.5770050000000 1.0
C      1  0.5719690000000  0.4186920000000  0.5168360000000 1.0
C      1  0.4527450000000  0.5355540000000  0.4191670000000 1.0
C      1  0.5495520000000  0.4862620000000  0.4868720000000 1.0
C      1  0.3957960000000  0.4811820000000  0.4691040000000 1.0
C      1  0.5112460000000  0.5873890000000  0.5383650000000 1.0
C      1  0.5400170000000  0.4623410000000  0.4404560000000 1.0
C      1  0.5616810000000  0.4324200000000  0.4807990000000 1.0
C      1  0.4489100000000  0.5143150000000  0.5513270000000 1.0
C      1  0.4717100000000  0.5486700000000  0.4879470000000 1.0
C      1  0.4317440000000  0.5069110000000  0.5028260000000 1.0
C      1  0.5001170000000  0.5056400000000  0.6003560000000 1.0
C      1  0.4801040000000  0.6104160000000  0.5043560000000 1.0
C      1  0.4797400000000  0.4118530000000  0.5029340000000 1.0
C      1  0.4741860000000  0.4107660000000  0.4634160000000 1.0
C      1  0.4102170000000  0.4607090000000  0.4927940000000 1.0
C      1  0.5457020000000  0.5190590000000  0.5871210000000 1.0
C      1  0.4982430000000  0.4710380000000  0.5181580000000 1.0
C      1  0.4281450000000  0.4386540000000  0.5135080000000 1.0
C      1  0.4097550000000  0.4980620000000  0.4428290000000 1.0
C      1  0.5184440000000  0.4796880000000  0.4952340000000 1.0
C      1  0.4903630000000  0.5235650000000  0.4630950000000 1.0
C      1  0.4950130000000  0.4896780000000  0.4401950000000 1.0
C      1  0.5708280000000  0.4739720000000  0.4431670000000 1.0
C      1  0.5279260000000  0.4986860000000  0.5957860000000 1.0
C      1  0.5376490000000  0.5805050000000  0.5506030000000 1.0
C      1  0.4777350000000  0.4882620000000  0.6033180000000 1.0
C      1  0.5542840000000  0.5282640000000  0.4123730000000 1.0
C      1  0.4371850000000  0.4497900000000  0.4508080000000 1.0
C      1  0.5897440000000  0.5040470000000  0.5222910000000 1.0
C      1  0.4834770000000  0.5470700000000  0.4274140000000 1.0
C      1  0.5162210000000  0.5031280000000  0.5334510000000 1.0
C      1  0.5261890000000  0.5717950000000  0.5132920000000 1.0
C      1  0.5786960000000  0.5371900000000  0.4632780000000 1.0
C      1  0.5217770000000  0.4580880000000  0.4120760000000 1.0
C      1  0.4853260000000  0.4440410000000  0.4402740000000 1.0
C      1  0.4756470000000  0.4850520000000  0.4664420000000 1.0
C      1  0.5079450000000  0.5987680000000  0.5064660000000 1.0
C      1  0.5939440000000  0.5305770000000  0.5517540000000 1.0
C      1  0.4186590000000  0.5494520000000  0.5209960000000 1.0
C      1  0.5631060000000  0.5235550000000  0.4907450000000 1.0
C      1  0.4270620000000  0.5150270000000  0.5766740000000 1.0
C      1  0.4841090000000  0.5325680000000  0.5869640000000 1.0
C      1  0.4812540000000  0.4555650000000  0.4701030000000 1.0
C      1  0.5704210000000  0.4819840000000  0.5118210000000 1.0
C      1  0.5260590000000  0.4902550000000  0.4009360000000 1.0
C      1  0.4691270000000  0.4119670000000  0.5413720000000 1.0
C      1  0.4485680000000  0.5640690000000  0.4582780000000 1.0
C      1  0.5715030000000  0.5117150000000  0.5681650000000 1.0
C      1  0.5177970000000  0.4525500000000  0.5339090000000 1.0
C      1  0.4349340000000  0.5431360000000  0.4447080000000 1.0
C      1  0.5001290000000  0.5543860000000  0.4742780000000 1.0
C      1  0.5100350000000  0.4278000000000  0.5035140000000 1.0
C      1  0.4952660000000  0.3992700000000  0.5430870000000 1.0
C      1  0.4817330000000  0.4585180000000  0.5541010000000 1.0
C      1  0.5435800000000  0.4157050000000  0.4693960000000 1.0
C      1  0.3860040000000  0.4934440000000  0.4988930000000 1.0
C      1  0.5303590000000  0.4212210000000  0.4454790000000 1.0
C      1  0.4509070000000  0.4916040000000  0.5838470000000 1.0
C      1  0.4975450000000  0.4888780000000  0.5563770000000 1.0
C      1  0.4480310000000  0.5802750000000  0.4828870000000 1.0
C      1  0.4038430000000  0.5039960000000  0.5173680000000 1.0
C      1  0.5224390000000  0.4194430000000  0.5425830000000 1.0
C      1  0.4515030000000  0.4741720000000  0.5556160000000 1.0
C      1  0.5949010000000  0.5354290000000  0.5182480000000 1.0
C      1  0.4952290000000  0.4759360000000  0.4026580000000 1.0
C      1  0.6169480000000  0.4772040000000  0.5324010000000 1.0
C      1  0.5111450000000  0.4361090000000  0.4320440000000 1.0
C      1  0.5023890000000  0.4074230000000  0.4704460000000 1.0
C      1  0.5399010000000  0.4684930000000  0.5525750000000 1.0
C      1  0.4453370000000  0.4961140000000  0.4629090000000 1.0
C      1  0.4714330000000  0.4595440000000  0.4199420000000 1.0
C      1  0.5429210000000  0.4070240000000  0.5182350000000 1.0
C      1  0.5312870000000  0.5452800000000  0.5803500000000 1.0
C      1  0.5783420000000  0.5567060000000  0.5374140000000 1.0
C      1  0.4613980000000  0.5784230000000  0.5376680000000 1.0
C      1  0.4728870000000  0.5194270000000  0.5302680000000 1.0
C      1  0.5647870000000  0.5268780000000  0.4369950000000 1.0
C      1  0.5236800000000  0.4658570000000  0.4643270000000 1.0
C      1  0.4097340000000  0.5068760000000  0.5487450000000 1.0
C      1  0.4650150000000  0.6078600000000  0.5274120000000 1.0
C      1  0.4168480000000  0.5237400000000  0.4546740000000 1.0
C      1  0.5552300000000  0.5960810000000  0.4437840000000 1.0
C      1  0.5063850000000  0.4612440000000  0.5730790000000 1.0
C      1  0.4945830000000  0.5371580000000  0.5405580000000 1.0
C      1  0.5056460000000  0.3949030000000  0.5127980000000 1.0
C      1  0.4538660000000  0.4831980000000  0.4997860000000 1.0
C      1  0.4895390000000  0.5687790000000  0.5496010000000 1.0
C      1  0.4518210000000  0.4291450000000  0.4659150000000 1.0
C      1  0.4285390000000  0.4874620000000  0.4221540000000 1.0
C      1  0.5269320000000  0.5290780000000  0.4492720000000 1.0
C      1  0.5985040000000  0.4967250000000  0.5534150000000 1.0
C      1  0.4115270000000  0.5241710000000  0.4828350000000 1.0
C      1  0.5482150000000  0.5551810000000  0.5420880000000 1.0
C      1  0.5240140000000  0.5334170000000  0.4825390000000 1.0
C      1  0.5272610000000  0.5204140000000  0.4061130000000 1.0
C      1  0.4684660000000  0.6012280000000  0.4798960000000 1.0
C      1  0.5509860000000  0.5089780000000  0.4625130000000 1.0
C      1  0.4476780000000  0.5326740000000  0.5160800000000 1.0
C      1  0.4766470000000  0.4988170000000  0.4144790000000 1.0
END
