TITL C-2778425-5191-167 0.0034029862298137 125000 -983.929665668641 0 0 171 (C1) n - 1
REM
REM in /home/nfs/bkarasulu/CARBON/AIRSS/Generating-Clusters/REBO/Only-C1/SD-CG/HFTN-CG
REM
REM
REM
REM
REM
REM ./C.cell (11c1c37f851c82e70ff6c80c92926a4b)
REM
REM compiler GCC version 9.2.1 20190827 (Red Hat 9.2.1-1)
REM options -cpp -mtune=generic -march=x86-64 -g -O0 -fpre-include=/usr/include/finclude/math-vector-fortran.h
REM seed -1306672247 168475400 -1041044758 516357423 1057239705 -1141408778 729949393 -599844594 938901632 894876610 -171122743 -659110733 251137230 1989574828 1868127620 1346086997 565890743 -862333522 76247564 -839388850 1444177194 -69425237 609543242 1162556125 2116594946 -767109321 1608066600 -1803888978 1650412795 -2080019474 -1934416542 1306928324 -781025747
REM
CELL 1.54180   50.00000   50.00000   50.00000   90.00000   90.00000   90.00000
LATT -1
SFAC C  
C      1  0.5132400000000  0.5066860000000  0.4995300000000 1.0
C      1  0.5140140000000  0.5119530000000  0.4362630000000 1.0
C      1  0.4745260000000  0.5161280000000  0.4368900000000 1.0
C      1  0.4189940000000  0.5449180000000  0.5500930000000 1.0
C      1  0.4917500000000  0.5002970000000  0.5580710000000 1.0
C      1  0.5229180000000  0.4759110000000  0.4928910000000 1.0
C      1  0.5744080000000  0.5880790000000  0.4850770000000 1.0
C      1  0.5918380000000  0.4735900000000  0.4867720000000 1.0
C      1  0.4306800000000  0.5451590000000  0.4348410000000 1.0
C      1  0.5551920000000  0.4817270000000  0.5282400000000 1.0
C      1  0.4093180000000  0.5379080000000  0.4524700000000 1.0
C      1  0.4428100000000  0.4061280000000  0.4896520000000 1.0
C      1  0.5352300000000  0.4322690000000  0.5707440000000 1.0
C      1  0.3992440000000  0.5278420000000  0.5277150000000 1.0
C      1  0.4595850000000  0.4928400000000  0.5973080000000 1.0
C      1  0.5232090000000  0.4909390000000  0.4559070000000 1.0
C      1  0.4440830000000  0.4361910000000  0.5159430000000 1.0
C      1  0.4869060000000  0.5388540000000  0.5507670000000 1.0
C      1  0.5064840000000  0.5344980000000  0.5169610000000 1.0
C      1  0.5948300000000  0.5319540000000  0.4884610000000 1.0
C      1  0.5011750000000  0.5500920000000  0.4823280000000 1.0
C      1  0.5643070000000  0.5341960000000  0.4475110000000 1.0
C      1  0.4990510000000  0.5057280000000  0.4070760000000 1.0
C      1  0.5607430000000  0.5017470000000  0.4492130000000 1.0
C      1  0.4922120000000  0.4531260000000  0.3935190000000 1.0
C      1  0.5332270000000  0.5065680000000  0.5264690000000 1.0
C      1  0.4883210000000  0.4367120000000  0.4318280000000 1.0
C      1  0.4604510000000  0.5077210000000  0.5125460000000 1.0
C      1  0.5442430000000  0.5669190000000  0.5540330000000 1.0
C      1  0.5220740000000  0.5698430000000  0.4331010000000 1.0
C      1  0.5558060000000  0.4549270000000  0.5577290000000 1.0
C      1  0.4501340000000  0.4432450000000  0.4773710000000 1.0
C      1  0.4821290000000  0.4886050000000  0.5304680000000 1.0
C      1  0.4357640000000  0.5044060000000  0.4687520000000 1.0
C      1  0.4578470000000  0.5525810000000  0.5411380000000 1.0
C      1  0.5343060000000  0.4366990000000  0.4592210000000 1.0
C      1  0.5539960000000  0.5488410000000  0.5029930000000 1.0
C      1  0.5954410000000  0.5668450000000  0.5626480000000 1.0
C      1  0.4050860000000  0.4786960000000  0.5522890000000 1.0
C      1  0.4316530000000  0.4920750000000  0.4070210000000 1.0
C      1  0.4307000000000  0.4573580000000  0.4456360000000 1.0
C      1  0.5614480000000  0.4146600000000  0.5263110000000 1.0
C      1  0.4559800000000  0.4010040000000  0.4587180000000 1.0
C      1  0.5431460000000  0.4851080000000  0.5586960000000 1.0
C      1  0.5685860000000  0.4670600000000  0.4314230000000 1.0
C      1  0.4837200000000  0.5580530000000  0.5223840000000 1.0
C      1  0.4872030000000  0.4591370000000  0.4532970000000 1.0
C      1  0.4643370000000  0.5486540000000  0.4377040000000 1.0
C      1  0.5117800000000  0.4127460000000  0.5204880000000 1.0
C      1  0.5491080000000  0.4847170000000  0.5979570000000 1.0
C      1  0.5071190000000  0.4553410000000  0.5544660000000 1.0
C      1  0.4704210000000  0.5421280000000  0.5905750000000 1.0
C      1  0.5629820000000  0.5046670000000  0.5739860000000 1.0
C      1  0.4722850000000  0.4319580000000  0.4973440000000 1.0
C      1  0.5501620000000  0.5192080000000  0.4211790000000 1.0
C      1  0.5604500000000  0.4504970000000  0.4702400000000 1.0
C      1  0.4708570000000  0.5620760000000  0.4788830000000 1.0
C      1  0.5565150000000  0.4898990000000  0.4115890000000 1.0
C      1  0.5208550000000  0.5712650000000  0.5372750000000 1.0
C      1  0.5498000000000  0.5838640000000  0.4395970000000 1.0
C      1  0.4385880000000  0.5695920000000  0.5630200000000 1.0
C      1  0.4588520000000  0.4746790000000  0.3959780000000 1.0
C      1  0.4670300000000  0.4312410000000  0.5480770000000 1.0
C      1  0.4539460000000  0.5240950000000  0.4846060000000 1.0
C      1  0.5550790000000  0.5983410000000  0.4666800000000 1.0
C      1  0.4334470000000  0.4311140000000  0.5452820000000 1.0
C      1  0.4914710000000  0.5788040000000  0.4569650000000 1.0
C      1  0.5844600000000  0.4495900000000  0.5487140000000 1.0
C      1  0.4682220000000  0.4018060000000  0.5119430000000 1.0
C      1  0.4315060000000  0.4662190000000  0.5105680000000 1.0
C      1  0.5010530000000  0.4328170000000  0.4877430000000 1.0
C      1  0.4366290000000  0.5766150000000  0.5297060000000 1.0
C      1  0.4710870000000  0.4656810000000  0.5890350000000 1.0
C      1  0.5971130000000  0.5147430000000  0.4590870000000 1.0
C      1  0.5757030000000  0.5649420000000  0.5176160000000 1.0
C      1  0.4210490000000  0.4962020000000  0.4978890000000 1.0
C      1  0.5222140000000  0.5893520000000  0.4679330000000 1.0
C      1  0.4404650000000  0.5511290000000  0.4900800000000 1.0
C      1  0.4223130000000  0.5508460000000  0.5170030000000 1.0
C      1  0.4951110000000  0.5767470000000  0.5591250000000 1.0
C      1  0.4418170000000  0.4733020000000  0.4728030000000 1.0
C      1  0.4894140000000  0.5656020000000  0.4269780000000 1.0
C      1  0.5363190000000  0.4119430000000  0.5433420000000 1.0
C      1  0.5294920000000  0.5602930000000  0.5971640000000 1.0
C      1  0.5566280000000  0.4354790000000  0.5004200000000 1.0
C      1  0.5243970000000  0.5591000000000  0.5057090000000 1.0
C      1  0.3931800000000  0.4960730000000  0.5333080000000 1.0
C      1  0.4970340000000  0.4669030000000  0.5132920000000 1.0
C      1  0.5513730000000  0.4116110000000  0.4690790000000 1.0
C      1  0.4801100000000  0.4826300000000  0.4334400000000 1.0
C      1  0.6015450000000  0.5202160000000  0.5177010000000 1.0
C      1  0.4211080000000  0.4324140000000  0.4919960000000 1.0
C      1  0.5186860000000  0.5404130000000  0.4498170000000 1.0
C      1  0.4410780000000  0.5038320000000  0.5757820000000 1.0
C      1  0.5442730000000  0.4449440000000  0.4220780000000 1.0
C      1  0.3851870000000  0.4825650000000  0.5084250000000 1.0
C      1  0.5705540000000  0.5745690000000  0.5478820000000 1.0
C      1  0.6105950000000  0.4898940000000  0.5071430000000 1.0
C      1  0.4962370000000  0.5925100000000  0.4872110000000 1.0
C      1  0.5149660000000  0.4832560000000  0.5677580000000 1.0
C      1  0.4804510000000  0.3967590000000  0.4803470000000 1.0
C      1  0.4379800000000  0.4277010000000  0.4500030000000 1.0
C      1  0.5104300000000  0.3947570000000  0.4953490000000 1.0
C      1  0.5272730000000  0.4395190000000  0.5083840000000 1.0
C      1  0.4085670000000  0.4752080000000  0.4628970000000 1.0
C      1  0.4669070000000  0.5188770000000  0.5678920000000 1.0
C      1  0.4837900000000  0.4988510000000  0.4905750000000 1.0
C      1  0.4508480000000  0.5913640000000  0.5069220000000 1.0
C      1  0.5321950000000  0.4568960000000  0.5327290000000 1.0
C      1  0.5213060000000  0.5297600000000  0.4079930000000 1.0
C      1  0.4662370000000  0.4427670000000  0.4062630000000 1.0
C      1  0.4035630000000  0.4609650000000  0.4916740000000 1.0
C      1  0.5042150000000  0.5528710000000  0.4023170000000 1.0
C      1  0.4814450000000  0.4027840000000  0.5413810000000 1.0
C      1  0.5936560000000  0.5439100000000  0.5375550000000 1.0
C      1  0.5051090000000  0.4752340000000  0.4107190000000 1.0
C      1  0.5163220000000  0.4609550000000  0.4641550000000 1.0
C      1  0.5763110000000  0.5173000000000  0.5482780000000 1.0
C      1  0.5027000000000  0.4133940000000  0.4608460000000 1.0
C      1  0.5185430000000  0.4256110000000  0.4332180000000 1.0
C      1  0.4524820000000  0.4761360000000  0.5355650000000 1.0
C      1  0.4812010000000  0.5874130000000  0.5116680000000 1.0
C      1  0.5895600000000  0.4449950000000  0.4965560000000 1.0
C      1  0.4324520000000  0.5015920000000  0.5285920000000 1.0
C      1  0.5457450000000  0.6092130000000  0.5244010000000 1.0
C      1  0.5893120000000  0.5641960000000  0.4789300000000 1.0
C      1  0.4681260000000  0.5673540000000  0.5767900000000 1.0
C      1  0.5607480000000  0.5199030000000  0.5178720000000 1.0
C      1  0.5562010000000  0.5276700000000  0.4790820000000 1.0
C      1  0.5341560000000  0.3925790000000  0.4814330000000 1.0
C      1  0.4777010000000  0.5139810000000  0.6058030000000 1.0
C      1  0.5196670000000  0.6120660000000  0.5320160000000 1.0
C      1  0.4613900000000  0.4184910000000  0.4298150000000 1.0
C      1  0.3983160000000  0.5057350000000  0.4534280000000 1.0
C      1  0.5188900000000  0.5271560000000  0.5478470000000 1.0
C      1  0.3906570000000  0.5036610000000  0.4844410000000 1.0
C      1  0.5069070000000  0.5536740000000  0.5812090000000 1.0
C      1  0.4104250000000  0.5478340000000  0.4790660000000 1.0
C      1  0.5030650000000  0.5199030000000  0.5844450000000 1.0
C      1  0.5344500000000  0.4705820000000  0.4112450000000 1.0
C      1  0.5406270000000  0.5613470000000  0.4638810000000 1.0
C      1  0.4223800000000  0.4577270000000  0.5583150000000 1.0
C      1  0.5919570000000  0.5477260000000  0.4523990000000 1.0
C      1  0.5810120000000  0.4229410000000  0.4720440000000 1.0
C      1  0.4819600000000  0.4680080000000  0.4830380000000 1.0
C      1  0.5067590000000  0.4158940000000  0.5600410000000 1.0
C      1  0.4948010000000  0.6007730000000  0.5366310000000 1.0
C      1  0.4242400000000  0.5136580000000  0.5549470000000 1.0
C      1  0.4486000000000  0.4717880000000  0.4273280000000 1.0
C      1  0.4417000000000  0.5236990000000  0.4131070000000 1.0
C      1  0.4476180000000  0.5719040000000  0.4567570000000 1.0
C      1  0.5044560000000  0.4646920000000  0.5931640000000 1.0
C      1  0.5505990000000  0.4793200000000  0.4727360000000 1.0
C      1  0.4938230000000  0.4389390000000  0.5300240000000 1.0
C      1  0.4822330000000  0.5251170000000  0.4688080000000 1.0
C      1  0.4561750000000  0.4583050000000  0.5624800000000 1.0
C      1  0.4422470000000  0.5898700000000  0.4804610000000 1.0
C      1  0.3935940000000  0.5323420000000  0.4966250000000 1.0
C      1  0.5273880000000  0.5187940000000  0.4732230000000 1.0
C      1  0.5681340000000  0.5962890000000  0.5135420000000 1.0
C      1  0.4904490000000  0.4387620000000  0.5791370000000 1.0
C      1  0.5862110000000  0.4331200000000  0.5267880000000 1.0
C      1  0.5859040000000  0.4913090000000  0.5289680000000 1.0
C      1  0.5760160000000  0.5033130000000  0.4921860000000 1.0
C      1  0.4685180000000  0.5065600000000  0.4039270000000 1.0
C      1  0.5317460000000  0.5100710000000  0.5979930000000 1.0
C      1  0.4274010000000  0.5054820000000  0.4380130000000 1.0
C      1  0.5469340000000  0.5353400000000  0.5937500000000 1.0
C      1  0.5357820000000  0.4591490000000  0.5918530000000 1.0
C      1  0.5407270000000  0.5406810000000  0.5642910000000 1.0
C      1  0.5867010000000  0.4825130000000  0.4558620000000 1.0
END
