TITL C-2778430-5657-912 0.00319698900523121 125000 -993.714098275794 0 0 170 (C1) n - 1
REM
REM in /home/nfs/bkarasulu/CARBON/AIRSS/Generating-Clusters/REBO/Only-C1/SD-CG/HFTN-CG
REM
REM
REM
REM
REM
REM ./C.cell (11c1c37f851c82e70ff6c80c92926a4b)
REM
REM compiler GCC version 9.2.1 20190827 (Red Hat 9.2.1-1)
REM options -cpp -mtune=generic -march=x86-64 -g -O0 -fpre-include=/usr/include/finclude/math-vector-fortran.h
REM seed 1611939304 1350754117 1446490028 595971720 678896766 318889221 1750460887 224840081 -928476715 -1661745830 224130323 329843902 1537591272 551085510 -1523230745 -793687048 1865965160 1281797283 1340648300 1767052355 -270178391 -1972432439 33048349 -1515942853 941669893 1282823378 92077761 -263894288 -1366413707 -1687337335 1847098577 356087849 213635687
REM
CELL 1.54180   50.00000   50.00000   50.00000   90.00000   90.00000   90.00000
LATT -1
SFAC C  
C      1  0.4665270000000  0.4555680000000  0.5169540000000 1.0
C      1  0.5045670000000  0.3897370000000  0.5123450000000 1.0
C      1  0.5404290000000  0.4433640000000  0.5613550000000 1.0
C      1  0.4750640000000  0.5992930000000  0.5071280000000 1.0
C      1  0.4276400000000  0.4292820000000  0.4908870000000 1.0
C      1  0.5843070000000  0.5121600000000  0.4359690000000 1.0
C      1  0.5149400000000  0.4066370000000  0.4618540000000 1.0
C      1  0.4566500000000  0.4931930000000  0.5998000000000 1.0
C      1  0.4962860000000  0.4898380000000  0.3961700000000 1.0
C      1  0.5221900000000  0.4169040000000  0.4301110000000 1.0
C      1  0.4810430000000  0.4106730000000  0.5063410000000 1.0
C      1  0.5164480000000  0.4796180000000  0.5250380000000 1.0
C      1  0.5451420000000  0.5508300000000  0.4367330000000 1.0
C      1  0.4468040000000  0.4739960000000  0.4682660000000 1.0
C      1  0.5884580000000  0.4646040000000  0.5292420000000 1.0
C      1  0.5535040000000  0.5176710000000  0.5528870000000 1.0
C      1  0.5980890000000  0.5341010000000  0.5587430000000 1.0
C      1  0.5287480000000  0.5704130000000  0.5799580000000 1.0
C      1  0.4638180000000  0.5287740000000  0.5941860000000 1.0
C      1  0.4788780000000  0.4657240000000  0.4749400000000 1.0
C      1  0.5168870000000  0.5940460000000  0.4827160000000 1.0
C      1  0.5573390000000  0.5846170000000  0.5388150000000 1.0
C      1  0.4098890000000  0.5330150000000  0.4582110000000 1.0
C      1  0.4911290000000  0.5257100000000  0.4361100000000 1.0
C      1  0.5080410000000  0.4927670000000  0.5679320000000 1.0
C      1  0.4114010000000  0.4770360000000  0.5678500000000 1.0
C      1  0.5527710000000  0.4454510000000  0.5026300000000 1.0
C      1  0.4374420000000  0.4696050000000  0.5202440000000 1.0
C      1  0.4819170000000  0.4664660000000  0.4350640000000 1.0
C      1  0.5547430000000  0.5702610000000  0.5653560000000 1.0
C      1  0.5192590000000  0.5568720000000  0.5435360000000 1.0
C      1  0.5930910000000  0.4511910000000  0.4546970000000 1.0
C      1  0.4765780000000  0.5342400000000  0.5255330000000 1.0
C      1  0.4883060000000  0.4728590000000  0.5523960000000 1.0
C      1  0.5242570000000  0.5390900000000  0.3939760000000 1.0
C      1  0.5588320000000  0.4717290000000  0.4544500000000 1.0
C      1  0.5550660000000  0.4423130000000  0.4627540000000 1.0
C      1  0.5256950000000  0.4376990000000  0.4640110000000 1.0
C      1  0.5136590000000  0.4516020000000  0.5445230000000 1.0
C      1  0.5554550000000  0.5241330000000  0.4305850000000 1.0
C      1  0.5811490000000  0.5384320000000  0.4575360000000 1.0
C      1  0.4379460000000  0.3996430000000  0.5265960000000 1.0
C      1  0.4473740000000  0.4997350000000  0.4095610000000 1.0
C      1  0.5281460000000  0.4141350000000  0.5527430000000 1.0
C      1  0.5661470000000  0.4877230000000  0.4188280000000 1.0
C      1  0.4522720000000  0.4491010000000  0.4895820000000 1.0
C      1  0.5551740000000  0.4729870000000  0.5679710000000 1.0
C      1  0.4507850000000  0.5776630000000  0.5170720000000 1.0
C      1  0.4751580000000  0.4312220000000  0.5326690000000 1.0
C      1  0.4865520000000  0.4529500000000  0.5870190000000 1.0
C      1  0.4368250000000  0.4911460000000  0.4960250000000 1.0
C      1  0.4668340000000  0.4371970000000  0.5651980000000 1.0
C      1  0.4595220000000  0.5107260000000  0.4604100000000 1.0
C      1  0.4275390000000  0.5050970000000  0.5346330000000 1.0
C      1  0.4470280000000  0.4819910000000  0.5504750000000 1.0
C      1  0.5971300000000  0.4873100000000  0.4882820000000 1.0
C      1  0.5606300000000  0.5784200000000  0.4899720000000 1.0
C      1  0.5497450000000  0.3974390000000  0.5108860000000 1.0
C      1  0.5556770000000  0.4990250000000  0.5175730000000 1.0
C      1  0.4027110000000  0.4887430000000  0.5166420000000 1.0
C      1  0.5201260000000  0.5126420000000  0.3978230000000 1.0
C      1  0.5375460000000  0.4816410000000  0.5921490000000 1.0
C      1  0.4816130000000  0.4599040000000  0.4013510000000 1.0
C      1  0.4104960000000  0.4561210000000  0.4674120000000 1.0
C      1  0.4848100000000  0.5865730000000  0.5355020000000 1.0
C      1  0.4768860000000  0.5566120000000  0.5942770000000 1.0
C      1  0.5857340000000  0.4860180000000  0.5689310000000 1.0
C      1  0.6009130000000  0.5232100000000  0.5043710000000 1.0
C      1  0.4733490000000  0.3829640000000  0.4740080000000 1.0
C      1  0.5243640000000  0.6131060000000  0.5068780000000 1.0
C      1  0.4824370000000  0.4819310000000  0.5222680000000 1.0
C      1  0.5000290000000  0.3854490000000  0.4818150000000 1.0
C      1  0.4455680000000  0.5575400000000  0.4928540000000 1.0
C      1  0.4235340000000  0.5485480000000  0.4357160000000 1.0
C      1  0.5377560000000  0.5603090000000  0.4870450000000 1.0
C      1  0.4496460000000  0.4147700000000  0.5462830000000 1.0
C      1  0.4275880000000  0.5374880000000  0.5581580000000 1.0
C      1  0.5723820000000  0.4370480000000  0.5658810000000 1.0
C      1  0.5662140000000  0.5323830000000  0.4868620000000 1.0
C      1  0.5294190000000  0.5012470000000  0.5472590000000 1.0
C      1  0.5643260000000  0.5679920000000  0.4581620000000 1.0
C      1  0.5097510000000  0.4688500000000  0.5900830000000 1.0
C      1  0.4696850000000  0.5782550000000  0.4497940000000 1.0
C      1  0.5329650000000  0.6002890000000  0.5314780000000 1.0
C      1  0.6018610000000  0.4949900000000  0.5215740000000 1.0
C      1  0.5247440000000  0.5567550000000  0.4149510000000 1.0
C      1  0.5630570000000  0.4826140000000  0.5362760000000 1.0
C      1  0.4990430000000  0.4354910000000  0.4165310000000 1.0
C      1  0.4269920000000  0.4928150000000  0.5831980000000 1.0
C      1  0.3969050000000  0.5187030000000  0.5411720000000 1.0
C      1  0.5143120000000  0.4469550000000  0.4919650000000 1.0
C      1  0.5121650000000  0.5242860000000  0.5919650000000 1.0
C      1  0.5389860000000  0.4222650000000  0.5113290000000 1.0
C      1  0.5102990000000  0.4524500000000  0.4435730000000 1.0
C      1  0.5186490000000  0.3952360000000  0.5359160000000 1.0
C      1  0.5721720000000  0.5748280000000  0.5159050000000 1.0
C      1  0.4688880000000  0.5597790000000  0.5395900000000 1.0
C      1  0.4717660000000  0.5391640000000  0.4681020000000 1.0
C      1  0.3959980000000  0.5324910000000  0.5674580000000 1.0
C      1  0.5213020000000  0.5511630000000  0.5136220000000 1.0
C      1  0.5750190000000  0.4268660000000  0.4442010000000 1.0
C      1  0.3993950000000  0.4395740000000  0.4923620000000 1.0
C      1  0.4697400000000  0.5764840000000  0.4821250000000 1.0
C      1  0.4545840000000  0.4459730000000  0.4354350000000 1.0
C      1  0.5577690000000  0.5230160000000  0.5820580000000 1.0
C      1  0.4620280000000  0.5793660000000  0.5942880000000 1.0
C      1  0.5379130000000  0.5097680000000  0.5967440000000 1.0
C      1  0.5800270000000  0.5455940000000  0.5134260000000 1.0
C      1  0.5323590000000  0.4721470000000  0.4986200000000 1.0
C      1  0.5300560000000  0.5483110000000  0.4640810000000 1.0
C      1  0.4575430000000  0.4679200000000  0.5769420000000 1.0
C      1  0.5891890000000  0.4795660000000  0.4411240000000 1.0
C      1  0.4452090000000  0.5173470000000  0.5704280000000 1.0
C      1  0.4511550000000  0.4000610000000  0.5023130000000 1.0
C      1  0.4261270000000  0.5059230000000  0.4560830000000 1.0
C      1  0.4740770000000  0.4357270000000  0.4593080000000 1.0
C      1  0.5000980000000  0.5704900000000  0.4951870000000 1.0
C      1  0.4734740000000  0.5122740000000  0.3974210000000 1.0
C      1  0.4845960000000  0.4948710000000  0.4437700000000 1.0
C      1  0.5034720000000  0.5799310000000  0.4545120000000 1.0
C      1  0.4678970000000  0.5024820000000  0.4912630000000 1.0
C      1  0.5367450000000  0.5870090000000  0.4572850000000 1.0
C      1  0.5739520000000  0.5301920000000  0.5387320000000 1.0
C      1  0.4080980000000  0.4836550000000  0.4692240000000 1.0
C      1  0.5112430000000  0.5343230000000  0.5594430000000 1.0
C      1  0.3949810000000  0.4958540000000  0.4910340000000 1.0
C      1  0.4104090000000  0.4695650000000  0.5406840000000 1.0
C      1  0.5670060000000  0.5012320000000  0.4881330000000 1.0
C      1  0.4507290000000  0.4666600000000  0.4101800000000 1.0
C      1  0.4628450000000  0.5416150000000  0.4352980000000 1.0
C      1  0.5807220000000  0.4487040000000  0.5046030000000 1.0
C      1  0.4231990000000  0.5434750000000  0.5246800000000 1.0
C      1  0.4984510000000  0.5589420000000  0.4300030000000 1.0
C      1  0.4975580000000  0.4918510000000  0.4814270000000 1.0
C      1  0.5372560000000  0.5235240000000  0.5026980000000 1.0
C      1  0.4547690000000  0.4097200000000  0.4700450000000 1.0
C      1  0.4744650000000  0.5403700000000  0.3971840000000 1.0
C      1  0.4359220000000  0.5250690000000  0.4990990000000 1.0
C      1  0.4376020000000  0.5720690000000  0.4403660000000 1.0
C      1  0.5998640000000  0.5032280000000  0.5527280000000 1.0
C      1  0.3906060000000  0.5259160000000  0.4857490000000 1.0
C      1  0.5062480000000  0.5561260000000  0.5920880000000 1.0
C      1  0.5922440000000  0.4462590000000  0.5535980000000 1.0
C      1  0.5168770000000  0.4989180000000  0.4545500000000 1.0
C      1  0.5115250000000  0.5847340000000  0.5438580000000 1.0
C      1  0.5462140000000  0.4611560000000  0.4244160000000 1.0
C      1  0.5418590000000  0.4886370000000  0.4732210000000 1.0
C      1  0.5483360000000  0.4293870000000  0.4258450000000 1.0
C      1  0.5054520000000  0.5371360000000  0.4625850000000 1.0
C      1  0.4963080000000  0.6215360000000  0.5031140000000 1.0
C      1  0.5339750000000  0.4992260000000  0.4249960000000 1.0
C      1  0.4928350000000  0.4245900000000  0.4819340000000 1.0
C      1  0.4343990000000  0.4340190000000  0.4572340000000 1.0
C      1  0.4696690000000  0.5678800000000  0.4168710000000 1.0
C      1  0.5010500000000  0.5149210000000  0.5355490000000 1.0
C      1  0.4409970000000  0.4832950000000  0.4381650000000 1.0
C      1  0.3920210000000  0.5368400000000  0.5158880000000 1.0
C      1  0.5114810000000  0.4315720000000  0.5209070000000 1.0
C      1  0.5043770000000  0.5166050000000  0.5028170000000 1.0
C      1  0.5167750000000  0.4713220000000  0.4161540000000 1.0
C      1  0.4602360000000  0.5065850000000  0.5243620000000 1.0
C      1  0.4873910000000  0.5077330000000  0.5983290000000 1.0
C      1  0.5951380000000  0.4577190000000  0.4821260000000 1.0
C      1  0.4753970000000  0.5019640000000  0.5661000000000 1.0
C      1  0.4153390000000  0.5488280000000  0.4858980000000 1.0
C      1  0.5731690000000  0.5486240000000  0.5740620000000 1.0
C      1  0.4375510000000  0.5651770000000  0.5451280000000 1.0
C      1  0.4850640000000  0.5422780000000  0.4960910000000 1.0
C      1  0.4388720000000  0.5276180000000  0.4201570000000 1.0
C      1  0.6011390000000  0.5180170000000  0.4742140000000 1.0
END
