TITL C-2778431-5191-51 -0.00251991328135651 125000 -1043.27246130895 0 0 179 (C1) n - 1
REM
REM in /home/nfs/bkarasulu/CARBON/AIRSS/Generating-Clusters/REBO/Only-C1/SD-CG/HFTN-CG
REM
REM
REM
REM
REM
REM ./C.cell (11c1c37f851c82e70ff6c80c92926a4b)
REM
REM compiler GCC version 9.2.1 20190827 (Red Hat 9.2.1-1)
REM options -cpp -mtune=generic -march=x86-64 -g -O0 -fpre-include=/usr/include/finclude/math-vector-fortran.h
REM seed 660718758 -1068648156 -519209413 -1582348537 -1763761264 546667573 1185274628 1033361834 262286993 -760851283 -693884115 -1045356270 532228101 -998643590 -382915820 2091638774 1625956380 -50067488 -2067495277 -1434748726 254441429 168937852 -481615353 1929023301 -1527627402 758887051 417522799 1523442789 -2021158740 -1034479965 26218685 -1846987310 -690162191
REM
CELL 1.54180   50.00000   50.00000   50.00000   90.00000   90.00000   90.00000
LATT -1
SFAC C  
C      1  0.4270770000000  0.5358350000000  0.5758880000000 1.0
C      1  0.5107860000000  0.4881830000000  0.4326430000000 1.0
C      1  0.4273250000000  0.5176170000000  0.4829080000000 1.0
C      1  0.5635520000000  0.4713470000000  0.5425210000000 1.0
C      1  0.4177970000000  0.4878890000000  0.5300130000000 1.0
C      1  0.4686580000000  0.5224910000000  0.5923350000000 1.0
C      1  0.4435690000000  0.5641510000000  0.5670170000000 1.0
C      1  0.5469470000000  0.4793170000000  0.5943010000000 1.0
C      1  0.5469510000000  0.4877080000000  0.4794730000000 1.0
C      1  0.4680400000000  0.4264260000000  0.5266760000000 1.0
C      1  0.4386850000000  0.4808140000000  0.5510540000000 1.0
C      1  0.4827850000000  0.4890180000000  0.3915510000000 1.0
C      1  0.4487430000000  0.5431530000000  0.4608730000000 1.0
C      1  0.4714330000000  0.4417580000000  0.5898630000000 1.0
C      1  0.5620080000000  0.4841110000000  0.4244470000000 1.0
C      1  0.5242360000000  0.4414650000000  0.4800700000000 1.0
C      1  0.4661800000000  0.4638640000000  0.4660420000000 1.0
C      1  0.4831590000000  0.4502580000000  0.4886330000000 1.0
C      1  0.4691320000000  0.4812110000000  0.5378190000000 1.0
C      1  0.4652150000000  0.5438950000000  0.5678380000000 1.0
C      1  0.5324380000000  0.4299540000000  0.5796630000000 1.0
C      1  0.4962150000000  0.3911550000000  0.4600350000000 1.0
C      1  0.5777730000000  0.4629640000000  0.4429600000000 1.0
C      1  0.5030600000000  0.5346290000000  0.4113390000000 1.0
C      1  0.4833630000000  0.5769310000000  0.5268740000000 1.0
C      1  0.5116800000000  0.4288660000000  0.4298680000000 1.0
C      1  0.5006040000000  0.4832990000000  0.4632110000000 1.0
C      1  0.5137960000000  0.4035480000000  0.4851790000000 1.0
C      1  0.4275780000000  0.5687620000000  0.4586520000000 1.0
C      1  0.5824140000000  0.4563650000000  0.4752130000000 1.0
C      1  0.4516190000000  0.5277970000000  0.4021170000000 1.0
C      1  0.5463940000000  0.6145420000000  0.4348240000000 1.0
C      1  0.4796070000000  0.4910200000000  0.5996480000000 1.0
C      1  0.4617630000000  0.4968860000000  0.4252930000000 1.0
C      1  0.5121040000000  0.5103060000000  0.5320340000000 1.0
C      1  0.4324700000000  0.4511850000000  0.5601600000000 1.0
C      1  0.5961680000000  0.5211340000000  0.5284540000000 1.0
C      1  0.5254290000000  0.4569740000000  0.5106940000000 1.0
C      1  0.4691290000000  0.4566700000000  0.5158780000000 1.0
C      1  0.4033070000000  0.5244740000000  0.5352660000000 1.0
C      1  0.4715400000000  0.5808630000000  0.4891740000000 1.0
C      1  0.5188640000000  0.4735720000000  0.4826770000000 1.0
C      1  0.4430130000000  0.4962350000000  0.4679100000000 1.0
C      1  0.4485460000000  0.5870570000000  0.5430570000000 1.0
C      1  0.5479220000000  0.4641050000000  0.4572930000000 1.0
C      1  0.5673330000000  0.5419980000000  0.4337390000000 1.0
C      1  0.4797430000000  0.5168350000000  0.3957120000000 1.0
C      1  0.5370180000000  0.4196650000000  0.5029380000000 1.0
C      1  0.5243110000000  0.4590830000000  0.5864360000000 1.0
C      1  0.4970080000000  0.5408180000000  0.5914490000000 1.0
C      1  0.5144320000000  0.6160850000000  0.5338530000000 1.0
C      1  0.5571940000000  0.5129460000000  0.4662840000000 1.0
C      1  0.4746200000000  0.6032840000000  0.5118890000000 1.0
C      1  0.5617390000000  0.4117970000000  0.4634360000000 1.0
C      1  0.3973190000000  0.4577710000000  0.4919560000000 1.0
C      1  0.5336680000000  0.4714820000000  0.5574980000000 1.0
C      1  0.5173400000000  0.5391720000000  0.5641720000000 1.0
C      1  0.4113930000000  0.5142330000000  0.4345140000000 1.0
C      1  0.5646010000000  0.4326210000000  0.4418700000000 1.0
C      1  0.5884050000000  0.5692210000000  0.5184650000000 1.0
C      1  0.4276810000000  0.5116280000000  0.4108580000000 1.0
C      1  0.5262770000000  0.5735250000000  0.5821010000000 1.0
C      1  0.3956230000000  0.5310660000000  0.5027140000000 1.0
C      1  0.4612130000000  0.4244570000000  0.5526180000000 1.0
C      1  0.4389180000000  0.4846880000000  0.4424160000000 1.0
C      1  0.5683870000000  0.4799410000000  0.5753880000000 1.0
C      1  0.5534340000000  0.4280250000000  0.5589610000000 1.0
C      1  0.5811520000000  0.5328290000000  0.5588140000000 1.0
C      1  0.5550190000000  0.5127850000000  0.4337830000000 1.0
C      1  0.5319400000000  0.4712370000000  0.4164200000000 1.0
C      1  0.5722430000000  0.4084680000000  0.5180790000000 1.0
C      1  0.4931360000000  0.5779290000000  0.4633370000000 1.0
C      1  0.4740730000000  0.4953830000000  0.4749370000000 1.0
C      1  0.4743500000000  0.3961010000000  0.5125140000000 1.0
C      1  0.4182350000000  0.4396500000000  0.5366350000000 1.0
C      1  0.4926670000000  0.4088010000000  0.4377250000000 1.0
C      1  0.5068520000000  0.4228530000000  0.5439770000000 1.0
C      1  0.4937440000000  0.6241100000000  0.5221550000000 1.0
C      1  0.6042840000000  0.4949620000000  0.4993930000000 1.0
C      1  0.4181060000000  0.4341550000000  0.5031260000000 1.0
C      1  0.5047500000000  0.5012530000000  0.5582780000000 1.0
C      1  0.5353300000000  0.5055610000000  0.5994110000000 1.0
C      1  0.5098010000000  0.4501630000000  0.4114430000000 1.0
C      1  0.4343660000000  0.5922280000000  0.4810170000000 1.0
C      1  0.3999720000000  0.5000970000000  0.4597130000000 1.0
C      1  0.5496030000000  0.5356310000000  0.5083040000000 1.0
C      1  0.4358990000000  0.4573450000000  0.4737800000000 1.0
C      1  0.4106490000000  0.5091350000000  0.5619720000000 1.0
C      1  0.3803000000000  0.4850980000000  0.4987350000000 1.0
C      1  0.5451160000000  0.5804860000000  0.5580680000000 1.0
C      1  0.5320230000000  0.4352090000000  0.4505600000000 1.0
C      1  0.5567440000000  0.4758720000000  0.3935720000000 1.0
C      1  0.5816200000000  0.5517980000000  0.4553730000000 1.0
C      1  0.5509230000000  0.5863680000000  0.4449390000000 1.0
C      1  0.5138660000000  0.4544010000000  0.5376960000000 1.0
C      1  0.5387970000000  0.3963230000000  0.4639850000000 1.0
C      1  0.4244230000000  0.5481490000000  0.4936130000000 1.0
C      1  0.4079050000000  0.4701150000000  0.4630590000000 1.0
C      1  0.4431070000000  0.4837150000000  0.4027000000000 1.0
C      1  0.4794320000000  0.3831620000000  0.4829870000000 1.0
C      1  0.4564370000000  0.5022990000000  0.5692000000000 1.0
C      1  0.5078110000000  0.4152810000000  0.5735800000000 1.0
C      1  0.5061010000000  0.5094350000000  0.5891150000000 1.0
C      1  0.5489710000000  0.5190210000000  0.5774680000000 1.0
C      1  0.5816850000000  0.5316810000000  0.5033400000000 1.0
C      1  0.4993350000000  0.5521970000000  0.5097130000000 1.0
C      1  0.5242650000000  0.5685830000000  0.4521740000000 1.0
C      1  0.4164760000000  0.5363890000000  0.4566750000000 1.0
C      1  0.5370170000000  0.4223190000000  0.5325800000000 1.0
C      1  0.4883490000000  0.5390370000000  0.5462920000000 1.0
C      1  0.5331540000000  0.5359830000000  0.4576730000000 1.0
C      1  0.5015370000000  0.5714360000000  0.4266820000000 1.0
C      1  0.5156890000000  0.5586090000000  0.5381410000000 1.0
C      1  0.5535370000000  0.3873460000000  0.5218070000000 1.0
C      1  0.4790310000000  0.5799050000000  0.5574890000000 1.0
C      1  0.4753820000000  0.5191050000000  0.4353520000000 1.0
C      1  0.5255940000000  0.5580780000000  0.4116520000000 1.0
C      1  0.4190780000000  0.4600720000000  0.4351200000000 1.0
C      1  0.4655500000000  0.4198330000000  0.4386520000000 1.0
C      1  0.4938010000000  0.4727760000000  0.5553580000000 1.0
C      1  0.3885590000000  0.5079570000000  0.4851010000000 1.0
C      1  0.5252990000000  0.5417270000000  0.4904040000000 1.0
C      1  0.4834710000000  0.4165070000000  0.5876160000000 1.0
C      1  0.5449570000000  0.5861970000000  0.5078680000000 1.0
C      1  0.5996980000000  0.5830850000000  0.4915300000000 1.0
C      1  0.4464850000000  0.4726440000000  0.4994870000000 1.0
C      1  0.5573410000000  0.4540330000000  0.4982270000000 1.0
C      1  0.6156960000000  0.5071070000000  0.4697280000000 1.0
C      1  0.5979060000000  0.4887700000000  0.5323180000000 1.0
C      1  0.4358630000000  0.5332270000000  0.5428470000000 1.0
C      1  0.5758260000000  0.5835140000000  0.4670230000000 1.0
C      1  0.4987600000000  0.5465440000000  0.4701540000000 1.0
C      1  0.5850490000000  0.5136370000000  0.4777710000000 1.0
C      1  0.4892300000000  0.4628260000000  0.3964300000000 1.0
C      1  0.4368890000000  0.4262570000000  0.4806120000000 1.0
C      1  0.5507230000000  0.5622030000000  0.4230340000000 1.0
C      1  0.4311200000000  0.4964580000000  0.5060780000000 1.0
C      1  0.5425050000000  0.5114850000000  0.5243790000000 1.0
C      1  0.4454830000000  0.4530930000000  0.5864060000000 1.0
C      1  0.4920710000000  0.4642580000000  0.5864880000000 1.0
C      1  0.5505490000000  0.5966840000000  0.4835200000000 1.0
C      1  0.5886630000000  0.4558040000000  0.5306900000000 1.0
C      1  0.4607410000000  0.4153620000000  0.4684180000000 1.0
C      1  0.4612350000000  0.5901650000000  0.4594910000000 1.0
C      1  0.4551430000000  0.5667200000000  0.4377430000000 1.0
C      1  0.4723690000000  0.5479630000000  0.4195100000000 1.0
C      1  0.4405070000000  0.5610780000000  0.5274390000000 1.0
C      1  0.4645860000000  0.5151600000000  0.5403560000000 1.0
C      1  0.4027730000000  0.4639030000000  0.5241170000000 1.0
C      1  0.4241030000000  0.5059910000000  0.5919630000000 1.0
C      1  0.4861940000000  0.4223380000000  0.4828960000000 1.0
C      1  0.5541040000000  0.4847020000000  0.5126020000000 1.0
C      1  0.5288770000000  0.5891310000000  0.5329920000000 1.0
C      1  0.5425770000000  0.6382910000000  0.4262980000000 1.0
C      1  0.5494700000000  0.5495530000000  0.5716350000000 1.0
C      1  0.4846300000000  0.4667440000000  0.4377280000000 1.0
C      1  0.4088090000000  0.5550510000000  0.5230600000000 1.0
C      1  0.4738570000000  0.5264100000000  0.4674600000000 1.0
C      1  0.5442640000000  0.5036710000000  0.5544340000000 1.0
C      1  0.5676610000000  0.4228800000000  0.4908610000000 1.0
C      1  0.4467520000000  0.4828300000000  0.5954530000000 1.0
C      1  0.5612070000000  0.5641150000000  0.5143270000000 1.0
C      1  0.5940840000000  0.5521110000000  0.4828390000000 1.0
C      1  0.4968280000000  0.5707120000000  0.5775640000000 1.0
C      1  0.5213480000000  0.5175330000000  0.4313700000000 1.0
C      1  0.5761660000000  0.4276340000000  0.5385150000000 1.0
C      1  0.4553730000000  0.5575850000000  0.4999130000000 1.0
C      1  0.5262900000000  0.3850370000000  0.5205910000000 1.0
C      1  0.4935710000000  0.5128230000000  0.5130980000000 1.0
C      1  0.5837000000000  0.5013030000000  0.5603370000000 1.0
C      1  0.4742940000000  0.5334760000000  0.4995950000000 1.0
C      1  0.5984720000000  0.5521810000000  0.5382800000000 1.0
C      1  0.4401250000000  0.4565140000000  0.4141080000000 1.0
C      1  0.5957120000000  0.4647990000000  0.5006270000000 1.0
C      1  0.6195620000000  0.6018550000000  0.4922330000000 1.0
C      1  0.5033490000000  0.3989170000000  0.5247410000000 1.0
C      1  0.4640130000000  0.4455730000000  0.4257980000000 1.0
C      1  0.4569530000000  0.3776770000000  0.5262720000000 1.0
C      1  0.4421980000000  0.5972920000000  0.5107610000000 1.0
END
