TITL C-2778433-5640-755 -0.00146991045539743 125000 -560.596292152057 0 0 100 (C1) n - 1
REM
REM in /home/nfs/bkarasulu/CARBON/AIRSS/Generating-Clusters/REBO/Only-C1/SD-CG/HFTN-CG
REM
REM
REM
REM
REM
REM ./C.cell (11c1c37f851c82e70ff6c80c92926a4b)
REM
REM compiler GCC version 9.2.1 20190827 (Red Hat 9.2.1-1)
REM options -cpp -mtune=generic -march=x86-64 -g -O0 -fpre-include=/usr/include/finclude/math-vector-fortran.h
REM seed 26520710 -882224950 2020073143 1755496174 1123235368 -1613505301 770184994 -334359592 -760928153 150478907 -77073311 -940871454 -621491806 481299086 -943957371 159958633 9507716 -1138742008 -342927489 -161123087 990386360 -1809620853 -881536518 -429766550 1339186660 1794764796 -1836184147 -1141152314 1162354277 -1981498937 -132220505 915468974 697607060
REM
CELL 1.54180   50.00000   50.00000   50.00000   90.00000   90.00000   90.00000
LATT -1
SFAC C  
C      1  0.5363720000000  0.4158170000000  0.5446240000000 1.0
C      1  0.4733300000000  0.5296940000000  0.5346910000000 1.0
C      1  0.5522880000000  0.5629610000000  0.4666740000000 1.0
C      1  0.4462870000000  0.5491380000000  0.4637050000000 1.0
C      1  0.5657710000000  0.5081040000000  0.5151100000000 1.0
C      1  0.5038320000000  0.5300210000000  0.4213440000000 1.0
C      1  0.4909410000000  0.5070150000000  0.4825680000000 1.0
C      1  0.5095710000000  0.5792960000000  0.4832730000000 1.0
C      1  0.5061800000000  0.5241510000000  0.5400390000000 1.0
C      1  0.5174060000000  0.5609200000000  0.4272260000000 1.0
C      1  0.4614870000000  0.4592760000000  0.4999530000000 1.0
C      1  0.5216060000000  0.5618480000000  0.5731060000000 1.0
C      1  0.4867670000000  0.5449690000000  0.4469500000000 1.0
C      1  0.4973500000000  0.4204720000000  0.4758340000000 1.0
C      1  0.5154240000000  0.5233740000000  0.5680190000000 1.0
C      1  0.5210360000000  0.4132140000000  0.5215870000000 1.0
C      1  0.4297010000000  0.4984670000000  0.4362270000000 1.0
C      1  0.5205720000000  0.5081610000000  0.4717530000000 1.0
C      1  0.4869660000000  0.4897600000000  0.5590170000000 1.0
C      1  0.5430030000000  0.5502960000000  0.5483800000000 1.0
C      1  0.5128960000000  0.4795460000000  0.5872540000000 1.0
C      1  0.5285340000000  0.4789410000000  0.4619660000000 1.0
C      1  0.5156210000000  0.4978260000000  0.5302130000000 1.0
C      1  0.4149380000000  0.4604930000000  0.5336960000000 1.0
C      1  0.5611610000000  0.5241900000000  0.5437370000000 1.0
C      1  0.4925140000000  0.5773950000000  0.4388980000000 1.0
C      1  0.5525570000000  0.5257890000000  0.4362350000000 1.0
C      1  0.4520470000000  0.5140940000000  0.4190440000000 1.0
C      1  0.4795960000000  0.4692900000000  0.4761440000000 1.0
C      1  0.4831870000000  0.5805210000000  0.4683180000000 1.0
C      1  0.4411340000000  0.5508960000000  0.5257880000000 1.0
C      1  0.5681260000000  0.4758900000000  0.4663640000000 1.0
C      1  0.5501050000000  0.4475340000000  0.4739270000000 1.0
C      1  0.5467760000000  0.4898280000000  0.5354190000000 1.0
C      1  0.4440580000000  0.5199810000000  0.4576800000000 1.0
C      1  0.4280600000000  0.4552200000000  0.5034810000000 1.0
C      1  0.5427350000000  0.5220860000000  0.5767350000000 1.0
C      1  0.4892840000000  0.4180230000000  0.5273650000000 1.0
C      1  0.5130710000000  0.4643460000000  0.4111650000000 1.0
C      1  0.4335280000000  0.4827530000000  0.4841990000000 1.0
C      1  0.5077860000000  0.4337050000000  0.4471870000000 1.0
C      1  0.5224170000000  0.5272080000000  0.4485770000000 1.0
C      1  0.5455060000000  0.5673400000000  0.4959220000000 1.0
C      1  0.4670940000000  0.4484620000000  0.4241950000000 1.0
C      1  0.4466680000000  0.4541120000000  0.5784870000000 1.0
C      1  0.4554810000000  0.4507650000000  0.4501840000000 1.0
C      1  0.4457790000000  0.4800650000000  0.4578360000000 1.0
C      1  0.5179930000000  0.5951260000000  0.5041730000000 1.0
C      1  0.4658660000000  0.4325370000000  0.4691180000000 1.0
C      1  0.5308460000000  0.5595510000000  0.5186830000000 1.0
C      1  0.5886020000000  0.5451040000000  0.4993240000000 1.0
C      1  0.5321310000000  0.5824970000000  0.5513730000000 1.0
C      1  0.4969450000000  0.5423030000000  0.5864120000000 1.0
C      1  0.5420130000000  0.4707980000000  0.5720320000000 1.0
C      1  0.5433380000000  0.4408780000000  0.5558680000000 1.0
C      1  0.4643320000000  0.5630230000000  0.4806700000000 1.0
C      1  0.4096810000000  0.4837080000000  0.5085830000000 1.0
C      1  0.4490540000000  0.4874520000000  0.5144350000000 1.0
C      1  0.4352210000000  0.5032160000000  0.5388390000000 1.0
C      1  0.5665340000000  0.5375240000000  0.4797160000000 1.0
C      1  0.4121320000000  0.5398230000000  0.5277770000000 1.0
C      1  0.4569260000000  0.4804790000000  0.5631450000000 1.0
C      1  0.5724950000000  0.4674830000000  0.5049860000000 1.0
C      1  0.4109050000000  0.5145060000000  0.5095140000000 1.0
C      1  0.5462060000000  0.4837630000000  0.4903070000000 1.0
C      1  0.4968790000000  0.4910130000000  0.5070400000000 1.0
C      1  0.5376230000000  0.4726330000000  0.4300010000000 1.0
C      1  0.5013320000000  0.4613810000000  0.5016270000000 1.0
C      1  0.5262720000000  0.5981750000000  0.5296290000000 1.0
C      1  0.5379510000000  0.4437510000000  0.4459130000000 1.0
C      1  0.5272300000000  0.4265940000000  0.4908720000000 1.0
C      1  0.4585160000000  0.5171560000000  0.4842920000000 1.0
C      1  0.5447280000000  0.5170530000000  0.4915990000000 1.0
C      1  0.4762250000000  0.5157900000000  0.4341220000000 1.0
C      1  0.5583430000000  0.4978030000000  0.5656470000000 1.0
C      1  0.5816160000000  0.5010440000000  0.4858660000000 1.0
C      1  0.4951920000000  0.4459170000000  0.4220570000000 1.0
C      1  0.4948570000000  0.5075060000000  0.5870190000000 1.0
C      1  0.4416020000000  0.5256140000000  0.5053370000000 1.0
C      1  0.5757810000000  0.5155660000000  0.4573480000000 1.0
C      1  0.4726200000000  0.4208740000000  0.4990310000000 1.0
C      1  0.5605350000000  0.4926460000000  0.4378250000000 1.0
C      1  0.5139840000000  0.4723090000000  0.5533990000000 1.0
C      1  0.4625350000000  0.4392630000000  0.5260460000000 1.0
C      1  0.5132650000000  0.5545150000000  0.4662990000000 1.0
C      1  0.4050310000000  0.4920300000000  0.4265130000000 1.0
C      1  0.4122950000000  0.4895090000000  0.5479370000000 1.0
C      1  0.4756410000000  0.4979020000000  0.5294230000000 1.0
C      1  0.5466230000000  0.4599450000000  0.5339090000000 1.0
C      1  0.4445420000000  0.4533760000000  0.5461170000000 1.0
C      1  0.5974020000000  0.4699950000000  0.5111230000000 1.0
C      1  0.4559040000000  0.5147500000000  0.5597740000000 1.0
C      1  0.5090590000000  0.4578480000000  0.4696230000000 1.0
C      1  0.5471240000000  0.4471350000000  0.5062930000000 1.0
C      1  0.4652250000000  0.5337570000000  0.5833300000000 1.0
C      1  0.5026090000000  0.4480560000000  0.5264450000000 1.0
C      1  0.5033590000000  0.5495850000000  0.5189520000000 1.0
C      1  0.5444290000000  0.5586980000000  0.4388780000000 1.0
C      1  0.4707350000000  0.5528430000000  0.5098020000000 1.0
C      1  0.4751650000000  0.4949410000000  0.4558540000000 1.0
END
