TITL C-2778436-5916-1000 -0.00391704356766742 125000 -253.497741251579 0 0 45 (C1) n - 1
REM
REM in /home/nfs/bkarasulu/CARBON/AIRSS/Generating-Clusters/REBO/Only-C1/SD-CG/HFTN-CG
REM
REM
REM
REM
REM
REM ./C.cell (11c1c37f851c82e70ff6c80c92926a4b)
REM
REM compiler GCC version 9.2.1 20190827 (Red Hat 9.2.1-1)
REM options -cpp -mtune=generic -march=x86-64 -g -O0 -fpre-include=/usr/include/finclude/math-vector-fortran.h
REM seed 22076228 -1632902441 -1585678931 1071327147 -408393463 -152874775 1152754475 -1378835038 1470013601 -286251889 -296547973 483345397 2033220336 -992391741 -1658236785 182249287 1619746057 1740386054 -1189508489 -639638603 1110946049 -468505939 1600620578 1149510594 1415645657 1596388287 1296670750 -1526959611 1291167017 647771187 -943939574 1244658452 -1869449273
REM
CELL 1.54180   50.00000   50.00000   50.00000   90.00000   90.00000   90.00000
LATT -1
SFAC C  
C      1  0.5288070000000  0.4602750000000  0.4579890000000 1.0
C      1  0.5369480000000  0.4465360000000  0.4880100000000 1.0
C      1  0.5602350000000  0.4544580000000  0.5031090000000 1.0
C      1  0.5483460000000  0.5096350000000  0.4723430000000 1.0
C      1  0.4666640000000  0.5269890000000  0.5503110000000 1.0
C      1  0.4336140000000  0.5212820000000  0.4498090000000 1.0
C      1  0.4502690000000  0.5207040000000  0.4770730000000 1.0
C      1  0.5197790000000  0.5619220000000  0.4899650000000 1.0
C      1  0.5396210000000  0.5477660000000  0.5339040000000 1.0
C      1  0.4624220000000  0.4762280000000  0.5394140000000 1.0
C      1  0.4595220000000  0.5016980000000  0.4512610000000 1.0
C      1  0.4925100000000  0.4994260000000  0.4354330000000 1.0
C      1  0.4889380000000  0.4798540000000  0.5605780000000 1.0
C      1  0.5056370000000  0.4408810000000  0.5299890000000 1.0
C      1  0.4499880000000  0.4532010000000  0.4987730000000 1.0
C      1  0.4132020000000  0.5307200000000  0.4358980000000 1.0
C      1  0.5312720000000  0.4853430000000  0.4806550000000 1.0
C      1  0.4612600000000  0.5001780000000  0.5596240000000 1.0
C      1  0.5338040000000  0.4775080000000  0.5420950000000 1.0
C      1  0.4281280000000  0.5485670000000  0.5085620000000 1.0
C      1  0.5436770000000  0.5299370000000  0.4909610000000 1.0
C      1  0.5599110000000  0.5022120000000  0.5250780000000 1.0
C      1  0.4843650000000  0.4873230000000  0.4983900000000 1.0
C      1  0.4952040000000  0.4633140000000  0.4522800000000 1.0
C      1  0.4704320000000  0.4746990000000  0.4363780000000 1.0
C      1  0.4689770000000  0.5274120000000  0.5216270000000 1.0
C      1  0.5097490000000  0.4602280000000  0.5490200000000 1.0
C      1  0.5331400000000  0.4872100000000  0.5095450000000 1.0
C      1  0.5165340000000  0.5054130000000  0.5327120000000 1.0
C      1  0.4546390000000  0.4589430000000  0.4206890000000 1.0
C      1  0.5557910000000  0.5298280000000  0.5173540000000 1.0
C      1  0.5167820000000  0.5404250000000  0.4637200000000 1.0
C      1  0.5148330000000  0.5222000000000  0.4435610000000 1.0
C      1  0.4645380000000  0.4722120000000  0.5117060000000 1.0
C      1  0.4937650000000  0.5128440000000  0.5116860000000 1.0
C      1  0.4906720000000  0.5363270000000  0.5644450000000 1.0
C      1  0.5293490000000  0.5692670000000  0.5167030000000 1.0
C      1  0.4492230000000  0.5324510000000  0.5021070000000 1.0
C      1  0.5230250000000  0.4897520000000  0.4419420000000 1.0
C      1  0.4999240000000  0.4795990000000  0.4771370000000 1.0
C      1  0.5637300000000  0.4697770000000  0.5275380000000 1.0
C      1  0.5156510000000  0.4369950000000  0.5045840000000 1.0
C      1  0.5097230000000  0.5304530000000  0.4941990000000 1.0
C      1  0.5209350000000  0.5306310000000  0.5512630000000 1.0
C      1  0.5044680000000  0.5073770000000  0.5705780000000 1.0
END
