TITL C-2778437-8639-659 -0.00400409562548898 125000 -815.895753714374 0 0 141 (C1) n - 1
REM
REM in /home/nfs/bkarasulu/CARBON/AIRSS/Generating-Clusters/REBO/Only-C1/SD-CG/HFTN-CG
REM
REM
REM
REM
REM
REM ./C.cell (11c1c37f851c82e70ff6c80c92926a4b)
REM
REM compiler GCC version 9.2.1 20190827 (Red Hat 9.2.1-1)
REM options -cpp -mtune=generic -march=x86-64 -g -O0 -fpre-include=/usr/include/finclude/math-vector-fortran.h
REM seed 867773658 -571472602 -2107486285 55191177 -1845416225 1459777633 -1475719579 756539184 1561913028 628885169 373729154 1203575091 167052761 1675506054 1444319586 -921592598 -1466384456 809330680 957028529 -543353496 -706130983 -1814340599 67067779 1665268827 1251800319 -1526812989 -1839229252 -1258856201 546521612 -293080054 2147097170 -6337064 -72038562
REM
CELL 1.54180   50.00000   50.00000   50.00000   90.00000   90.00000   90.00000
LATT -1
SFAC C  
C      1  0.4999570000000  0.5451750000000  0.5227170000000 1.0
C      1  0.4967970000000  0.5212690000000  0.5091520000000 1.0
C      1  0.5703410000000  0.4306040000000  0.4562110000000 1.0
C      1  0.5272350000000  0.4758400000000  0.4503690000000 1.0
C      1  0.5019610000000  0.3990000000000  0.5114260000000 1.0
C      1  0.5153230000000  0.4521440000000  0.5542270000000 1.0
C      1  0.4913120000000  0.4653070000000  0.4636530000000 1.0
C      1  0.4387180000000  0.5580990000000  0.4609810000000 1.0
C      1  0.5389710000000  0.5186150000000  0.5706120000000 1.0
C      1  0.4731550000000  0.4792710000000  0.5026410000000 1.0
C      1  0.4613770000000  0.4592700000000  0.5347770000000 1.0
C      1  0.4548960000000  0.4547610000000  0.4408190000000 1.0
C      1  0.5751260000000  0.5377570000000  0.4989570000000 1.0
C      1  0.5257710000000  0.5817310000000  0.5391150000000 1.0
C      1  0.5795850000000  0.5255600000000  0.4516140000000 1.0
C      1  0.4816830000000  0.4082000000000  0.5374940000000 1.0
C      1  0.5050070000000  0.4500260000000  0.5162400000000 1.0
C      1  0.4383660000000  0.4349170000000  0.5321320000000 1.0
C      1  0.5162220000000  0.5775090000000  0.5061000000000 1.0
C      1  0.5097410000000  0.5275420000000  0.4574730000000 1.0
C      1  0.4680360000000  0.4451470000000  0.5713790000000 1.0
C      1  0.5793150000000  0.4831560000000  0.5397730000000 1.0
C      1  0.4531220000000  0.4873090000000  0.5686830000000 1.0
C      1  0.4667230000000  0.4166530000000  0.5080110000000 1.0
C      1  0.4893360000000  0.5646940000000  0.4895530000000 1.0
C      1  0.5915640000000  0.5019620000000  0.4925090000000 1.0
C      1  0.4689000000000  0.6041080000000  0.4938400000000 1.0
C      1  0.5394310000000  0.5555660000000  0.4981380000000 1.0
C      1  0.5501790000000  0.4242020000000  0.5261570000000 1.0
C      1  0.5766700000000  0.4546990000000  0.4874000000000 1.0
C      1  0.5178840000000  0.4220330000000  0.5282400000000 1.0
C      1  0.4563130000000  0.5811770000000  0.4748200000000 1.0
C      1  0.4493890000000  0.3959390000000  0.4651240000000 1.0
C      1  0.5470640000000  0.5327800000000  0.5452090000000 1.0
C      1  0.5050150000000  0.4969110000000  0.4634770000000 1.0
C      1  0.5667640000000  0.5735410000000  0.4393050000000 1.0
C      1  0.3908470000000  0.4732820000000  0.5469060000000 1.0
C      1  0.4416640000000  0.5589440000000  0.5231390000000 1.0
C      1  0.5086620000000  0.4673450000000  0.5902340000000 1.0
C      1  0.5404600000000  0.4365860000000  0.4489590000000 1.0
C      1  0.4503550000000  0.5277350000000  0.4842350000000 1.0
C      1  0.5751880000000  0.4821070000000  0.4765130000000 1.0
C      1  0.4156470000000  0.5241300000000  0.5472070000000 1.0
C      1  0.5681370000000  0.4055430000000  0.5037880000000 1.0
C      1  0.4762850000000  0.5081390000000  0.4381860000000 1.0
C      1  0.5879880000000  0.4904540000000  0.5716550000000 1.0
C      1  0.5382570000000  0.4561010000000  0.5241860000000 1.0
C      1  0.5453150000000  0.4811520000000  0.5422450000000 1.0
C      1  0.4746170000000  0.5074690000000  0.5829220000000 1.0
C      1  0.4736520000000  0.5942750000000  0.5221250000000 1.0
C      1  0.5573830000000  0.5872020000000  0.5373750000000 1.0
C      1  0.5826950000000  0.4788160000000  0.4460090000000 1.0
C      1  0.4212150000000  0.4945960000000  0.5320370000000 1.0
C      1  0.4982580000000  0.5533690000000  0.5724180000000 1.0
C      1  0.3974050000000  0.5151240000000  0.5197850000000 1.0
C      1  0.5268420000000  0.5716560000000  0.4492520000000 1.0
C      1  0.5838860000000  0.4235670000000  0.4833590000000 1.0
C      1  0.5500690000000  0.4443360000000  0.4878600000000 1.0
C      1  0.4940800000000  0.5940160000000  0.4760780000000 1.0
C      1  0.4565400000000  0.5353130000000  0.4455500000000 1.0
C      1  0.4237850000000  0.4971550000000  0.5768500000000 1.0
C      1  0.4445400000000  0.4953690000000  0.4934640000000 1.0
C      1  0.4017750000000  0.5191530000000  0.4859220000000 1.0
C      1  0.5259680000000  0.5438550000000  0.4320670000000 1.0
C      1  0.5726940000000  0.4545880000000  0.4354740000000 1.0
C      1  0.4919410000000  0.5272080000000  0.4197570000000 1.0
C      1  0.4595090000000  0.6301370000000  0.4909590000000 1.0
C      1  0.5236730000000  0.5509010000000  0.5349050000000 1.0
C      1  0.5461250000000  0.5262600000000  0.5131780000000 1.0
C      1  0.5155250000000  0.4977210000000  0.5458560000000 1.0
C      1  0.5355450000000  0.5052970000000  0.4365580000000 1.0
C      1  0.4739610000000  0.5710550000000  0.4475540000000 1.0
C      1  0.4671280000000  0.5215480000000  0.5463980000000 1.0
C      1  0.5250040000000  0.4619540000000  0.4925580000000 1.0
C      1  0.5497390000000  0.5228840000000  0.4569290000000 1.0
C      1  0.5034970000000  0.4834900000000  0.5179070000000 1.0
C      1  0.4401140000000  0.4803220000000  0.4512600000000 1.0
C      1  0.4818730000000  0.5979520000000  0.5509630000000 1.0
C      1  0.5883610000000  0.5045780000000  0.5205520000000 1.0
C      1  0.4952220000000  0.4277110000000  0.4326920000000 1.0
C      1  0.4207330000000  0.4436630000000  0.5119570000000 1.0
C      1  0.4209650000000  0.4697900000000  0.4712930000000 1.0
C      1  0.4783590000000  0.4737280000000  0.5869860000000 1.0
C      1  0.5129530000000  0.5943200000000  0.4570910000000 1.0
C      1  0.4603460000000  0.5540340000000  0.5495310000000 1.0
C      1  0.4573650000000  0.5545250000000  0.4961660000000 1.0
C      1  0.4123800000000  0.4894070000000  0.4934990000000 1.0
C      1  0.5233640000000  0.5376860000000  0.5854980000000 1.0
C      1  0.5442050000000  0.5962810000000  0.5071970000000 1.0
C      1  0.4619250000000  0.4545240000000  0.4735260000000 1.0
C      1  0.5070230000000  0.4166990000000  0.5587090000000 1.0
C      1  0.4676420000000  0.5410050000000  0.5806510000000 1.0
C      1  0.4615590000000  0.5014220000000  0.4655780000000 1.0
C      1  0.5925210000000  0.5273830000000  0.4766570000000 1.0
C      1  0.5703620000000  0.5573720000000  0.5477680000000 1.0
C      1  0.5841770000000  0.5325460000000  0.5306020000000 1.0
C      1  0.5886930000000  0.5042260000000  0.4349710000000 1.0
C      1  0.5580400000000  0.5994490000000  0.4842800000000 1.0
C      1  0.5667820000000  0.5904070000000  0.4604120000000 1.0
C      1  0.4881740000000  0.4597630000000  0.5510200000000 1.0
C      1  0.5447070000000  0.4170300000000  0.4873050000000 1.0
C      1  0.4637950000000  0.4808190000000  0.4118340000000 1.0
C      1  0.4802860000000  0.5651120000000  0.5283410000000 1.0
C      1  0.5149300000000  0.5123550000000  0.4112410000000 1.0
C      1  0.4576440000000  0.4242120000000  0.5533330000000 1.0
C      1  0.4760210000000  0.4066230000000  0.4512810000000 1.0
C      1  0.5808620000000  0.4320570000000  0.5308990000000 1.0
C      1  0.4655550000000  0.4464230000000  0.5051990000000 1.0
C      1  0.5156550000000  0.4418550000000  0.4678550000000 1.0
C      1  0.4426040000000  0.4939500000000  0.4137810000000 1.0
C      1  0.5173630000000  0.4379570000000  0.5831640000000 1.0
C      1  0.5537050000000  0.5536430000000  0.4258000000000 1.0
C      1  0.4715270000000  0.5071150000000  0.5199560000000 1.0
C      1  0.5901230000000  0.4548920000000  0.5335170000000 1.0
C      1  0.4962450000000  0.5210410000000  0.5611750000000 1.0
C      1  0.4224160000000  0.5288130000000  0.4650160000000 1.0
C      1  0.3940710000000  0.5455660000000  0.5053330000000 1.0
C      1  0.5321170000000  0.4834010000000  0.4114280000000 1.0
C      1  0.4649920000000  0.4326780000000  0.4280750000000 1.0
C      1  0.5021300000000  0.5809790000000  0.5593850000000 1.0
C      1  0.4152020000000  0.5498630000000  0.5273570000000 1.0
C      1  0.5427980000000  0.4549220000000  0.4202810000000 1.0
C      1  0.5434370000000  0.4942070000000  0.4741430000000 1.0
C      1  0.4844120000000  0.5429710000000  0.4638280000000 1.0
C      1  0.4847140000000  0.4033020000000  0.4822100000000 1.0
C      1  0.4046200000000  0.4693920000000  0.5181380000000 1.0
C      1  0.4853270000000  0.5545810000000  0.4255640000000 1.0
C      1  0.4310450000000  0.4455220000000  0.4853100000000 1.0
C      1  0.4403730000000  0.5249510000000  0.5675500000000 1.0
C      1  0.4456520000000  0.3999300000000  0.4898970000000 1.0
C      1  0.5102800000000  0.4542150000000  0.4302940000000 1.0
C      1  0.4498940000000  0.4870020000000  0.5369370000000 1.0
C      1  0.5581740000000  0.4908430000000  0.5726330000000 1.0
C      1  0.4882060000000  0.4783370000000  0.4325640000000 1.0
C      1  0.5251210000000  0.5039690000000  0.5011260000000 1.0
C      1  0.4012710000000  0.4852030000000  0.5689000000000 1.0
C      1  0.4333210000000  0.5111720000000  0.4391970000000 1.0
C      1  0.5256040000000  0.4875600000000  0.5763790000000 1.0
C      1  0.5353120000000  0.5471920000000  0.4702650000000 1.0
C      1  0.5151170000000  0.4126190000000  0.4834440000000 1.0
C      1  0.5671320000000  0.5646230000000  0.5145250000000 1.0
END
