TITL C-2778433-5640-946 -0.000964650676202607 125000 -834.889752612089 0 0 143 (C1) n - 1
REM
REM in /home/nfs/bkarasulu/CARBON/AIRSS/Generating-Clusters/REBO/Only-C1/SD-CG/HFTN-CG
REM
REM
REM
REM
REM
REM ./C.cell (11c1c37f851c82e70ff6c80c92926a4b)
REM
REM compiler GCC version 9.2.1 20190827 (Red Hat 9.2.1-1)
REM options -cpp -mtune=generic -march=x86-64 -g -O0 -fpre-include=/usr/include/finclude/math-vector-fortran.h
REM seed 2107635109 649140706 119294690 -983203055 909670593 1410938880 -520268658 985435042 -34819284 1024048786 -542143504 1470816111 -350958456 1122535739 1955692749 -1835658297 -88110311 -1318732336 1814496166 -1239712241 1526610138 1525249898 -202596848 -1337405480 -635117858 534405032 590364405 -1363652134 -1939371382 -326785509 1276315938 -138745779 -1551330996
REM
CELL 1.54180   50.00000   50.00000   50.00000   90.00000   90.00000   90.00000
LATT -1
SFAC C  
C      1  0.5368950000000  0.5057620000000  0.5449820000000 1.0
C      1  0.5663160000000  0.5757690000000  0.5149090000000 1.0
C      1  0.5365710000000  0.4772880000000  0.4811610000000 1.0
C      1  0.5292150000000  0.4479770000000  0.5579360000000 1.0
C      1  0.5750150000000  0.4657740000000  0.5577440000000 1.0
C      1  0.5373680000000  0.4927170000000  0.5974540000000 1.0
C      1  0.4723560000000  0.4550870000000  0.5823270000000 1.0
C      1  0.5429740000000  0.5850250000000  0.4914920000000 1.0
C      1  0.4775350000000  0.4036560000000  0.5159000000000 1.0
C      1  0.5295850000000  0.4038700000000  0.4903330000000 1.0
C      1  0.5825050000000  0.5031870000000  0.4595500000000 1.0
C      1  0.4403610000000  0.4740130000000  0.5033530000000 1.0
C      1  0.4570620000000  0.4508720000000  0.4321880000000 1.0
C      1  0.4020240000000  0.5124450000000  0.5215000000000 1.0
C      1  0.4455000000000  0.4904050000000  0.4049840000000 1.0
C      1  0.4722000000000  0.5472320000000  0.5817380000000 1.0
C      1  0.5413030000000  0.5189650000000  0.4174760000000 1.0
C      1  0.4637100000000  0.5836700000000  0.5156910000000 1.0
C      1  0.5665710000000  0.4380010000000  0.4594200000000 1.0
C      1  0.3930870000000  0.4568260000000  0.4996390000000 1.0
C      1  0.4908600000000  0.5729050000000  0.4637110000000 1.0
C      1  0.5050940000000  0.5244130000000  0.4369770000000 1.0
C      1  0.4341620000000  0.5696840000000  0.4592560000000 1.0
C      1  0.4798110000000  0.5272040000000  0.5369930000000 1.0
C      1  0.6108200000000  0.4815940000000  0.5259960000000 1.0
C      1  0.4445100000000  0.5593360000000  0.4904970000000 1.0
C      1  0.4656700000000  0.5294930000000  0.4356840000000 1.0
C      1  0.5699280000000  0.4629690000000  0.4365410000000 1.0
C      1  0.4921040000000  0.4341900000000  0.5546300000000 1.0
C      1  0.5450580000000  0.4746630000000  0.5435350000000 1.0
C      1  0.4885340000000  0.4680350000000  0.3977620000000 1.0
C      1  0.4764030000000  0.5928440000000  0.4871580000000 1.0
C      1  0.4560280000000  0.5438070000000  0.4634830000000 1.0
C      1  0.5643210000000  0.5369270000000  0.4291080000000 1.0
C      1  0.5110870000000  0.4068930000000  0.5178490000000 1.0
C      1  0.6035090000000  0.5326710000000  0.4970650000000 1.0
C      1  0.4223570000000  0.5209630000000  0.4962460000000 1.0
C      1  0.5566920000000  0.5105210000000  0.4953990000000 1.0
C      1  0.4533630000000  0.4938740000000  0.5254280000000 1.0
C      1  0.5823880000000  0.5314050000000  0.5457450000000 1.0
C      1  0.4311750000000  0.5810430000000  0.5131770000000 1.0
C      1  0.4856110000000  0.4988050000000  0.5248520000000 1.0
C      1  0.4058070000000  0.4845600000000  0.4615910000000 1.0
C      1  0.5033180000000  0.5129970000000  0.4065970000000 1.0
C      1  0.4826190000000  0.4913900000000  0.4715730000000 1.0
C      1  0.3858970000000  0.4861730000000  0.5096120000000 1.0
C      1  0.4427490000000  0.5925790000000  0.4829970000000 1.0
C      1  0.5513030000000  0.5473310000000  0.5091720000000 1.0
C      1  0.4248450000000  0.5497120000000  0.5552590000000 1.0
C      1  0.5395190000000  0.5672520000000  0.4660670000000 1.0
C      1  0.5775130000000  0.4923500000000  0.5081060000000 1.0
C      1  0.4857440000000  0.4633700000000  0.4888920000000 1.0
C      1  0.5207780000000  0.5518640000000  0.4997120000000 1.0
C      1  0.4425560000000  0.4855770000000  0.5543810000000 1.0
C      1  0.4150260000000  0.4893300000000  0.4920460000000 1.0
C      1  0.4625390000000  0.4092430000000  0.4858200000000 1.0
C      1  0.5548680000000  0.4416200000000  0.5089540000000 1.0
C      1  0.5893080000000  0.5517390000000  0.5201990000000 1.0
C      1  0.5513470000000  0.5013210000000  0.4652810000000 1.0
C      1  0.5111050000000  0.4938740000000  0.4845920000000 1.0
C      1  0.5103960000000  0.4860670000000  0.3975590000000 1.0
C      1  0.5633570000000  0.4257410000000  0.5339320000000 1.0
C      1  0.5032370000000  0.5427420000000  0.5766280000000 1.0
C      1  0.4719000000000  0.5555970000000  0.5193840000000 1.0
C      1  0.6013140000000  0.4695080000000  0.5488600000000 1.0
C      1  0.5492070000000  0.5714700000000  0.5440480000000 1.0
C      1  0.5119970000000  0.5125680000000  0.5635660000000 1.0
C      1  0.4846720000000  0.4347830000000  0.5068590000000 1.0
C      1  0.5270780000000  0.5794320000000  0.5192710000000 1.0
C      1  0.5037660000000  0.4581800000000  0.4466560000000 1.0
C      1  0.5284100000000  0.4539750000000  0.4616760000000 1.0
C      1  0.4903920000000  0.5234590000000  0.4677040000000 1.0
C      1  0.4801540000000  0.4404570000000  0.4457600000000 1.0
C      1  0.4457810000000  0.4337470000000  0.4691790000000 1.0
C      1  0.5072190000000  0.5147840000000  0.5060610000000 1.0
C      1  0.5107660000000  0.4053800000000  0.4620000000000 1.0
C      1  0.4273390000000  0.4872400000000  0.4402890000000 1.0
C      1  0.5006540000000  0.4702910000000  0.5172040000000 1.0
C      1  0.5398810000000  0.4231560000000  0.4635810000000 1.0
C      1  0.4087850000000  0.4578270000000  0.5256100000000 1.0
C      1  0.5164790000000  0.5675950000000  0.5482470000000 1.0
C      1  0.4367870000000  0.5147510000000  0.4251310000000 1.0
C      1  0.4635640000000  0.4557540000000  0.5211330000000 1.0
C      1  0.4504680000000  0.4568300000000  0.5661300000000 1.0
C      1  0.5593100000000  0.5463250000000  0.5936740000000 1.0
C      1  0.4448910000000  0.4340140000000  0.5499850000000 1.0
C      1  0.4481670000000  0.5294610000000  0.5427980000000 1.0
C      1  0.5727680000000  0.5371510000000  0.4868600000000 1.0
C      1  0.5181040000000  0.5423920000000  0.4700020000000 1.0
C      1  0.5664900000000  0.5481980000000  0.4608960000000 1.0
C      1  0.5533770000000  0.4665160000000  0.4144420000000 1.0
C      1  0.4702660000000  0.6009300000000  0.5406590000000 1.0
C      1  0.5197220000000  0.5392170000000  0.4029560000000 1.0
C      1  0.5050330000000  0.4543020000000  0.5789700000000 1.0
C      1  0.4285060000000  0.4541740000000  0.4497770000000 1.0
C      1  0.4550680000000  0.4843760000000  0.4538040000000 1.0
C      1  0.4750380000000  0.4985300000000  0.4333990000000 1.0
C      1  0.5987000000000  0.5132310000000  0.5233970000000 1.0
C      1  0.5515060000000  0.4743510000000  0.5115750000000 1.0
C      1  0.5077730000000  0.5604170000000  0.4156350000000 1.0
C      1  0.4450770000000  0.4333650000000  0.5024560000000 1.0
C      1  0.5595660000000  0.4401800000000  0.5571920000000 1.0
C      1  0.4787800000000  0.5313450000000  0.4972930000000 1.0
C      1  0.4032930000000  0.4555320000000  0.4729650000000 1.0
C      1  0.4179750000000  0.5355650000000  0.4724260000000 1.0
C      1  0.5982680000000  0.4703850000000  0.4962630000000 1.0
C      1  0.4981480000000  0.5755710000000  0.5710970000000 1.0
C      1  0.5383820000000  0.4897380000000  0.4078190000000 1.0
C      1  0.5779540000000  0.4440940000000  0.4895410000000 1.0
C      1  0.5486500000000  0.4443190000000  0.3989680000000 1.0
C      1  0.5349050000000  0.5341630000000  0.5766440000000 1.0
C      1  0.4986750000000  0.4843470000000  0.4356470000000 1.0
C      1  0.4806100000000  0.5950070000000  0.5651150000000 1.0
C      1  0.5605960000000  0.5028880000000  0.5870070000000 1.0
C      1  0.5897330000000  0.4632640000000  0.4640950000000 1.0
C      1  0.4554800000000  0.4631460000000  0.4778750000000 1.0
C      1  0.5076810000000  0.4301460000000  0.4856910000000 1.0
C      1  0.5030110000000  0.5487250000000  0.5267040000000 1.0
C      1  0.5098610000000  0.5871050000000  0.4840450000000 1.0
C      1  0.5545430000000  0.5683650000000  0.4358920000000 1.0
C      1  0.5344910000000  0.5189840000000  0.5177310000000 1.0
C      1  0.5218830000000  0.4493110000000  0.5056050000000 1.0
C      1  0.5632630000000  0.5106950000000  0.5610440000000 1.0
C      1  0.4623260000000  0.4985460000000  0.5747720000000 1.0
C      1  0.4558420000000  0.5133830000000  0.5953840000000 1.0
C      1  0.4176870000000  0.5176490000000  0.5492830000000 1.0
C      1  0.4853750000000  0.4650300000000  0.5458470000000 1.0
C      1  0.4132980000000  0.4852140000000  0.5391630000000 1.0
C      1  0.4280400000000  0.5402400000000  0.4429470000000 1.0
C      1  0.4900770000000  0.4890300000000  0.5663830000000 1.0
C      1  0.4283420000000  0.4382070000000  0.5278470000000 1.0
C      1  0.4681070000000  0.4181010000000  0.5447300000000 1.0
C      1  0.4623090000000  0.4677120000000  0.4095550000000 1.0
C      1  0.4505570000000  0.5230310000000  0.5100820000000 1.0
C      1  0.4489940000000  0.5518080000000  0.5759560000000 1.0
C      1  0.4811560000000  0.4156760000000  0.4598150000000 1.0
C      1  0.5347720000000  0.5201910000000  0.4502030000000 1.0
C      1  0.5138750000000  0.4827350000000  0.5900090000000 1.0
C      1  0.5170680000000  0.4251370000000  0.5370310000000 1.0
C      1  0.4887220000000  0.5539400000000  0.4414380000000 1.0
C      1  0.6016370000000  0.5152630000000  0.4699790000000 1.0
C      1  0.5608030000000  0.5503500000000  0.5615020000000 1.0
C      1  0.4173920000000  0.5725360000000  0.5359410000000 1.0
END
