TITL C-2778428-5639-1222 -0.00469576292542801 125000 -1082.59626581106 0 0 184 (C1) n - 1
REM
REM in /home/nfs/bkarasulu/CARBON/AIRSS/Generating-Clusters/REBO/Only-C1/SD-CG/HFTN-CG
REM
REM
REM
REM
REM
REM ./C.cell (11c1c37f851c82e70ff6c80c92926a4b)
REM
REM compiler GCC version 9.2.1 20190827 (Red Hat 9.2.1-1)
REM options -cpp -mtune=generic -march=x86-64 -g -O0 -fpre-include=/usr/include/finclude/math-vector-fortran.h
REM seed -53883284 -1609507887 644684962 -576479646 1321317087 1520680788 -389253322 -1552924577 -460408703 1091544264 1737005227 -1258515141 -1944975208 612769595 -24009781 498079980 -1886909736 2068327454 -326932333 1869264122 -133614289 -1864103504 1214423966 -1490757757 -1633257452 1864790460 1227227782 1302440816 376598104 1752073762 -787621105 -1605813006 -1085424406
REM
CELL 1.54180   50.00000   50.00000   50.00000   90.00000   90.00000   90.00000
LATT -1
SFAC C  
C      1  0.4470870000000  0.4629200000000  0.3971850000000 1.0
C      1  0.5333110000000  0.4987170000000  0.4404860000000 1.0
C      1  0.5388430000000  0.4144210000000  0.4770310000000 1.0
C      1  0.4566190000000  0.5596090000000  0.4768240000000 1.0
C      1  0.5195720000000  0.5909160000000  0.4491780000000 1.0
C      1  0.4081640000000  0.4471990000000  0.5891250000000 1.0
C      1  0.4679500000000  0.4610190000000  0.4244130000000 1.0
C      1  0.5662580000000  0.5342810000000  0.5949850000000 1.0
C      1  0.6180040000000  0.5748490000000  0.4486400000000 1.0
C      1  0.5219100000000  0.5562910000000  0.5125140000000 1.0
C      1  0.5838900000000  0.5139960000000  0.5993670000000 1.0
C      1  0.5437280000000  0.4671400000000  0.4481470000000 1.0
C      1  0.4392340000000  0.5422430000000  0.5105440000000 1.0
C      1  0.5533790000000  0.5387350000000  0.4823500000000 1.0
C      1  0.5204350000000  0.6000310000000  0.5273330000000 1.0
C      1  0.4847070000000  0.5783610000000  0.5678890000000 1.0
C      1  0.5732960000000  0.4031970000000  0.5429560000000 1.0
C      1  0.4242400000000  0.5604220000000  0.5542210000000 1.0
C      1  0.4994390000000  0.4912200000000  0.5165020000000 1.0
C      1  0.4777930000000  0.3934130000000  0.4655620000000 1.0
C      1  0.4650650000000  0.5137460000000  0.4814310000000 1.0
C      1  0.4746860000000  0.5670080000000  0.4211180000000 1.0
C      1  0.4232470000000  0.5589820000000  0.4685350000000 1.0
C      1  0.5050230000000  0.4831000000000  0.4412260000000 1.0
C      1  0.5310200000000  0.4689050000000  0.4079430000000 1.0
C      1  0.4171380000000  0.4209500000000  0.5047450000000 1.0
C      1  0.4725100000000  0.4816820000000  0.5755710000000 1.0
C      1  0.4327790000000  0.4695540000000  0.5031670000000 1.0
C      1  0.5159510000000  0.4021410000000  0.5384440000000 1.0
C      1  0.5416520000000  0.4397900000000  0.5984510000000 1.0
C      1  0.5806510000000  0.4528360000000  0.4749020000000 1.0
C      1  0.4138400000000  0.5047550000000  0.5021620000000 1.0
C      1  0.5460580000000  0.5914060000000  0.5368380000000 1.0
C      1  0.5242750000000  0.5486340000000  0.5548140000000 1.0
C      1  0.5240870000000  0.5168080000000  0.5644450000000 1.0
C      1  0.5035320000000  0.3927740000000  0.4879640000000 1.0
C      1  0.5017430000000  0.4913270000000  0.5615710000000 1.0
C      1  0.4563920000000  0.4084150000000  0.5361840000000 1.0
C      1  0.5511090000000  0.4113000000000  0.5219730000000 1.0
C      1  0.5467760000000  0.5213590000000  0.5395240000000 1.0
C      1  0.4008210000000  0.4991830000000  0.5502200000000 1.0
C      1  0.4969120000000  0.4638040000000  0.5316570000000 1.0
C      1  0.4832200000000  0.4213510000000  0.4165730000000 1.0
C      1  0.4468890000000  0.5079870000000  0.5482140000000 1.0
C      1  0.5306460000000  0.4950460000000  0.5061580000000 1.0
C      1  0.4868380000000  0.5942510000000  0.4911190000000 1.0
C      1  0.5433260000000  0.4148460000000  0.5542180000000 1.0
C      1  0.4045370000000  0.4709560000000  0.5466210000000 1.0
C      1  0.4600450000000  0.5013760000000  0.5952950000000 1.0
C      1  0.4483650000000  0.4853330000000  0.5293110000000 1.0
C      1  0.5666600000000  0.5766380000000  0.5479450000000 1.0
C      1  0.4932060000000  0.5722910000000  0.5163340000000 1.0
C      1  0.4107190000000  0.5394520000000  0.4438570000000 1.0
C      1  0.4216180000000  0.4584210000000  0.5673490000000 1.0
C      1  0.5631670000000  0.4681060000000  0.4197750000000 1.0
C      1  0.4388690000000  0.4235600000000  0.4855160000000 1.0
C      1  0.5865040000000  0.4610600000000  0.4423140000000 1.0
C      1  0.6049470000000  0.5596590000000  0.5159190000000 1.0
C      1  0.5701340000000  0.5587880000000  0.5769270000000 1.0
C      1  0.4490150000000  0.5338540000000  0.4351920000000 1.0
C      1  0.5511800000000  0.4944640000000  0.5874510000000 1.0
C      1  0.5678680000000  0.4345780000000  0.4407980000000 1.0
C      1  0.4934700000000  0.5582590000000  0.5904130000000 1.0
C      1  0.4018290000000  0.4451340000000  0.4965830000000 1.0
C      1  0.4719940000000  0.5244740000000  0.5582360000000 1.0
C      1  0.4959180000000  0.5230310000000  0.4077450000000 1.0
C      1  0.4073920000000  0.4958590000000  0.4135270000000 1.0
C      1  0.4125580000000  0.4476830000000  0.4396790000000 1.0
C      1  0.4043480000000  0.5478080000000  0.5292020000000 1.0
C      1  0.6056030000000  0.4752590000000  0.5421070000000 1.0
C      1  0.4289850000000  0.5703340000000  0.5073480000000 1.0
C      1  0.4035420000000  0.5517510000000  0.4953880000000 1.0
C      1  0.5005400000000  0.4268060000000  0.5115290000000 1.0
C      1  0.4942510000000  0.5151930000000  0.5379590000000 1.0
C      1  0.5324030000000  0.4175460000000  0.5036730000000 1.0
C      1  0.5778440000000  0.5145710000000  0.5027230000000 1.0
C      1  0.4205200000000  0.5087480000000  0.5681220000000 1.0
C      1  0.4694430000000  0.4625960000000  0.5407800000000 1.0
C      1  0.4642470000000  0.4077110000000  0.5634010000000 1.0
C      1  0.5441290000000  0.4399460000000  0.4189170000000 1.0
C      1  0.5577400000000  0.4656490000000  0.5480250000000 1.0
C      1  0.4943400000000  0.5858430000000  0.4254500000000 1.0
C      1  0.5205130000000  0.4997590000000  0.4027970000000 1.0
C      1  0.3982280000000  0.5283980000000  0.4740460000000 1.0
C      1  0.4417960000000  0.5872310000000  0.4626380000000 1.0
C      1  0.4539120000000  0.4332680000000  0.4111940000000 1.0
C      1  0.4977960000000  0.4692550000000  0.4150150000000 1.0
C      1  0.5663600000000  0.5858770000000  0.4954810000000 1.0
C      1  0.4582570000000  0.4658270000000  0.4530390000000 1.0
C      1  0.4938950000000  0.4429560000000  0.4871370000000 1.0
C      1  0.4798980000000  0.4908850000000  0.4928780000000 1.0
C      1  0.5929130000000  0.5371870000000  0.4858690000000 1.0
C      1  0.5642940000000  0.6105240000000  0.4794840000000 1.0
C      1  0.5073180000000  0.4741950000000  0.5972030000000 1.0
C      1  0.5666260000000  0.4519940000000  0.4987560000000 1.0
C      1  0.5620910000000  0.4196420000000  0.4625420000000 1.0
C      1  0.5689120000000  0.5447240000000  0.4550560000000 1.0
C      1  0.5988820000000  0.5188370000000  0.4581620000000 1.0
C      1  0.5395700000000  0.4566500000000  0.5003860000000 1.0
C      1  0.4461990000000  0.5254790000000  0.4028600000000 1.0
C      1  0.5150000000000  0.6009560000000  0.4991340000000 1.0
C      1  0.5523370000000  0.5417210000000  0.5172110000000 1.0
C      1  0.5613890000000  0.4988090000000  0.5563820000000 1.0
C      1  0.5811330000000  0.4856850000000  0.5891930000000 1.0
C      1  0.5558370000000  0.5638090000000  0.4346900000000 1.0
C      1  0.4467470000000  0.5909730000000  0.5109730000000 1.0
C      1  0.5176400000000  0.5604280000000  0.4455510000000 1.0
C      1  0.4959790000000  0.5128330000000  0.4383680000000 1.0
C      1  0.5060080000000  0.6147720000000  0.4294890000000 1.0
C      1  0.4499210000000  0.5465740000000  0.5724670000000 1.0
C      1  0.4165740000000  0.5222210000000  0.4150630000000 1.0
C      1  0.5229850000000  0.4508950000000  0.6113230000000 1.0
C      1  0.4563180000000  0.4158020000000  0.4507500000000 1.0
C      1  0.5132280000000  0.4850160000000  0.4716230000000 1.0
C      1  0.5528120000000  0.5050870000000  0.4873740000000 1.0
C      1  0.5860940000000  0.5504470000000  0.5497140000000 1.0
C      1  0.5446290000000  0.5187810000000  0.4177030000000 1.0
C      1  0.5114400000000  0.4358890000000  0.5427110000000 1.0
C      1  0.5774510000000  0.5639980000000  0.5116560000000 1.0
C      1  0.4746140000000  0.4091560000000  0.5141290000000 1.0
C      1  0.5190450000000  0.4597600000000  0.4821100000000 1.0
C      1  0.4336850000000  0.4286460000000  0.4360190000000 1.0
C      1  0.4417900000000  0.4514600000000  0.4791030000000 1.0
C      1  0.5068930000000  0.5450880000000  0.4739430000000 1.0
C      1  0.4997820000000  0.5331850000000  0.5113510000000 1.0
C      1  0.4675280000000  0.5877380000000  0.5332280000000 1.0
C      1  0.5355960000000  0.5305170000000  0.5937650000000 1.0
C      1  0.4920410000000  0.5042060000000  0.6020340000000 1.0
C      1  0.4773360000000  0.5418310000000  0.4876520000000 1.0
C      1  0.5305200000000  0.4689600000000  0.5279800000000 1.0
C      1  0.5000970000000  0.5604590000000  0.5456160000000 1.0
C      1  0.4390130000000  0.4525270000000  0.5318950000000 1.0
C      1  0.5339960000000  0.5964650000000  0.4746370000000 1.0
C      1  0.5267960000000  0.4375780000000  0.4468120000000 1.0
C      1  0.5210870000000  0.5277450000000  0.4499480000000 1.0
C      1  0.5649360000000  0.4896170000000  0.4624400000000 1.0
C      1  0.4321570000000  0.4236390000000  0.5303290000000 1.0
C      1  0.4118260000000  0.5074490000000  0.4514750000000 1.0
C      1  0.4285890000000  0.4805250000000  0.4550110000000 1.0
C      1  0.5401710000000  0.5673620000000  0.4893780000000 1.0
C      1  0.4775220000000  0.4686580000000  0.4788540000000 1.0
C      1  0.4330180000000  0.5330570000000  0.5389770000000 1.0
C      1  0.4740370000000  0.5434680000000  0.4041760000000 1.0
C      1  0.4537420000000  0.5626410000000  0.4429570000000 1.0
C      1  0.5390920000000  0.5652140000000  0.5743620000000 1.0
C      1  0.6147340000000  0.5273290000000  0.5100240000000 1.0
C      1  0.5972520000000  0.4805400000000  0.4678610000000 1.0
C      1  0.5118970000000  0.5138650000000  0.4861540000000 1.0
C      1  0.4841570000000  0.5317100000000  0.5866480000000 1.0
C      1  0.6120740000000  0.5028010000000  0.4857930000000 1.0
C      1  0.5206810000000  0.5589310000000  0.5978210000000 1.0
C      1  0.5244680000000  0.5015560000000  0.6013220000000 1.0
C      1  0.4463450000000  0.4996040000000  0.4331760000000 1.0
C      1  0.4614220000000  0.4065520000000  0.4892280000000 1.0
C      1  0.4531550000000  0.4565880000000  0.5690210000000 1.0
C      1  0.5698940000000  0.5144340000000  0.4404230000000 1.0
C      1  0.5968090000000  0.4915040000000  0.5138190000000 1.0
C      1  0.5994130000000  0.5283150000000  0.5399840000000 1.0
C      1  0.6010410000000  0.5530220000000  0.4581880000000 1.0
C      1  0.5918940000000  0.5034960000000  0.5515640000000 1.0
C      1  0.5142200000000  0.4599870000000  0.5670440000000 1.0
C      1  0.4868270000000  0.4937110000000  0.3970990000000 1.0
C      1  0.4918850000000  0.3981010000000  0.4356210000000 1.0
C      1  0.4044710000000  0.4611370000000  0.4698640000000 1.0
C      1  0.5083850000000  0.3878630000000  0.5151050000000 1.0
C      1  0.4000850000000  0.5147500000000  0.5257330000000 1.0
C      1  0.4689520000000  0.5145190000000  0.4511970000000 1.0
C      1  0.4561010000000  0.4931280000000  0.4015720000000 1.0
C      1  0.4593890000000  0.5981910000000  0.4869180000000 1.0
C      1  0.5357620000000  0.5485150000000  0.4192390000000 1.0
C      1  0.3983760000000  0.4936700000000  0.4775770000000 1.0
C      1  0.4973580000000  0.5999930000000  0.5446140000000 1.0
C      1  0.4622320000000  0.4291530000000  0.5802460000000 1.0
C      1  0.5804080000000  0.4630490000000  0.5225610000000 1.0
C      1  0.4411170000000  0.5195810000000  0.5860510000000 1.0
C      1  0.5863910000000  0.4675660000000  0.5680900000000 1.0
C      1  0.4966860000000  0.4374340000000  0.4388620000000 1.0
C      1  0.4796940000000  0.4330440000000  0.4610330000000 1.0
C      1  0.4377540000000  0.5187000000000  0.4948530000000 1.0
C      1  0.4029310000000  0.4640320000000  0.5194170000000 1.0
C      1  0.4530390000000  0.5770960000000  0.5602220000000 1.0
C      1  0.5428100000000  0.4415770000000  0.5668490000000 1.0
C      1  0.5142010000000  0.4077930000000  0.4589220000000 1.0
C      1  0.4078210000000  0.4691760000000  0.4203610000000 1.0
END
