TITL C-2778431-5191-1289 0.0045703947313487 125000 -786.19821974212 0 0 136 (C1) n - 1
REM
REM in /home/nfs/bkarasulu/CARBON/AIRSS/Generating-Clusters/REBO/Only-C1/SD-CG/HFTN-CG
REM
REM
REM
REM
REM
REM ./C.cell (11c1c37f851c82e70ff6c80c92926a4b)
REM
REM compiler GCC version 9.2.1 20190827 (Red Hat 9.2.1-1)
REM options -cpp -mtune=generic -march=x86-64 -g -O0 -fpre-include=/usr/include/finclude/math-vector-fortran.h
REM seed 316399618 713906458 1015247537 797882001 286939502 1437823208 -1759467982 -2096711539 -30734308 -1426784545 -287894297 548719554 1366082665 -1544516819 -1901783832 -965598333 867092353 1882533565 1370638159 -1224741169 -1144518262 923048571 -1952436319 -1667314319 -1744599397 -1637015257 -1671327751 -1693340837 -1159277809 111488702 1246378558 737789207 1896534662
REM
CELL 1.54180   50.00000   50.00000   50.00000   90.00000   90.00000   90.00000
LATT -1
SFAC C  
C      1  0.4431090000000  0.5430470000000  0.5676460000000 1.0
C      1  0.4709690000000  0.5534440000000  0.5219490000000 1.0
C      1  0.5450430000000  0.4583340000000  0.5070530000000 1.0
C      1  0.4590830000000  0.4157530000000  0.5232410000000 1.0
C      1  0.4542960000000  0.4704060000000  0.5401180000000 1.0
C      1  0.5284790000000  0.4751120000000  0.5874910000000 1.0
C      1  0.4877610000000  0.4469280000000  0.5495160000000 1.0
C      1  0.5844600000000  0.4689270000000  0.4752290000000 1.0
C      1  0.5655750000000  0.5132900000000  0.4899000000000 1.0
C      1  0.5129180000000  0.5706090000000  0.4501240000000 1.0
C      1  0.5814110000000  0.5197830000000  0.4603790000000 1.0
C      1  0.5002290000000  0.4771090000000  0.5076560000000 1.0
C      1  0.4875540000000  0.4393670000000  0.4946850000000 1.0
C      1  0.4890110000000  0.5546000000000  0.4223680000000 1.0
C      1  0.5463070000000  0.4502620000000  0.4067770000000 1.0
C      1  0.4662210000000  0.5280220000000  0.5149710000000 1.0
C      1  0.4636320000000  0.5651240000000  0.5524860000000 1.0
C      1  0.4076810000000  0.5173730000000  0.4653500000000 1.0
C      1  0.5560470000000  0.4518770000000  0.5575200000000 1.0
C      1  0.4227340000000  0.5366820000000  0.4457350000000 1.0
C      1  0.5019650000000  0.5060090000000  0.5502240000000 1.0
C      1  0.5341080000000  0.4177010000000  0.4751630000000 1.0
C      1  0.4595130000000  0.5901850000000  0.5316630000000 1.0
C      1  0.5392540000000  0.4775620000000  0.4043130000000 1.0
C      1  0.5612880000000  0.5795940000000  0.5420850000000 1.0
C      1  0.5167380000000  0.4599580000000  0.4571280000000 1.0
C      1  0.4280630000000  0.5180040000000  0.4914880000000 1.0
C      1  0.5114690000000  0.4296330000000  0.4612970000000 1.0
C      1  0.5455970000000  0.5663730000000  0.4416470000000 1.0
C      1  0.5134940000000  0.4482740000000  0.5073420000000 1.0
C      1  0.5737380000000  0.5347760000000  0.5558450000000 1.0
C      1  0.5113300000000  0.5948660000000  0.4689360000000 1.0
C      1  0.3953610000000  0.5531550000000  0.5136660000000 1.0
C      1  0.3938790000000  0.5243470000000  0.5111830000000 1.0
C      1  0.4776960000000  0.4134980000000  0.5022770000000 1.0
C      1  0.4837370000000  0.4834900000000  0.5338920000000 1.0
C      1  0.4535450000000  0.5733360000000  0.4858170000000 1.0
C      1  0.5337340000000  0.5265460000000  0.4123060000000 1.0
C      1  0.4270830000000  0.4775350000000  0.4856810000000 1.0
C      1  0.5307380000000  0.4125120000000  0.5032910000000 1.0
C      1  0.5552570000000  0.4221090000000  0.5644690000000 1.0
C      1  0.5800340000000  0.4576460000000  0.5261540000000 1.0
C      1  0.4845160000000  0.4653360000000  0.4036460000000 1.0
C      1  0.5312280000000  0.5226230000000  0.6147630000000 1.0
C      1  0.5288940000000  0.5927230000000  0.4914820000000 1.0
C      1  0.4905470000000  0.5048720000000  0.4030580000000 1.0
C      1  0.3805540000000  0.4756120000000  0.5569440000000 1.0
C      1  0.5099060000000  0.5620070000000  0.5404410000000 1.0
C      1  0.5136600000000  0.5897640000000  0.5202280000000 1.0
C      1  0.4115080000000  0.4779130000000  0.4609280000000 1.0
C      1  0.5554890000000  0.5021710000000  0.4152600000000 1.0
C      1  0.4647490000000  0.4601820000000  0.5709820000000 1.0
C      1  0.4928290000000  0.4680140000000  0.5829770000000 1.0
C      1  0.5323000000000  0.5837860000000  0.5477990000000 1.0
C      1  0.4693720000000  0.5517820000000  0.4710960000000 1.0
C      1  0.5107170000000  0.4644030000000  0.5437540000000 1.0
C      1  0.5585140000000  0.4733900000000  0.5767140000000 1.0
C      1  0.5208870000000  0.5545920000000  0.4209500000000 1.0
C      1  0.5532560000000  0.5718340000000  0.4801130000000 1.0
C      1  0.4891130000000  0.4735180000000  0.4573530000000 1.0
C      1  0.5514710000000  0.5792310000000  0.5131100000000 1.0
C      1  0.4697740000000  0.4557630000000  0.4766390000000 1.0
C      1  0.5921250000000  0.5043620000000  0.5183770000000 1.0
C      1  0.5042820000000  0.5533790000000  0.5851140000000 1.0
C      1  0.4922420000000  0.5021790000000  0.4677190000000 1.0
C      1  0.4224530000000  0.5119080000000  0.5230460000000 1.0
C      1  0.5592580000000  0.4245830000000  0.4610810000000 1.0
C      1  0.5878780000000  0.5102330000000  0.5498610000000 1.0
C      1  0.5252160000000  0.4265660000000  0.5584420000000 1.0
C      1  0.5684450000000  0.5450770000000  0.4940140000000 1.0
C      1  0.5334200000000  0.5097280000000  0.5462810000000 1.0
C      1  0.4337040000000  0.5392390000000  0.5362340000000 1.0
C      1  0.4563160000000  0.4869580000000  0.4764970000000 1.0
C      1  0.4756790000000  0.5472830000000  0.5775370000000 1.0
C      1  0.3864370000000  0.5142070000000  0.4857570000000 1.0
C      1  0.4210710000000  0.5462540000000  0.4209700000000 1.0
C      1  0.4960590000000  0.5457980000000  0.4615070000000 1.0
C      1  0.5674610000000  0.4754140000000  0.4503910000000 1.0
C      1  0.5954750000000  0.4996530000000  0.4848180000000 1.0
C      1  0.5701340000000  0.4378480000000  0.5059140000000 1.0
C      1  0.5458340000000  0.4589810000000  0.4457250000000 1.0
C      1  0.5183720000000  0.5203210000000  0.4656400000000 1.0
C      1  0.4376490000000  0.4444660000000  0.4389810000000 1.0
C      1  0.5788630000000  0.4374590000000  0.4784120000000 1.0
C      1  0.4280240000000  0.4898870000000  0.5439410000000 1.0
C      1  0.5698840000000  0.4845490000000  0.5251350000000 1.0
C      1  0.4416310000000  0.4365050000000  0.5656190000000 1.0
C      1  0.5458190000000  0.5300590000000  0.5618270000000 1.0
C      1  0.4688530000000  0.5151720000000  0.4875180000000 1.0
C      1  0.5427500000000  0.5406100000000  0.4719770000000 1.0
C      1  0.5806800000000  0.5584710000000  0.5418330000000 1.0
C      1  0.4593540000000  0.5141370000000  0.5414400000000 1.0
C      1  0.4679990000000  0.5165170000000  0.4524890000000 1.0
C      1  0.5173640000000  0.5002490000000  0.4043500000000 1.0
C      1  0.4213280000000  0.5621290000000  0.5213960000000 1.0
C      1  0.4435780000000  0.4349570000000  0.4704350000000 1.0
C      1  0.4752580000000  0.5771070000000  0.4214080000000 1.0
C      1  0.4600520000000  0.4218980000000  0.4367110000000 1.0
C      1  0.5320690000000  0.5536460000000  0.5082440000000 1.0
C      1  0.4379990000000  0.5093410000000  0.5681280000000 1.0
C      1  0.4968070000000  0.4985150000000  0.5806060000000 1.0
C      1  0.5534830000000  0.4327240000000  0.4308650000000 1.0
C      1  0.4291900000000  0.4715650000000  0.4388310000000 1.0
C      1  0.5213980000000  0.5043350000000  0.5993810000000 1.0
C      1  0.5800750000000  0.4903560000000  0.5693450000000 1.0
C      1  0.4597300000000  0.5104670000000  0.4005130000000 1.0
C      1  0.4764440000000  0.5274370000000  0.4248220000000 1.0
C      1  0.4064530000000  0.4694600000000  0.5502860000000 1.0
C      1  0.4837890000000  0.5824800000000  0.5102900000000 1.0
C      1  0.4711050000000  0.5154810000000  0.5734890000000 1.0
C      1  0.4508330000000  0.4039090000000  0.4629980000000 1.0
C      1  0.5290600000000  0.5458550000000  0.5779560000000 1.0
C      1  0.5434780000000  0.4964620000000  0.5232510000000 1.0
C      1  0.5151820000000  0.4452150000000  0.5784070000000 1.0
C      1  0.5121940000000  0.5262840000000  0.5045360000000 1.0
C      1  0.5025680000000  0.5582670000000  0.4985200000000 1.0
C      1  0.4405970000000  0.5803560000000  0.5104750000000 1.0
C      1  0.5894450000000  0.5530030000000  0.5150250000000 1.0
C      1  0.4546800000000  0.4884010000000  0.4426620000000 1.0
C      1  0.5748020000000  0.5509920000000  0.4506920000000 1.0
C      1  0.5553840000000  0.4817670000000  0.4880060000000 1.0
C      1  0.4189130000000  0.4442020000000  0.5480830000000 1.0
C      1  0.4318180000000  0.4504110000000  0.4956360000000 1.0
C      1  0.4408400000000  0.5384030000000  0.4712340000000 1.0
C      1  0.5213210000000  0.4982240000000  0.5006660000000 1.0
C      1  0.4760250000000  0.3970390000000  0.4784110000000 1.0
C      1  0.5708940000000  0.4999320000000  0.4385180000000 1.0
C      1  0.4877890000000  0.4154730000000  0.4543440000000 1.0
C      1  0.5046200000000  0.5349590000000  0.5350930000000 1.0
C      1  0.5370980000000  0.4597040000000  0.5374140000000 1.0
C      1  0.5203950000000  0.4241890000000  0.5300260000000 1.0
C      1  0.4414810000000  0.4435240000000  0.5235110000000 1.0
C      1  0.4780350000000  0.4735120000000  0.4272400000000 1.0
C      1  0.5481740000000  0.5326590000000  0.4399370000000 1.0
C      1  0.5295980000000  0.4883660000000  0.4697690000000 1.0
C      1  0.4658580000000  0.4262720000000  0.5500920000000 1.0
END
