TITL C-2778431-5191-991 -0.00227235896377681 125000 -616.898764083691 0 0 104 (C1) n - 1
REM
REM in /home/nfs/bkarasulu/CARBON/AIRSS/Generating-Clusters/REBO/Only-C1/SD-CG/HFTN-CG
REM
REM
REM
REM
REM
REM ./C.cell (11c1c37f851c82e70ff6c80c92926a4b)
REM
REM compiler GCC version 9.2.1 20190827 (Red Hat 9.2.1-1)
REM options -cpp -mtune=generic -march=x86-64 -g -O0 -fpre-include=/usr/include/finclude/math-vector-fortran.h
REM seed -1388740797 901158888 -1324897097 395948495 945365646 -520765508 180198159 1987920224 -1799752965 8462742 -2044581897 -1945373656 -775547450 15859654 909908931 -1179979169 -1810543734 1196291464 -1496835352 -654766209 -1747426625 891640814 2069781231 -766037990 -1072254202 -1440750053 1628149687 -225544497 -1838075658 -1246891354 1786451769 317495675 -1896087380
REM
CELL 1.54180   50.00000   50.00000   50.00000   90.00000   90.00000   90.00000
LATT -1
SFAC C  
C      1  0.5573130000000  0.4854430000000  0.5003460000000 1.0
C      1  0.5273950000000  0.4595760000000  0.4774180000000 1.0
C      1  0.4372200000000  0.4610650000000  0.5312800000000 1.0
C      1  0.4086390000000  0.4833330000000  0.5481860000000 1.0
C      1  0.5456370000000  0.4837470000000  0.4692870000000 1.0
C      1  0.4504240000000  0.5266560000000  0.4503590000000 1.0
C      1  0.4791500000000  0.4751930000000  0.4890950000000 1.0
C      1  0.5430530000000  0.4681340000000  0.5575960000000 1.0
C      1  0.5848140000000  0.4907170000000  0.5434520000000 1.0
C      1  0.5683800000000  0.5345330000000  0.5178720000000 1.0
C      1  0.5502560000000  0.5258890000000  0.4477720000000 1.0
C      1  0.4398760000000  0.4570430000000  0.5639380000000 1.0
C      1  0.4876780000000  0.4567920000000  0.5695020000000 1.0
C      1  0.5233330000000  0.4832800000000  0.5914700000000 1.0
C      1  0.5509720000000  0.5433390000000  0.5382280000000 1.0
C      1  0.5763290000000  0.5215060000000  0.4890260000000 1.0
C      1  0.4897930000000  0.5320740000000  0.4179990000000 1.0
C      1  0.5480020000000  0.5490680000000  0.4342620000000 1.0
C      1  0.5039800000000  0.5742320000000  0.4469680000000 1.0
C      1  0.5675690000000  0.4599600000000  0.4351810000000 1.0
C      1  0.4850740000000  0.4434850000000  0.5184780000000 1.0
C      1  0.4525660000000  0.5125840000000  0.5724800000000 1.0
C      1  0.5245350000000  0.4382240000000  0.4424060000000 1.0
C      1  0.5712290000000  0.4660720000000  0.5488650000000 1.0
C      1  0.4951800000000  0.5199580000000  0.3925180000000 1.0
C      1  0.4545790000000  0.4261410000000  0.4182330000000 1.0
C      1  0.5019010000000  0.4307740000000  0.4963120000000 1.0
C      1  0.5138780000000  0.4530840000000  0.4221380000000 1.0
C      1  0.4115420000000  0.6062990000000  0.5469980000000 1.0
C      1  0.4552790000000  0.4793450000000  0.4765920000000 1.0
C      1  0.4406550000000  0.5386480000000  0.5638990000000 1.0
C      1  0.4870940000000  0.4668650000000  0.4091890000000 1.0
C      1  0.4531360000000  0.4378820000000  0.4431780000000 1.0
C      1  0.5189160000000  0.5035550000000  0.3913980000000 1.0
C      1  0.5346470000000  0.5237940000000  0.5505750000000 1.0
C      1  0.4602120000000  0.5653960000000  0.4944740000000 1.0
C      1  0.4828350000000  0.4158900000000  0.4740650000000 1.0
C      1  0.4482760000000  0.5417670000000  0.5347090000000 1.0
C      1  0.5346590000000  0.4336340000000  0.4976900000000 1.0
C      1  0.5393560000000  0.5410060000000  0.4830910000000 1.0
C      1  0.5299420000000  0.5066820000000  0.4555610000000 1.0
C      1  0.4763440000000  0.5133650000000  0.4396300000000 1.0
C      1  0.4888520000000  0.5654770000000  0.4985680000000 1.0
C      1  0.4066530000000  0.4885710000000  0.4986800000000 1.0
C      1  0.5009610000000  0.4648460000000  0.4753860000000 1.0
C      1  0.4403380000000  0.4315600000000  0.4907090000000 1.0
C      1  0.5599330000000  0.4363560000000  0.4767440000000 1.0
C      1  0.4721570000000  0.5071670000000  0.3809850000000 1.0
C      1  0.4257880000000  0.4705130000000  0.4686800000000 1.0
C      1  0.4670940000000  0.4852470000000  0.4279720000000 1.0
C      1  0.5958370000000  0.5480630000000  0.5946420000000 1.0
C      1  0.4271660000000  0.5599810000000  0.4871900000000 1.0
C      1  0.4988060000000  0.5369340000000  0.5122770000000 1.0
C      1  0.4080450000000  0.4717800000000  0.5211630000000 1.0
C      1  0.5001010000000  0.4460550000000  0.5467190000000 1.0
C      1  0.5303480000000  0.4928340000000  0.5524370000000 1.0
C      1  0.5447500000000  0.4333960000000  0.5263110000000 1.0
C      1  0.5094150000000  0.4270640000000  0.4626400000000 1.0
C      1  0.4110850000000  0.5073770000000  0.4717610000000 1.0
C      1  0.4289520000000  0.5116390000000  0.4980490000000 1.0
C      1  0.4381730000000  0.4895860000000  0.5591910000000 1.0
C      1  0.5767650000000  0.4842640000000  0.4548860000000 1.0
C      1  0.5511730000000  0.5639760000000  0.4912600000000 1.0
C      1  0.5155320000000  0.5217760000000  0.4895840000000 1.0
C      1  0.4635990000000  0.4850260000000  0.3946320000000 1.0
C      1  0.4254210000000  0.5129770000000  0.4478670000000 1.0
C      1  0.4497690000000  0.5465050000000  0.4687050000000 1.0
C      1  0.4975180000000  0.4831460000000  0.5810920000000 1.0
C      1  0.4265950000000  0.5553650000000  0.5783850000000 1.0
C      1  0.4831130000000  0.4773190000000  0.5198360000000 1.0
C      1  0.4567970000000  0.4237080000000  0.4682120000000 1.0
C      1  0.5044210000000  0.5807470000000  0.4733620000000 1.0
C      1  0.4858550000000  0.5108670000000  0.5648010000000 1.0
C      1  0.4176680000000  0.4472050000000  0.4825840000000 1.0
C      1  0.5625830000000  0.5856800000000  0.5844290000000 1.0
C      1  0.4363030000000  0.5655150000000  0.5187500000000 1.0
C      1  0.5444450000000  0.5717540000000  0.5379560000000 1.0
C      1  0.5859710000000  0.4575160000000  0.4705690000000 1.0
C      1  0.5090390000000  0.4906250000000  0.5270620000000 1.0
C      1  0.5709010000000  0.4460280000000  0.5276730000000 1.0
C      1  0.5969180000000  0.5059690000000  0.5632680000000 1.0
C      1  0.4569150000000  0.4880010000000  0.5316240000000 1.0
C      1  0.5722890000000  0.4576770000000  0.5002020000000 1.0
C      1  0.5815750000000  0.5708580000000  0.5967130000000 1.0
C      1  0.4619400000000  0.4477000000000  0.5762800000000 1.0
C      1  0.5518740000000  0.4410550000000  0.4474180000000 1.0
C      1  0.4450260000000  0.5148660000000  0.5200760000000 1.0
C      1  0.4986630000000  0.5568020000000  0.4272210000000 1.0
C      1  0.5769560000000  0.5030180000000  0.5175650000000 1.0
C      1  0.5476610000000  0.5860840000000  0.5618330000000 1.0
C      1  0.5282010000000  0.4450770000000  0.5465630000000 1.0
C      1  0.4505050000000  0.4685960000000  0.4460390000000 1.0
C      1  0.4740510000000  0.5023730000000  0.5956860000000 1.0
C      1  0.5735620000000  0.5149470000000  0.4622580000000 1.0
C      1  0.5000060000000  0.5126280000000  0.4609430000000 1.0
C      1  0.5129640000000  0.5885040000000  0.5029530000000 1.0
C      1  0.4783060000000  0.5492160000000  0.5332870000000 1.0
C      1  0.6008640000000  0.5251320000000  0.5815740000000 1.0
C      1  0.5389950000000  0.5806870000000  0.5110950000000 1.0
C      1  0.5030210000000  0.5194750000000  0.5413600000000 1.0
C      1  0.5266350000000  0.4958460000000  0.5024660000000 1.0
C      1  0.4530200000000  0.4401390000000  0.5147970000000 1.0
C      1  0.5175460000000  0.4773450000000  0.4013110000000 1.0
C      1  0.4229380000000  0.5875290000000  0.5339970000000 1.0
END
