TITL C-2778430-5657-134 0.0011943564172328 125000 -521.613454603087 0 0 89 (C1) n - 1
REM
REM in /home/nfs/bkarasulu/CARBON/AIRSS/Generating-Clusters/REBO/Only-C1/SD-CG/HFTN-CG
REM
REM
REM
REM
REM
REM ./C.cell (11c1c37f851c82e70ff6c80c92926a4b)
REM
REM compiler GCC version 9.2.1 20190827 (Red Hat 9.2.1-1)
REM options -cpp -mtune=generic -march=x86-64 -g -O0 -fpre-include=/usr/include/finclude/math-vector-fortran.h
REM seed -1865076150 78042158 1339283765 -542733388 69913162 2121915971 -767913512 -1289836844 600603366 -970430233 188483095 87940838 1424203792 94648604 1192252180 -206409127 1853117870 2052939416 -1952658009 1949317540 -1906504226 540839947 1002502873 -2068316414 -1399786573 -1064808322 1978970250 572205804 523214845 384747493 1473013605 -173806324 -1644399768
REM
CELL 1.54180   50.00000   50.00000   50.00000   90.00000   90.00000   90.00000
LATT -1
SFAC C  
C      1  0.5521050000000  0.4936880000000  0.5234870000000 1.0
C      1  0.5007600000000  0.4477320000000  0.4431060000000 1.0
C      1  0.4487770000000  0.4552690000000  0.4606330000000 1.0
C      1  0.4925780000000  0.5335920000000  0.4311100000000 1.0
C      1  0.4702950000000  0.5157530000000  0.4265470000000 1.0
C      1  0.5423650000000  0.4192620000000  0.5501840000000 1.0
C      1  0.5553810000000  0.4764310000000  0.4495150000000 1.0
C      1  0.4399140000000  0.4553820000000  0.4909300000000 1.0
C      1  0.4563930000000  0.5168670000000  0.4984650000000 1.0
C      1  0.5405870000000  0.5809360000000  0.4823450000000 1.0
C      1  0.4552010000000  0.4860510000000  0.4903050000000 1.0
C      1  0.5488570000000  0.5572550000000  0.4593820000000 1.0
C      1  0.4222860000000  0.5074640000000  0.4801380000000 1.0
C      1  0.4487290000000  0.4788550000000  0.4458460000000 1.0
C      1  0.5269820000000  0.4364680000000  0.5051430000000 1.0
C      1  0.4226310000000  0.5021520000000  0.5138590000000 1.0
C      1  0.4945040000000  0.5046520000000  0.4702620000000 1.0
C      1  0.5485600000000  0.4473590000000  0.4584450000000 1.0
C      1  0.4727140000000  0.5712450000000  0.5126320000000 1.0
C      1  0.4432430000000  0.5251180000000  0.5578600000000 1.0
C      1  0.4620430000000  0.5441120000000  0.5649210000000 1.0
C      1  0.4674650000000  0.5479940000000  0.4897600000000 1.0
C      1  0.5160330000000  0.5214390000000  0.5542940000000 1.0
C      1  0.4297100000000  0.5357490000000  0.4907790000000 1.0
C      1  0.5506450000000  0.5353330000000  0.4419260000000 1.0
C      1  0.5296540000000  0.4977260000000  0.5716650000000 1.0
C      1  0.4991060000000  0.5544560000000  0.5004620000000 1.0
C      1  0.4809800000000  0.4768940000000  0.4695730000000 1.0
C      1  0.4446360000000  0.5249140000000  0.4377610000000 1.0
C      1  0.4434780000000  0.5530060000000  0.4444810000000 1.0
C      1  0.5799610000000  0.5071830000000  0.5485390000000 1.0
C      1  0.4778030000000  0.4430680000000  0.4632880000000 1.0
C      1  0.4566420000000  0.4313630000000  0.5044290000000 1.0
C      1  0.5825300000000  0.5049810000000  0.5155730000000 1.0
C      1  0.5188900000000  0.4097390000000  0.4656510000000 1.0
C      1  0.4411340000000  0.5571750000000  0.4724080000000 1.0
C      1  0.5600460000000  0.4802370000000  0.5524800000000 1.0
C      1  0.5282420000000  0.4377800000000  0.5354880000000 1.0
C      1  0.4606270000000  0.5712970000000  0.4295270000000 1.0
C      1  0.4674250000000  0.4885370000000  0.5397320000000 1.0
C      1  0.5868730000000  0.4824280000000  0.4933480000000 1.0
C      1  0.5114950000000  0.5635880000000  0.5406760000000 1.0
C      1  0.5341130000000  0.5474340000000  0.5604320000000 1.0
C      1  0.5503130000000  0.5505630000000  0.4920080000000 1.0
C      1  0.5146190000000  0.4600930000000  0.5451070000000 1.0
C      1  0.5241270000000  0.4881520000000  0.4445050000000 1.0
C      1  0.4522940000000  0.5496790000000  0.5266310000000 1.0
C      1  0.4530670000000  0.5965270000000  0.4229480000000 1.0
C      1  0.4343370000000  0.5274070000000  0.5300250000000 1.0
C      1  0.4867700000000  0.5606660000000  0.4246200000000 1.0
C      1  0.5633750000000  0.5173480000000  0.4752270000000 1.0
C      1  0.5483110000000  0.4743660000000  0.5002530000000 1.0
C      1  0.4813640000000  0.5600140000000  0.5427750000000 1.0
C      1  0.4213420000000  0.4686040000000  0.5121990000000 1.0
C      1  0.5249160000000  0.4330800000000  0.4496780000000 1.0
C      1  0.5070510000000  0.4165170000000  0.4910820000000 1.0
C      1  0.5298660000000  0.5149850000000  0.5248110000000 1.0
C      1  0.4465730000000  0.4294270000000  0.5313250000000 1.0
C      1  0.5450860000000  0.5614770000000  0.5327000000000 1.0
C      1  0.4785870000000  0.4641750000000  0.5009000000000 1.0
C      1  0.5545330000000  0.4609120000000  0.5685540000000 1.0
C      1  0.5649990000000  0.5350250000000  0.5353170000000 1.0
C      1  0.4395570000000  0.4953870000000  0.5674280000000 1.0
C      1  0.4738470000000  0.4872130000000  0.4316370000000 1.0
C      1  0.4713600000000  0.5037050000000  0.5764170000000 1.0
C      1  0.5493760000000  0.5087070000000  0.4387900000000 1.0
C      1  0.5244720000000  0.5349660000000  0.5010780000000 1.0
C      1  0.5741160000000  0.4919430000000  0.4698500000000 1.0
C      1  0.4295190000000  0.4496930000000  0.5385640000000 1.0
C      1  0.4998640000000  0.5041550000000  0.5223690000000 1.0
C      1  0.5542300000000  0.5202820000000  0.5647730000000 1.0
C      1  0.4799750000000  0.4261050000000  0.4887410000000 1.0
C      1  0.4866000000000  0.4759300000000  0.5814090000000 1.0
C      1  0.5545790000000  0.4436750000000  0.4893070000000 1.0
C      1  0.5316240000000  0.5186700000000  0.4742320000000 1.0
C      1  0.5283920000000  0.4852830000000  0.4779340000000 1.0
C      1  0.5239100000000  0.5739210000000  0.5103130000000 1.0
C      1  0.4876730000000  0.5145440000000  0.4969330000000 1.0
C      1  0.4999180000000  0.4746200000000  0.4344440000000 1.0
C      1  0.5834340000000  0.4555760000000  0.4982060000000 1.0
C      1  0.4329360000000  0.5024650000000  0.4537060000000 1.0
C      1  0.5111120000000  0.4626650000000  0.4936190000000 1.0
C      1  0.5745990000000  0.5337190000000  0.5026830000000 1.0
C      1  0.5088460000000  0.5241420000000  0.4518180000000 1.0
C      1  0.4855340000000  0.5155300000000  0.5499650000000 1.0
C      1  0.4612750000000  0.4687300000000  0.5621190000000 1.0
C      1  0.5004950000000  0.4743210000000  0.5225750000000 1.0
C      1  0.5137550000000  0.4739480000000  0.5704760000000 1.0
C      1  0.4250850000000  0.4831240000000  0.5425640000000 1.0
END
