TITL C-2778426-5645-821 0.000285530226828248 125000 -99.3766762220475 0 0 18 (Cs) n - 1
REM
REM in /home/nfs/bkarasulu/CARBON/AIRSS/Generating-Clusters/REBO/Only-C1/SD-CG/HFTN-CG
REM
REM
REM
REM
REM
REM ./C.cell (11c1c37f851c82e70ff6c80c92926a4b)
REM
REM compiler GCC version 9.2.1 20190827 (Red Hat 9.2.1-1)
REM options -cpp -mtune=generic -march=x86-64 -g -O0 -fpre-include=/usr/include/finclude/math-vector-fortran.h
REM seed -1087421380 1644407085 1664149031 1469152008 -320478474 552653425 -493747869 194759000 746823349 -1497156977 1425408995 116216015 238944647 22081107 175565420 663098208 -433792775 -1474814717 1428468789 -1943858871 -141731246 1446791441 1663552693 -1463750772 1994869385 -932665554 966550638 2012523787 2019798200 -566575670 58670405 -988220043 375929481
REM
CELL 1.54180   50.00000   50.00000   50.00000   90.00000   90.00000   90.00000
LATT -1
SFAC C  
C      1  0.4747250000000  0.4894210000000  0.5293180000000 1.0
C      1  0.4947710000000  0.5174620000000  0.4139670000000 1.0
C      1  0.4708490000000  0.5109780000000  0.4251790000000 1.0
C      1  0.4685930000000  0.4997960000000  0.4757770000000 1.0
C      1  0.5095320000000  0.4989270000000  0.5126720000000 1.0
C      1  0.5470740000000  0.5287020000000  0.5177780000000 1.0
C      1  0.4589460000000  0.4770940000000  0.5744400000000 1.0
C      1  0.5332250000000  0.5168830000000  0.4475090000000 1.0
C      1  0.5197570000000  0.5195190000000  0.4243580000000 1.0
C      1  0.4625590000000  0.5042580000000  0.4500290000000 1.0
C      1  0.4843660000000  0.4791290000000  0.5852830000000 1.0
C      1  0.5377630000000  0.5056970000000  0.5035740000000 1.0
C      1  0.5372380000000  0.5120780000000  0.4732470000000 1.0
C      1  0.5059660000000  0.4862000000000  0.5694630000000 1.0
C      1  0.4544360000000  0.4820540000000  0.5475780000000 1.0
C      1  0.5548540000000  0.4832180000000  0.5080740000000 1.0
C      1  0.5038810000000  0.4917020000000  0.5420000000000 1.0
C      1  0.4814660000000  0.4968820000000  0.4997560000000 1.0
END
