TITL C-2778437-8639-467 0.000147205314686317 125000 -431.832340965742 0 0 76 (C1) n - 1
REM
REM in /home/nfs/bkarasulu/CARBON/AIRSS/Generating-Clusters/REBO/Only-C1/SD-CG/HFTN-CG
REM
REM
REM
REM
REM
REM ./C.cell (11c1c37f851c82e70ff6c80c92926a4b)
REM
REM compiler GCC version 9.2.1 20190827 (Red Hat 9.2.1-1)
REM options -cpp -mtune=generic -march=x86-64 -g -O0 -fpre-include=/usr/include/finclude/math-vector-fortran.h
REM seed -1984766500 -532442241 -278607438 1943117077 -1893215896 1718582792 -1757949250 803805610 148158619 -1850958891 -698254807 267416531 222618847 808059885 777185932 -1499836599 -868770531 1930280941 1676559888 767843995 -1959688055 1220065429 -2075540873 2017341825 610426459 -1509402441 309895619 -323023854 -1296358264 -2067454648 -851660589 817648291 -1743180349
REM
CELL 1.54180   50.00000   50.00000   50.00000   90.00000   90.00000   90.00000
LATT -1
SFAC C  
C      1  0.4897840000000  0.4762630000000  0.5715950000000 1.0
C      1  0.5265550000000  0.5547950000000  0.4528460000000 1.0
C      1  0.5732120000000  0.5017020000000  0.5661960000000 1.0
C      1  0.4723330000000  0.5296620000000  0.4793820000000 1.0
C      1  0.4215700000000  0.5125280000000  0.5275710000000 1.0
C      1  0.4274340000000  0.4698130000000  0.4663620000000 1.0
C      1  0.4970130000000  0.5068940000000  0.4715860000000 1.0
C      1  0.5159430000000  0.5525760000000  0.5177100000000 1.0
C      1  0.5268180000000  0.5266890000000  0.4989560000000 1.0
C      1  0.5082680000000  0.4771020000000  0.4391200000000 1.0
C      1  0.4618240000000  0.5009630000000  0.4929230000000 1.0
C      1  0.4829350000000  0.5470870000000  0.4343600000000 1.0
C      1  0.5524250000000  0.4494480000000  0.5080380000000 1.0
C      1  0.4975430000000  0.5652950000000  0.4508850000000 1.0
C      1  0.5723510000000  0.4631480000000  0.5277790000000 1.0
C      1  0.4853820000000  0.5752790000000  0.5061930000000 1.0
C      1  0.5316410000000  0.4381490000000  0.5281810000000 1.0
C      1  0.4402470000000  0.5313040000000  0.5364870000000 1.0
C      1  0.5276210000000  0.5285690000000  0.4362780000000 1.0
C      1  0.5542760000000  0.5616790000000  0.5111280000000 1.0
C      1  0.4787500000000  0.4447420000000  0.5503160000000 1.0
C      1  0.5479330000000  0.5308330000000  0.5252850000000 1.0
C      1  0.4879940000000  0.4966620000000  0.4341630000000 1.0
C      1  0.4677060000000  0.4957370000000  0.4591240000000 1.0
C      1  0.5800630000000  0.4932000000000  0.5143980000000 1.0
C      1  0.4300820000000  0.4987400000000  0.5006380000000 1.0
C      1  0.4891170000000  0.5080360000000  0.5722690000000 1.0
C      1  0.4518330000000  0.6109610000000  0.5062820000000 1.0
C      1  0.4372050000000  0.4945090000000  0.4615690000000 1.0
C      1  0.5121060000000  0.5454660000000  0.5514420000000 1.0
C      1  0.4285750000000  0.4169540000000  0.4750920000000 1.0
C      1  0.5333760000000  0.4987900000000  0.5678590000000 1.0
C      1  0.4770860000000  0.4261650000000  0.5268130000000 1.0
C      1  0.4432350000000  0.5685800000000  0.4836090000000 1.0
C      1  0.5636810000000  0.5387600000000  0.4894400000000 1.0
C      1  0.5037410000000  0.5385160000000  0.4812630000000 1.0
C      1  0.4606440000000  0.4656210000000  0.5596340000000 1.0
C      1  0.5328620000000  0.5000740000000  0.5279670000000 1.0
C      1  0.4682080000000  0.4960270000000  0.5501760000000 1.0
C      1  0.4554950000000  0.4149960000000  0.4811640000000 1.0
C      1  0.5507480000000  0.5179350000000  0.4149200000000 1.0
C      1  0.5101250000000  0.4502290000000  0.4310690000000 1.0
C      1  0.4269250000000  0.5195520000000  0.4748100000000 1.0
C      1  0.5522260000000  0.5068950000000  0.4444680000000 1.0
C      1  0.4034780000000  0.4945100000000  0.5409070000000 1.0
C      1  0.5637720000000  0.4993490000000  0.5418900000000 1.0
C      1  0.5368670000000  0.4707560000000  0.5622410000000 1.0
C      1  0.5120490000000  0.4510420000000  0.5543010000000 1.0
C      1  0.4339880000000  0.4476150000000  0.4888760000000 1.0
C      1  0.5059540000000  0.5700630000000  0.4833290000000 1.0
C      1  0.5733130000000  0.5129880000000  0.4892210000000 1.0
C      1  0.5401370000000  0.5601210000000  0.5411300000000 1.0
C      1  0.4779780000000  0.5012020000000  0.5203750000000 1.0
C      1  0.4925720000000  0.4560590000000  0.5052680000000 1.0
C      1  0.5244410000000  0.4327700000000  0.4736870000000 1.0
C      1  0.4860380000000  0.5529520000000  0.5307600000000 1.0
C      1  0.4597150000000  0.5860430000000  0.4988010000000 1.0
C      1  0.4667110000000  0.5306500000000  0.5305270000000 1.0
C      1  0.5387310000000  0.4610870000000  0.4792250000000 1.0
C      1  0.5210320000000  0.4841030000000  0.4668000000000 1.0
C      1  0.4977490000000  0.5227560000000  0.4290570000000 1.0
C      1  0.5264060000000  0.4953510000000  0.4957680000000 1.0
C      1  0.5677050000000  0.4736100000000  0.4895280000000 1.0
C      1  0.5388680000000  0.5608040000000  0.4815160000000 1.0
C      1  0.5138330000000  0.5196830000000  0.5668160000000 1.0
C      1  0.4029580000000  0.4697020000000  0.5277280000000 1.0
C      1  0.4649530000000  0.4394820000000  0.5006580000000 1.0
C      1  0.4448580000000  0.5417440000000  0.4759330000000 1.0
C      1  0.5627990000000  0.4612800000000  0.5538600000000 1.0
C      1  0.5065670000000  0.4202100000000  0.5383490000000 1.0
C      1  0.5038120000000  0.4848000000000  0.5168490000000 1.0
C      1  0.5612210000000  0.5193140000000  0.3902210000000 1.0
C      1  0.5147690000000  0.4379150000000  0.5012410000000 1.0
C      1  0.5661990000000  0.4966070000000  0.4651480000000 1.0
C      1  0.4193630000000  0.4697160000000  0.5054100000000 1.0
C      1  0.5162740000000  0.4287880000000  0.4472370000000 1.0
END
