TITL C-2778424-3986-238 0.00367791016885354 125000 -767.673855661879 0 0 135 (C1) n - 1
REM
REM in /home/nfs/bkarasulu/CARBON/AIRSS/Generating-Clusters/REBO/Only-C1/SD-CG/HFTN-CG
REM
REM
REM
REM
REM
REM ./C.cell (11c1c37f851c82e70ff6c80c92926a4b)
REM
REM compiler GCC version 9.2.1 20190827 (Red Hat 9.2.1-1)
REM options -cpp -mtune=generic -march=x86-64 -g -O0 -fpre-include=/usr/include/finclude/math-vector-fortran.h
REM seed -1669717684 1418259226 -464921028 -118627664 -1941646878 1729345378 -162449629 1751303024 1098044290 976924516 111838717 -1754933198 -956171841 -777196843 1356124615 987032343 1279691778 -451391035 1374144774 -219966501 1488046824 1917361446 -514637551 1482584039 1659916813 -902638536 -77021990 1963633881 -2141508913 -1569533164 -1218134785 -2089440868 -2061192381
REM
CELL 1.54180   50.00000   50.00000   50.00000   90.00000   90.00000   90.00000
LATT -1
SFAC C  
C      1  0.4785740000000  0.4536020000000  0.4243400000000 1.0
C      1  0.4697550000000  0.5615940000000  0.4771710000000 1.0
C      1  0.5234800000000  0.4215800000000  0.5685660000000 1.0
C      1  0.4917370000000  0.5552180000000  0.4991830000000 1.0
C      1  0.5399370000000  0.5929020000000  0.5492730000000 1.0
C      1  0.4855420000000  0.5227200000000  0.5048790000000 1.0
C      1  0.5793290000000  0.4527690000000  0.4570160000000 1.0
C      1  0.4354060000000  0.4327080000000  0.4431640000000 1.0
C      1  0.5223540000000  0.4138020000000  0.4934880000000 1.0
C      1  0.4096780000000  0.4925350000000  0.4743870000000 1.0
C      1  0.4423460000000  0.5362840000000  0.4152050000000 1.0
C      1  0.5623080000000  0.5686290000000  0.5584130000000 1.0
C      1  0.4986770000000  0.5811000000000  0.4581770000000 1.0
C      1  0.4673510000000  0.4289180000000  0.4409660000000 1.0
C      1  0.4918010000000  0.4393650000000  0.4905330000000 1.0
C      1  0.5239540000000  0.5292240000000  0.5847880000000 1.0
C      1  0.5802590000000  0.4806650000000  0.5539700000000 1.0
C      1  0.5732360000000  0.5297050000000  0.5564350000000 1.0
C      1  0.4786790000000  0.5357130000000  0.5346650000000 1.0
C      1  0.5470130000000  0.5233160000000  0.4273900000000 1.0
C      1  0.5722630000000  0.5409280000000  0.5854310000000 1.0
C      1  0.4645720000000  0.5365100000000  0.4606760000000 1.0
C      1  0.5047890000000  0.4236320000000  0.4240640000000 1.0
C      1  0.5513360000000  0.4907030000000  0.4868610000000 1.0
C      1  0.4777350000000  0.5672210000000  0.5372000000000 1.0
C      1  0.4114910000000  0.5442320000000  0.5176600000000 1.0
C      1  0.4173810000000  0.5443180000000  0.4896210000000 1.0
C      1  0.4727500000000  0.5064810000000  0.5510710000000 1.0
C      1  0.4978660000000  0.5829930000000  0.5179340000000 1.0
C      1  0.5799390000000  0.5544110000000  0.5334960000000 1.0
C      1  0.5487250000000  0.5304730000000  0.5325570000000 1.0
C      1  0.4772560000000  0.4054180000000  0.5207280000000 1.0
C      1  0.5278590000000  0.4731530000000  0.4094040000000 1.0
C      1  0.4159900000000  0.5349230000000  0.4614320000000 1.0
C      1  0.5232330000000  0.5951410000000  0.4985970000000 1.0
C      1  0.5124780000000  0.5969080000000  0.4398890000000 1.0
C      1  0.4593600000000  0.5831660000000  0.4652000000000 1.0
C      1  0.5596580000000  0.4596980000000  0.5611180000000 1.0
C      1  0.4728100000000  0.5002150000000  0.4888930000000 1.0
C      1  0.5370190000000  0.4685530000000  0.5785020000000 1.0
C      1  0.5894880000000  0.4842010000000  0.5248050000000 1.0
C      1  0.4478810000000  0.4887980000000  0.4488600000000 1.0
C      1  0.4430860000000  0.5363070000000  0.5522800000000 1.0
C      1  0.4456320000000  0.4782910000000  0.5428200000000 1.0
C      1  0.4912760000000  0.5307160000000  0.4139060000000 1.0
C      1  0.4818260000000  0.4569080000000  0.3971440000000 1.0
C      1  0.5497810000000  0.5698840000000  0.5261500000000 1.0
C      1  0.4897680000000  0.4103000000000  0.4959090000000 1.0
C      1  0.4917780000000  0.5936640000000  0.4859970000000 1.0
C      1  0.5013880000000  0.4866520000000  0.5777110000000 1.0
C      1  0.5771050000000  0.5171350000000  0.4717870000000 1.0
C      1  0.4361230000000  0.4527180000000  0.5369510000000 1.0
C      1  0.4695800000000  0.5216050000000  0.5975020000000 1.0
C      1  0.4974780000000  0.4122610000000  0.5423420000000 1.0
C      1  0.5346160000000  0.4610290000000  0.5070170000000 1.0
C      1  0.5230110000000  0.4853790000000  0.4776200000000 1.0
C      1  0.4059910000000  0.4882130000000  0.5209750000000 1.0
C      1  0.4573370000000  0.4668940000000  0.4731620000000 1.0
C      1  0.5787900000000  0.4780110000000  0.4798160000000 1.0
C      1  0.5608990000000  0.5001770000000  0.4482090000000 1.0
C      1  0.4492990000000  0.5278900000000  0.5194440000000 1.0
C      1  0.4653650000000  0.5423180000000  0.5724250000000 1.0
C      1  0.5675530000000  0.4050900000000  0.4787390000000 1.0
C      1  0.5729760000000  0.4336660000000  0.4914600000000 1.0
C      1  0.5221850000000  0.5279220000000  0.4082450000000 1.0
C      1  0.4273150000000  0.5158480000000  0.4471580000000 1.0
C      1  0.5327950000000  0.5269490000000  0.5060390000000 1.0
C      1  0.4389730000000  0.5000270000000  0.4859660000000 1.0
C      1  0.5718440000000  0.4294940000000  0.5215970000000 1.0
C      1  0.4992160000000  0.5706550000000  0.5803190000000 1.0
C      1  0.5635450000000  0.5411840000000  0.4516710000000 1.0
C      1  0.5105310000000  0.5093610000000  0.5149050000000 1.0
C      1  0.4819900000000  0.4493910000000  0.4638420000000 1.0
C      1  0.5862540000000  0.5043450000000  0.5006920000000 1.0
C      1  0.5285270000000  0.5224470000000  0.4548940000000 1.0
C      1  0.4363840000000  0.4857290000000  0.5809960000000 1.0
C      1  0.4521850000000  0.5770020000000  0.5229160000000 1.0
C      1  0.5720170000000  0.5345800000000  0.5072740000000 1.0
C      1  0.5066170000000  0.4628360000000  0.5460220000000 1.0
C      1  0.4711790000000  0.4285600000000  0.5522520000000 1.0
C      1  0.4896280000000  0.5191800000000  0.4517380000000 1.0
C      1  0.5617670000000  0.4258460000000  0.4544620000000 1.0
C      1  0.4495860000000  0.4243460000000  0.5268270000000 1.0
C      1  0.5511970000000  0.4053830000000  0.5088930000000 1.0
C      1  0.4274000000000  0.4784940000000  0.5073250000000 1.0
C      1  0.4503990000000  0.4194380000000  0.4948340000000 1.0
C      1  0.5300800000000  0.4295810000000  0.4667520000000 1.0
C      1  0.5096830000000  0.4430760000000  0.4476310000000 1.0
C      1  0.5442700000000  0.5746210000000  0.4872480000000 1.0
C      1  0.4728690000000  0.5024560000000  0.4126520000000 1.0
C      1  0.5082890000000  0.4547900000000  0.5069200000000 1.0
C      1  0.5709880000000  0.4582750000000  0.5228470000000 1.0
C      1  0.5297380000000  0.5006270000000  0.5776820000000 1.0
C      1  0.5554200000000  0.5006860000000  0.5578170000000 1.0
C      1  0.4586630000000  0.4180110000000  0.4719760000000 1.0
C      1  0.5480870000000  0.4820590000000  0.5302880000000 1.0
C      1  0.4075880000000  0.5173820000000  0.5296470000000 1.0
C      1  0.4623620000000  0.5939790000000  0.5032060000000 1.0
C      1  0.4668260000000  0.5426160000000  0.4288550000000 1.0
C      1  0.5371110000000  0.5458280000000  0.5606780000000 1.0
C      1  0.4928940000000  0.4899820000000  0.4675810000000 1.0
C      1  0.5125360000000  0.4999540000000  0.4346410000000 1.0
C      1  0.4467330000000  0.5303620000000  0.4865300000000 1.0
C      1  0.5353250000000  0.4440510000000  0.5431400000000 1.0
C      1  0.4956150000000  0.5408090000000  0.5890260000000 1.0
C      1  0.4633190000000  0.4490370000000  0.5699980000000 1.0
C      1  0.5506230000000  0.4701040000000  0.4530510000000 1.0
C      1  0.5649590000000  0.5537260000000  0.4821310000000 1.0
C      1  0.4108420000000  0.4747950000000  0.4531630000000 1.0
C      1  0.4612100000000  0.4742710000000  0.5063000000000 1.0
C      1  0.5164600000000  0.4886520000000  0.5292520000000 1.0
C      1  0.5256050000000  0.4180310000000  0.5275020000000 1.0
C      1  0.5075180000000  0.5484270000000  0.4546350000000 1.0
C      1  0.4783250000000  0.4783640000000  0.5354930000000 1.0
C      1  0.5240730000000  0.5744040000000  0.5680790000000 1.0
C      1  0.5489490000000  0.4515050000000  0.4821190000000 1.0
C      1  0.4422670000000  0.5088370000000  0.4097430000000 1.0
C      1  0.4845650000000  0.4833980000000  0.3894590000000 1.0
C      1  0.4333120000000  0.5043410000000  0.5452530000000 1.0
C      1  0.4296320000000  0.4543700000000  0.4590710000000 1.0
C      1  0.4309430000000  0.5603620000000  0.5328560000000 1.0
C      1  0.4810680000000  0.4700440000000  0.5758970000000 1.0
C      1  0.4773560000000  0.4815990000000  0.4388170000000 1.0
C      1  0.5440740000000  0.5198950000000  0.4793160000000 1.0
C      1  0.4783740000000  0.5793830000000  0.5653730000000 1.0
C      1  0.5355930000000  0.5841900000000  0.4312880000000 1.0
C      1  0.4585660000000  0.5032370000000  0.5762480000000 1.0
C      1  0.4371330000000  0.4583030000000  0.5765200000000 1.0
C      1  0.5249890000000  0.5563980000000  0.5070600000000 1.0
C      1  0.4218190000000  0.4896660000000  0.4260560000000 1.0
C      1  0.5105580000000  0.4984370000000  0.4003090000000 1.0
C      1  0.5244980000000  0.4683630000000  0.4389430000000 1.0
C      1  0.5148470000000  0.4490880000000  0.5764780000000 1.0
C      1  0.5504270000000  0.5421250000000  0.5981800000000 1.0
C      1  0.5375260000000  0.5589500000000  0.4420510000000 1.0
END
