TITL C-2778430-5657-205 0.0110153008939955 125000 -448.051922655611 0 0 77 (C1) n - 1
REM
REM in /home/nfs/bkarasulu/CARBON/AIRSS/Generating-Clusters/REBO/Only-C1/SD-CG/HFTN-CG
REM
REM
REM
REM
REM
REM ./C.cell (11c1c37f851c82e70ff6c80c92926a4b)
REM
REM compiler GCC version 9.2.1 20190827 (Red Hat 9.2.1-1)
REM options -cpp -mtune=generic -march=x86-64 -g -O0 -fpre-include=/usr/include/finclude/math-vector-fortran.h
REM seed -968984957 1029691216 12663195 1461266567 -461212575 363008668 -683424153 -1297128818 -610809147 582340460 -1760006028 813914552 1494306088 953153416 -903543550 1446001716 -908712727 736847954 -454677120 477772224 -469510962 379144906 -1927783783 213680619 -790688122 921793414 -821370531 -1399466924 -1638402045 -1441997239 -256869855 -1086918987 157959132
REM
CELL 1.54180   50.00000   50.00000   50.00000   90.00000   90.00000   90.00000
LATT -1
SFAC C  
C      1  0.4862390000000  0.4598890000000  0.5417080000000 1.0
C      1  0.4367230000000  0.4685430000000  0.5366680000000 1.0
C      1  0.4418320000000  0.5243450000000  0.4566690000000 1.0
C      1  0.5307730000000  0.5604040000000  0.4719140000000 1.0
C      1  0.5623010000000  0.5721580000000  0.5090890000000 1.0
C      1  0.5156080000000  0.5304530000000  0.4298290000000 1.0
C      1  0.4660740000000  0.4230370000000  0.5036990000000 1.0
C      1  0.4562700000000  0.4511420000000  0.5459990000000 1.0
C      1  0.5753790000000  0.4678000000000  0.4255070000000 1.0
C      1  0.4897470000000  0.4682960000000  0.4893810000000 1.0
C      1  0.5570900000000  0.4418460000000  0.4879450000000 1.0
C      1  0.5150690000000  0.5607590000000  0.5173890000000 1.0
C      1  0.5054370000000  0.4950530000000  0.4451620000000 1.0
C      1  0.5119430000000  0.5392590000000  0.5361520000000 1.0
C      1  0.5717160000000  0.5137550000000  0.5105290000000 1.0
C      1  0.5722390000000  0.4726810000000  0.5352660000000 1.0
C      1  0.5047380000000  0.5010580000000  0.5062870000000 1.0
C      1  0.5444860000000  0.5413580000000  0.5738030000000 1.0
C      1  0.4906930000000  0.5439770000000  0.5602970000000 1.0
C      1  0.4664910000000  0.5671610000000  0.5161190000000 1.0
C      1  0.4796500000000  0.4149730000000  0.5640630000000 1.0
C      1  0.4519090000000  0.4486570000000  0.4932730000000 1.0
C      1  0.4850720000000  0.5154810000000  0.4301510000000 1.0
C      1  0.5009400000000  0.4820220000000  0.5320270000000 1.0
C      1  0.5211060000000  0.5493820000000  0.5735220000000 1.0
C      1  0.5495780000000  0.5056190000000  0.5340630000000 1.0
C      1  0.5715950000000  0.4452240000000  0.4355750000000 1.0
C      1  0.5710330000000  0.4837010000000  0.5084390000000 1.0
C      1  0.5028960000000  0.4474790000000  0.4463520000000 1.0
C      1  0.5780970000000  0.5334540000000  0.5329300000000 1.0
C      1  0.5518210000000  0.4309220000000  0.4572920000000 1.0
C      1  0.4592610000000  0.5078430000000  0.5675860000000 1.0
C      1  0.4846110000000  0.5184890000000  0.4977700000000 1.0
C      1  0.4463790000000  0.4984850000000  0.5425990000000 1.0
C      1  0.4212140000000  0.5132000000000  0.4992290000000 1.0
C      1  0.4910670000000  0.5414160000000  0.4837600000000 1.0
C      1  0.4918490000000  0.5737940000000  0.5068010000000 1.0
C      1  0.4985610000000  0.4228460000000  0.4649130000000 1.0
C      1  0.4353200000000  0.4971970000000  0.4525360000000 1.0
C      1  0.5275730000000  0.4838980000000  0.4309990000000 1.0
C      1  0.4735130000000  0.4584660000000  0.4357130000000 1.0
C      1  0.5624070000000  0.4699780000000  0.4850770000000 1.0
C      1  0.4206780000000  0.5485260000000  0.5178150000000 1.0
C      1  0.4955700000000  0.5201200000000  0.6297940000000 1.0
C      1  0.4586060000000  0.5101780000000  0.5130540000000 1.0
C      1  0.5581040000000  0.4956320000000  0.4297430000000 1.0
C      1  0.4971610000000  0.4749080000000  0.4632380000000 1.0
C      1  0.5659310000000  0.4898600000000  0.5586770000000 1.0
C      1  0.4601450000000  0.4814250000000  0.4974520000000 1.0
C      1  0.5195680000000  0.5499660000000  0.4498020000000 1.0
C      1  0.5388510000000  0.5201910000000  0.4193530000000 1.0
C      1  0.4544010000000  0.4269940000000  0.5617870000000 1.0
C      1  0.4650420000000  0.5341830000000  0.4436220000000 1.0
C      1  0.5805650000000  0.5603290000000  0.5254840000000 1.0
C      1  0.4729320000000  0.4841850000000  0.4247510000000 1.0
C      1  0.5210340000000  0.5099610000000  0.5322870000000 1.0
C      1  0.4436120000000  0.5599820000000  0.4983850000000 1.0
C      1  0.5547180000000  0.4770680000000  0.4583720000000 1.0
C      1  0.4871350000000  0.5215730000000  0.6050240000000 1.0
C      1  0.4539040000000  0.4468200000000  0.4590030000000 1.0
C      1  0.5050080000000  0.4463070000000  0.4993290000000 1.0
C      1  0.4938960000000  0.5754160000000  0.4757100000000 1.0
C      1  0.5264250000000  0.4311730000000  0.4802910000000 1.0
C      1  0.4976190000000  0.4297450000000  0.5468280000000 1.0
C      1  0.5372590000000  0.5645310000000  0.4989890000000 1.0
C      1  0.4459530000000  0.5357520000000  0.5299370000000 1.0
C      1  0.4709560000000  0.4210740000000  0.4726860000000 1.0
C      1  0.5044860000000  0.5975950000000  0.4639280000000 1.0
C      1  0.4911610000000  0.4286710000000  0.5172550000000 1.0
C      1  0.4229630000000  0.4932830000000  0.5188920000000 1.0
C      1  0.4780780000000  0.5532440000000  0.4582120000000 1.0
C      1  0.5334620000000  0.4546480000000  0.4428940000000 1.0
C      1  0.4441300000000  0.4769970000000  0.4679070000000 1.0
C      1  0.5657770000000  0.5238200000000  0.5607990000000 1.0
C      1  0.4338140000000  0.5338220000000  0.4830200000000 1.0
C      1  0.4782280000000  0.5231070000000  0.5788670000000 1.0
C      1  0.4665260000000  0.5534150000000  0.5427310000000 1.0
END
