TITL C-2778434-4341-146 -0.00179994249562987 125000 -524.686830028803 0 0 90 (C1) n - 1
REM
REM in /home/nfs/bkarasulu/CARBON/AIRSS/Generating-Clusters/REBO/Only-C1/SD-CG/HFTN-CG
REM
REM
REM
REM
REM
REM ./C.cell (11c1c37f851c82e70ff6c80c92926a4b)
REM
REM compiler GCC version 9.2.1 20190827 (Red Hat 9.2.1-1)
REM options -cpp -mtune=generic -march=x86-64 -g -O0 -fpre-include=/usr/include/finclude/math-vector-fortran.h
REM seed 1340320248 2113906113 60100771 -1928324831 -2051259466 1940667400 -1620349200 -421240489 1858626783 793330620 -1056205139 -991804195 -355883769 608634296 -1291071413 375611072 1821757682 13453648 1103606225 223755634 1794781695 -68259445 -1161229676 602508343 -755802032 1256653242 -2085138925 258943761 -872458516 -1710467339 1348193593 -834965751 -1554082211
REM
CELL 1.54180   50.00000   50.00000   50.00000   90.00000   90.00000   90.00000
LATT -1
SFAC C  
C      1  0.4582850000000  0.5145310000000  0.4557650000000 1.0
C      1  0.4323110000000  0.5408280000000  0.4928320000000 1.0
C      1  0.5344500000000  0.4463280000000  0.5268340000000 1.0
C      1  0.4793440000000  0.4324490000000  0.4437010000000 1.0
C      1  0.5684310000000  0.4580260000000  0.4870750000000 1.0
C      1  0.4184400000000  0.5147740000000  0.4844100000000 1.0
C      1  0.5300270000000  0.5155060000000  0.4791590000000 1.0
C      1  0.4419380000000  0.4730290000000  0.4730000000000 1.0
C      1  0.4958300000000  0.5551490000000  0.4539020000000 1.0
C      1  0.4669000000000  0.5123140000000  0.5714610000000 1.0
C      1  0.5047010000000  0.4177910000000  0.4694440000000 1.0
C      1  0.5196440000000  0.4071830000000  0.4987820000000 1.0
C      1  0.5256780000000  0.4850530000000  0.4234590000000 1.0
C      1  0.4677080000000  0.5786030000000  0.4867930000000 1.0
C      1  0.4741930000000  0.5066360000000  0.5101260000000 1.0
C      1  0.5096560000000  0.5428620000000  0.5135970000000 1.0
C      1  0.5472390000000  0.5534580000000  0.4549290000000 1.0
C      1  0.5347480000000  0.4345930000000  0.4886780000000 1.0
C      1  0.5797890000000  0.4667370000000  0.5318640000000 1.0
C      1  0.4076720000000  0.5018540000000  0.5068800000000 1.0
C      1  0.5757880000000  0.5248590000000  0.4981300000000 1.0
C      1  0.4974010000000  0.5786340000000  0.5006100000000 1.0
C      1  0.5444440000000  0.5647910000000  0.4835280000000 1.0
C      1  0.4595280000000  0.4261740000000  0.5340490000000 1.0
C      1  0.4806920000000  0.4917270000000  0.5727730000000 1.0
C      1  0.4883010000000  0.5042340000000  0.4518200000000 1.0
C      1  0.5484280000000  0.4948470000000  0.5746330000000 1.0
C      1  0.4849830000000  0.4261120000000  0.4932510000000 1.0
C      1  0.5579560000000  0.5256640000000  0.4523890000000 1.0
C      1  0.5273580000000  0.4407640000000  0.4587550000000 1.0
C      1  0.5081550000000  0.4445120000000  0.5070220000000 1.0
C      1  0.5124340000000  0.5279960000000  0.5557190000000 1.0
C      1  0.4251850000000  0.4556260000000  0.4879780000000 1.0
C      1  0.5359490000000  0.5119880000000  0.4398660000000 1.0
C      1  0.5241380000000  0.5578520000000  0.4378030000000 1.0
C      1  0.4628160000000  0.5358490000000  0.5485940000000 1.0
C      1  0.5384650000000  0.5126090000000  0.5471310000000 1.0
C      1  0.4951450000000  0.4664460000000  0.5575240000000 1.0
C      1  0.4499650000000  0.4845810000000  0.5101920000000 1.0
C      1  0.4886740000000  0.5188390000000  0.5386820000000 1.0
C      1  0.4326900000000  0.4754600000000  0.5431030000000 1.0
C      1  0.5446700000000  0.5549770000000  0.5792700000000 1.0
C      1  0.5231750000000  0.4873360000000  0.4732190000000 1.0
C      1  0.5186560000000  0.5489570000000  0.5720960000000 1.0
C      1  0.5230210000000  0.5198690000000  0.5182560000000 1.0
C      1  0.4807740000000  0.5620840000000  0.5487020000000 1.0
C      1  0.4613350000000  0.5093150000000  0.4230060000000 1.0
C      1  0.4594410000000  0.4244360000000  0.5042850000000 1.0
C      1  0.5934810000000  0.5278490000000  0.5178170000000 1.0
C      1  0.5242030000000  0.4572670000000  0.5563280000000 1.0
C      1  0.5075440000000  0.4055100000000  0.5244070000000 1.0
C      1  0.4747250000000  0.5231490000000  0.4843090000000 1.0
C      1  0.4342970000000  0.4996080000000  0.4664440000000 1.0
C      1  0.4734340000000  0.5788230000000  0.5248140000000 1.0
C      1  0.4901010000000  0.4152740000000  0.5422710000000 1.0
C      1  0.4995680000000  0.4700890000000  0.4119530000000 1.0
C      1  0.4701620000000  0.4825840000000  0.4181980000000 1.0
C      1  0.4969590000000  0.4731250000000  0.5052630000000 1.0
C      1  0.5408980000000  0.4681550000000  0.5747160000000 1.0
C      1  0.4460470000000  0.4520670000000  0.5516150000000 1.0
C      1  0.4662430000000  0.5644630000000  0.4620950000000 1.0
C      1  0.5412800000000  0.4783630000000  0.5270340000000 1.0
C      1  0.5295800000000  0.5837160000000  0.4986970000000 1.0
C      1  0.4348920000000  0.4294110000000  0.4915470000000 1.0
C      1  0.5251900000000  0.5841420000000  0.5287350000000 1.0
C      1  0.4254660000000  0.5067170000000  0.5318230000000 1.0
C      1  0.4884920000000  0.4861740000000  0.5339940000000 1.0
C      1  0.5215980000000  0.4922710000000  0.5126250000000 1.0
C      1  0.5081030000000  0.5621080000000  0.5354120000000 1.0
C      1  0.4183310000000  0.4722690000000  0.5132210000000 1.0
C      1  0.5011930000000  0.5084870000000  0.4216580000000 1.0
C      1  0.5724320000000  0.5145820000000  0.5676870000000 1.0
C      1  0.4406200000000  0.5355470000000  0.5260310000000 1.0
C      1  0.4932790000000  0.5478620000000  0.4863420000000 1.0
C      1  0.5673170000000  0.4955600000000  0.5398350000000 1.0
C      1  0.4716450000000  0.4734920000000  0.4864270000000 1.0
C      1  0.5290100000000  0.4679780000000  0.4506700000000 1.0
C      1  0.5683000000000  0.5412440000000  0.5756610000000 1.0
C      1  0.4425510000000  0.5502980000000  0.4630050000000 1.0
C      1  0.5728240000000  0.5098620000000  0.4716280000000 1.0
C      1  0.5477070000000  0.5345860000000  0.4904370000000 1.0
C      1  0.4838160000000  0.4593390000000  0.4392070000000 1.0
C      1  0.5097920000000  0.5256800000000  0.4565230000000 1.0
C      1  0.5727030000000  0.4814010000000  0.4733990000000 1.0
C      1  0.5083100000000  0.5415830000000  0.4182550000000 1.0
C      1  0.4786800000000  0.5306880000000  0.4090190000000 1.0
C      1  0.5657100000000  0.4499280000000  0.5143340000000 1.0
C      1  0.4922510000000  0.4764410000000  0.4638990000000 1.0
C      1  0.4775220000000  0.4429280000000  0.5574100000000 1.0
C      1  0.4471960000000  0.5651410000000  0.5101750000000 1.0
END
