TITL C-2778426-5645-1397 0.0036393404194076 125000 -749.476937685636 0 0 131 (C1) n - 1
REM
REM in /home/nfs/bkarasulu/CARBON/AIRSS/Generating-Clusters/REBO/Only-C1/SD-CG/HFTN-CG
REM
REM
REM
REM
REM
REM ./C.cell (11c1c37f851c82e70ff6c80c92926a4b)
REM
REM compiler GCC version 9.2.1 20190827 (Red Hat 9.2.1-1)
REM options -cpp -mtune=generic -march=x86-64 -g -O0 -fpre-include=/usr/include/finclude/math-vector-fortran.h
REM seed -551363272 -1063577683 751731191 295705475 -1470689782 2007338417 1683601957 105368047 224295447 84548473 -1233452044 1643654115 1696886652 -1142739551 -1958670494 1815740611 1431181411 -521329854 765793254 -23775853 604055225 -1017914381 1481321602 -1531622130 -1606742632 896890561 242690681 -1693694760 -1733243774 1173148248 -751184440 -1325877073 -269010584
REM
CELL 1.54180   50.00000   50.00000   50.00000   90.00000   90.00000   90.00000
LATT -1
SFAC C  
C      1  0.4696810000000  0.5542320000000  0.5397090000000 1.0
C      1  0.4657740000000  0.5291560000000  0.4157830000000 1.0
C      1  0.5312710000000  0.5352880000000  0.4159880000000 1.0
C      1  0.5210680000000  0.5519470000000  0.4930690000000 1.0
C      1  0.5370220000000  0.5425580000000  0.5939150000000 1.0
C      1  0.5221140000000  0.4550560000000  0.4640840000000 1.0
C      1  0.4338160000000  0.4192060000000  0.4895520000000 1.0
C      1  0.4743280000000  0.4476670000000  0.4471100000000 1.0
C      1  0.4974070000000  0.5200160000000  0.4887100000000 1.0
C      1  0.4404470000000  0.5113150000000  0.5099160000000 1.0
C      1  0.4893050000000  0.5126520000000  0.4073290000000 1.0
C      1  0.5138570000000  0.5806810000000  0.4855230000000 1.0
C      1  0.5085130000000  0.4880790000000  0.4818110000000 1.0
C      1  0.4814270000000  0.4549490000000  0.5838100000000 1.0
C      1  0.5104520000000  0.4544300000000  0.5261610000000 1.0
C      1  0.5418120000000  0.4409460000000  0.5650600000000 1.0
C      1  0.4325970000000  0.4446140000000  0.5339860000000 1.0
C      1  0.4501670000000  0.5221890000000  0.4570000000000 1.0
C      1  0.4630580000000  0.5442690000000  0.5668810000000 1.0
C      1  0.4809200000000  0.4281600000000  0.5205720000000 1.0
C      1  0.4602640000000  0.4831840000000  0.4727990000000 1.0
C      1  0.5083460000000  0.4179240000000  0.5050840000000 1.0
C      1  0.4838450000000  0.4954810000000  0.4626980000000 1.0
C      1  0.4607910000000  0.4251700000000  0.4836390000000 1.0
C      1  0.5768800000000  0.5017070000000  0.5458020000000 1.0
C      1  0.5407770000000  0.5015260000000  0.5193170000000 1.0
C      1  0.5067140000000  0.4557620000000  0.4923140000000 1.0
C      1  0.5814510000000  0.4685430000000  0.4602300000000 1.0
C      1  0.5827590000000  0.4419240000000  0.5001620000000 1.0
C      1  0.5689650000000  0.4831520000000  0.5113900000000 1.0
C      1  0.4198520000000  0.4837150000000  0.5651240000000 1.0
C      1  0.5275640000000  0.4945180000000  0.5563530000000 1.0
C      1  0.5726490000000  0.5613460000000  0.5021610000000 1.0
C      1  0.4959550000000  0.5400800000000  0.5230060000000 1.0
C      1  0.4806190000000  0.4952290000000  0.4308890000000 1.0
C      1  0.5711360000000  0.5475750000000  0.4611110000000 1.0
C      1  0.5290380000000  0.5094920000000  0.5930770000000 1.0
C      1  0.4127060000000  0.5356120000000  0.4945520000000 1.0
C      1  0.4429420000000  0.5080360000000  0.4280740000000 1.0
C      1  0.5352170000000  0.4695900000000  0.5165320000000 1.0
C      1  0.4222440000000  0.5474030000000  0.5238430000000 1.0
C      1  0.5101830000000  0.4786930000000  0.4057990000000 1.0
C      1  0.5007390000000  0.5303760000000  0.4412260000000 1.0
C      1  0.5532330000000  0.5144990000000  0.4746690000000 1.0
C      1  0.5748930000000  0.5505810000000  0.5303610000000 1.0
C      1  0.4476510000000  0.5380210000000  0.4945250000000 1.0
C      1  0.5187270000000  0.5116010000000  0.4040900000000 1.0
C      1  0.4683230000000  0.4499380000000  0.5005160000000 1.0
C      1  0.4757300000000  0.5556180000000  0.4228990000000 1.0
C      1  0.4991280000000  0.4692310000000  0.4371460000000 1.0
C      1  0.5285640000000  0.5486810000000  0.5246420000000 1.0
C      1  0.5410080000000  0.4839880000000  0.4835030000000 1.0
C      1  0.5538810000000  0.5527400000000  0.5552920000000 1.0
C      1  0.5124690000000  0.4478030000000  0.5740880000000 1.0
C      1  0.5453940000000  0.5248860000000  0.5375820000000 1.0
C      1  0.4837400000000  0.5142640000000  0.5508370000000 1.0
C      1  0.5144300000000  0.4802390000000  0.5825030000000 1.0
C      1  0.5552220000000  0.4859310000000  0.5548470000000 1.0
C      1  0.4093200000000  0.4634090000000  0.4889290000000 1.0
C      1  0.4200330000000  0.4377110000000  0.5051820000000 1.0
C      1  0.4873300000000  0.5399000000000  0.5835120000000 1.0
C      1  0.4930620000000  0.4272650000000  0.4790520000000 1.0
C      1  0.5354040000000  0.4857560000000  0.4357770000000 1.0
C      1  0.5660160000000  0.4518990000000  0.5244800000000 1.0
C      1  0.5745940000000  0.5294190000000  0.4965520000000 1.0
C      1  0.5363620000000  0.4604450000000  0.4130820000000 1.0
C      1  0.5425450000000  0.5775080000000  0.5224610000000 1.0
C      1  0.4470690000000  0.5218660000000  0.5646750000000 1.0
C      1  0.5094750000000  0.4184570000000  0.4545800000000 1.0
C      1  0.4951210000000  0.5080590000000  0.5902180000000 1.0
C      1  0.4872770000000  0.4863820000000  0.5229250000000 1.0
C      1  0.5074030000000  0.5081570000000  0.5163700000000 1.0
C      1  0.4246840000000  0.4548800000000  0.4603970000000 1.0
C      1  0.5610760000000  0.4647520000000  0.4347530000000 1.0
C      1  0.4273780000000  0.4717570000000  0.4356970000000 1.0
C      1  0.5551690000000  0.4531360000000  0.4861490000000 1.0
C      1  0.4947300000000  0.4312500000000  0.4262170000000 1.0
C      1  0.4124070000000  0.4980520000000  0.4395790000000 1.0
C      1  0.4113410000000  0.4914060000000  0.4697370000000 1.0
C      1  0.4928140000000  0.4722540000000  0.5494660000000 1.0
C      1  0.5421190000000  0.5857560000000  0.4946650000000 1.0
C      1  0.5912830000000  0.4796970000000  0.4907850000000 1.0
C      1  0.5596130000000  0.4617210000000  0.5692710000000 1.0
C      1  0.5499990000000  0.5322950000000  0.4442990000000 1.0
C      1  0.4645930000000  0.4749200000000  0.5115230000000 1.0
C      1  0.4380310000000  0.4762840000000  0.5284520000000 1.0
C      1  0.5487760000000  0.4278700000000  0.5364210000000 1.0
C      1  0.4606670000000  0.4369330000000  0.5775960000000 1.0
C      1  0.5911500000000  0.5257910000000  0.4691610000000 1.0
C      1  0.5403390000000  0.4274890000000  0.5031820000000 1.0
C      1  0.5175370000000  0.4241780000000  0.5357220000000 1.0
C      1  0.4038760000000  0.5028460000000  0.5508110000000 1.0
C      1  0.4283530000000  0.5444160000000  0.4671290000000 1.0
C      1  0.5255050000000  0.5101650000000  0.4462610000000 1.0
C      1  0.5094590000000  0.5942780000000  0.5519680000000 1.0
C      1  0.4754080000000  0.4845560000000  0.5761550000000 1.0
C      1  0.5236400000000  0.5286150000000  0.4738750000000 1.0
C      1  0.5102080000000  0.5183540000000  0.5547880000000 1.0
C      1  0.4822650000000  0.4589860000000  0.4098730000000 1.0
C      1  0.4454580000000  0.4934600000000  0.5738800000000 1.0
C      1  0.5074350000000  0.5547850000000  0.4217620000000 1.0
C      1  0.4550350000000  0.4766980000000  0.4204380000000 1.0
C      1  0.5788170000000  0.5981620000000  0.4615520000000 1.0
C      1  0.4577650000000  0.4309850000000  0.5451460000000 1.0
C      1  0.4886630000000  0.5789000000000  0.5322980000000 1.0
C      1  0.4157390000000  0.4566370000000  0.5580730000000 1.0
C      1  0.5350770000000  0.5959360000000  0.5427000000000 1.0
C      1  0.4766190000000  0.5441330000000  0.4956830000000 1.0
C      1  0.4634780000000  0.5701910000000  0.4447170000000 1.0
C      1  0.4361850000000  0.5684310000000  0.4492960000000 1.0
C      1  0.5399970000000  0.4200870000000  0.4698120000000 1.0
C      1  0.4142100000000  0.4892600000000  0.5094300000000 1.0
C      1  0.4449050000000  0.5639260000000  0.5248160000000 1.0
C      1  0.5522030000000  0.5221810000000  0.5711500000000 1.0
C      1  0.4547160000000  0.5048700000000  0.5368610000000 1.0
C      1  0.4912400000000  0.4318000000000  0.5528800000000 1.0
C      1  0.6150680000000  0.4694190000000  0.5015050000000 1.0
C      1  0.4853470000000  0.5850550000000  0.4997330000000 1.0
C      1  0.4036260000000  0.5188020000000  0.5228130000000 1.0
C      1  0.5837800000000  0.5212760000000  0.5273100000000 1.0
C      1  0.4529500000000  0.5838830000000  0.5073880000000 1.0
C      1  0.4984010000000  0.5663120000000  0.5645980000000 1.0
C      1  0.5616020000000  0.4409270000000  0.4566090000000 1.0
C      1  0.5666940000000  0.5771580000000  0.4750200000000 1.0
C      1  0.5213440000000  0.5459190000000  0.5638140000000 1.0
C      1  0.4382310000000  0.5022400000000  0.4797160000000 1.0
C      1  0.4779260000000  0.5351840000000  0.4571670000000 1.0
C      1  0.4541170000000  0.4581950000000  0.4621750000000 1.0
C      1  0.4795750000000  0.5659950000000  0.4720140000000 1.0
C      1  0.5262420000000  0.4401130000000  0.4351100000000 1.0
C      1  0.5950560000000  0.4987370000000  0.4641590000000 1.0
END
