TITL C-2778434-4341-1015 -0.00240106948264593 125000 -424.731612485138 0 0 74 (C1) n - 1
REM
REM in /home/nfs/bkarasulu/CARBON/AIRSS/Generating-Clusters/REBO/Only-C1/SD-CG/HFTN-CG
REM
REM
REM
REM
REM
REM ./C.cell (11c1c37f851c82e70ff6c80c92926a4b)
REM
REM compiler GCC version 9.2.1 20190827 (Red Hat 9.2.1-1)
REM options -cpp -mtune=generic -march=x86-64 -g -O0 -fpre-include=/usr/include/finclude/math-vector-fortran.h
REM seed -733320595 119320210 825503685 184812758 -1842704176 1748409930 -897026361 -156584570 -1253846383 -1656296320 495359496 1579872199 -747396138 668280055 -2004431681 -1216375898 -312026129 706484024 861954726 554132137 -85197972 1091145601 -787508945 790485864 1339960882 -1042076761 628586115 1987781723 -153164196 -941599459 -777884928 842170313 -51506805
REM
CELL 1.54180   50.00000   50.00000   50.00000   90.00000   90.00000   90.00000
LATT -1
SFAC C  
C      1  0.5147010000000  0.4835630000000  0.5646910000000 1.0
C      1  0.5088250000000  0.4470620000000  0.5358980000000 1.0
C      1  0.4565430000000  0.4507940000000  0.5548600000000 1.0
C      1  0.5492140000000  0.5710830000000  0.4972060000000 1.0
C      1  0.5137980000000  0.4411500000000  0.4824600000000 1.0
C      1  0.4732830000000  0.4635300000000  0.5285370000000 1.0
C      1  0.4735090000000  0.5653770000000  0.5172860000000 1.0
C      1  0.5343910000000  0.5745350000000  0.4702280000000 1.0
C      1  0.4331850000000  0.5445680000000  0.4984160000000 1.0
C      1  0.4486790000000  0.4293520000000  0.5309800000000 1.0
C      1  0.5250960000000  0.4466170000000  0.4524010000000 1.0
C      1  0.4826050000000  0.5416000000000  0.4393780000000 1.0
C      1  0.5334230000000  0.5743390000000  0.5202600000000 1.0
C      1  0.5125380000000  0.5950420000000  0.4695300000000 1.0
C      1  0.5007380000000  0.5070000000000  0.5213890000000 1.0
C      1  0.4676220000000  0.4177130000000  0.5150850000000 1.0
C      1  0.5103790000000  0.5164730000000  0.4268290000000 1.0
C      1  0.5001450000000  0.4745820000000  0.5248550000000 1.0
C      1  0.4511120000000  0.4756100000000  0.4699170000000 1.0
C      1  0.4905150000000  0.4805300000000  0.4319690000000 1.0
C      1  0.4407940000000  0.4794390000000  0.5444340000000 1.0
C      1  0.5578110000000  0.5047820000000  0.5546220000000 1.0
C      1  0.4873240000000  0.4402650000000  0.5616370000000 1.0
C      1  0.5067560000000  0.4870700000000  0.4951360000000 1.0
C      1  0.5368130000000  0.5275860000000  0.5552090000000 1.0
C      1  0.4892780000000  0.4717720000000  0.5642520000000 1.0
C      1  0.4784790000000  0.5115000000000  0.4237160000000 1.0
C      1  0.4582930000000  0.5245650000000  0.4555890000000 1.0
C      1  0.5552040000000  0.4759350000000  0.5037930000000 1.0
C      1  0.5359880000000  0.5341630000000  0.5038100000000 1.0
C      1  0.5647870000000  0.5437020000000  0.4976810000000 1.0
C      1  0.5080950000000  0.4260450000000  0.5108970000000 1.0
C      1  0.5058110000000  0.4156520000000  0.5492520000000 1.0
C      1  0.4885250000000  0.5935260000000  0.4765790000000 1.0
C      1  0.5226980000000  0.5255450000000  0.5261650000000 1.0
C      1  0.4350180000000  0.4548680000000  0.5216260000000 1.0
C      1  0.4831640000000  0.5179720000000  0.5555080000000 1.0
C      1  0.4438930000000  0.5556990000000  0.5235110000000 1.0
C      1  0.5517450000000  0.4445440000000  0.5019160000000 1.0
C      1  0.4413720000000  0.5365820000000  0.5437720000000 1.0
C      1  0.5567790000000  0.4887620000000  0.5271810000000 1.0
C      1  0.4371430000000  0.4578650000000  0.4937300000000 1.0
C      1  0.4610370000000  0.4920750000000  0.4444420000000 1.0
C      1  0.5156510000000  0.5471650000000  0.4334260000000 1.0
C      1  0.5336170000000  0.4938980000000  0.4501880000000 1.0
C      1  0.4695150000000  0.4914090000000  0.5575580000000 1.0
C      1  0.5605790000000  0.5380790000000  0.4477280000000 1.0
C      1  0.5158470000000  0.4708830000000  0.4403650000000 1.0
C      1  0.5108430000000  0.5118580000000  0.5632430000000 1.0
C      1  0.4912810000000  0.5137680000000  0.4832710000000 1.0
C      1  0.4440760000000  0.5073900000000  0.5312680000000 1.0
C      1  0.4821060000000  0.4317350000000  0.4895220000000 1.0
C      1  0.5153850000000  0.5167720000000  0.4594080000000 1.0
C      1  0.5521810000000  0.4415090000000  0.4717520000000 1.0
C      1  0.4891170000000  0.5442490000000  0.4714850000000 1.0
C      1  0.4524110000000  0.5046300000000  0.4810240000000 1.0
C      1  0.4809540000000  0.5408250000000  0.5399260000000 1.0
C      1  0.5423890000000  0.4743000000000  0.5544050000000 1.0
C      1  0.4698680000000  0.5092460000000  0.5094270000000 1.0
C      1  0.4498980000000  0.5505380000000  0.4754380000000 1.0
C      1  0.5754330000000  0.5309500000000  0.4746690000000 1.0
C      1  0.5207980000000  0.5417740000000  0.4792440000000 1.0
C      1  0.5097020000000  0.3964130000000  0.5264620000000 1.0
C      1  0.5387400000000  0.5556230000000  0.4463030000000 1.0
C      1  0.5284400000000  0.4712260000000  0.4836140000000 1.0
C      1  0.5031150000000  0.5651710000000  0.5327120000000 1.0
C      1  0.4514750000000  0.4266300000000  0.4495820000000 1.0
C      1  0.5497310000000  0.4490380000000  0.5328070000000 1.0
C      1  0.5648080000000  0.5052300000000  0.4550380000000 1.0
C      1  0.4600240000000  0.4436590000000  0.4731850000000 1.0
C      1  0.5564820000000  0.4742700000000  0.4641100000000 1.0
C      1  0.4314050000000  0.5157350000000  0.5019680000000 1.0
C      1  0.5321610000000  0.5577170000000  0.5478180000000 1.0
C      1  0.4748650000000  0.5678710000000  0.4864230000000 1.0
END
