TITL C-2778427-5640-512 -0.00162142897756499 125000 -1012.85158341262 0 0 175 (C1) n - 1
REM
REM in /home/nfs/bkarasulu/CARBON/AIRSS/Generating-Clusters/REBO/Only-C1/SD-CG/HFTN-CG
REM
REM
REM
REM
REM
REM ./C.cell (11c1c37f851c82e70ff6c80c92926a4b)
REM
REM compiler GCC version 9.2.1 20190827 (Red Hat 9.2.1-1)
REM options -cpp -mtune=generic -march=x86-64 -g -O0 -fpre-include=/usr/include/finclude/math-vector-fortran.h
REM seed -1661201819 -1503103200 2002219596 -47934698 -1217333283 -1444755552 12217260 -94020704 -422709975 715837686 900925758 -1814616655 -1827726836 -1019847919 -1527272932 -1899236367 -296815478 -1958100611 -663130282 -653655035 -46582968 1119386808 1696368708 1761848531 -1870388032 -410734998 -1095322542 -1135698863 1703739157 -225153956 -1675133923 -703728103 1721567327
REM
CELL 1.54180   50.00000   50.00000   50.00000   90.00000   90.00000   90.00000
LATT -1
SFAC C  
C      1  0.4665280000000  0.5156610000000  0.5280000000000 1.0
C      1  0.4584020000000  0.4642920000000  0.6005300000000 1.0
C      1  0.5414260000000  0.4583420000000  0.4868570000000 1.0
C      1  0.5004270000000  0.6074030000000  0.5402560000000 1.0
C      1  0.5236960000000  0.5236830000000  0.4029310000000 1.0
C      1  0.5288740000000  0.4096080000000  0.5554170000000 1.0
C      1  0.4873690000000  0.5186950000000  0.4027660000000 1.0
C      1  0.5659950000000  0.4509960000000  0.4641150000000 1.0
C      1  0.4123350000000  0.5671210000000  0.4965060000000 1.0
C      1  0.5164820000000  0.4323810000000  0.4626020000000 1.0
C      1  0.5064060000000  0.5904340000000  0.4922500000000 1.0
C      1  0.5646950000000  0.5239050000000  0.4373440000000 1.0
C      1  0.4564250000000  0.5628660000000  0.4617000000000 1.0
C      1  0.3904330000000  0.5511680000000  0.4987880000000 1.0
C      1  0.4100590000000  0.4760870000000  0.4959940000000 1.0
C      1  0.5775940000000  0.5202120000000  0.4994030000000 1.0
C      1  0.5471960000000  0.4230840000000  0.4690710000000 1.0
C      1  0.4927610000000  0.5371010000000  0.4333500000000 1.0
C      1  0.3880710000000  0.5134930000000  0.5329830000000 1.0
C      1  0.5292060000000  0.4373870000000  0.5063870000000 1.0
C      1  0.5573060000000  0.5558650000000  0.5595680000000 1.0
C      1  0.5456700000000  0.4082460000000  0.4996960000000 1.0
C      1  0.4545110000000  0.5949500000000  0.5006420000000 1.0
C      1  0.3953790000000  0.5245400000000  0.5068840000000 1.0
C      1  0.5514430000000  0.4460410000000  0.5808790000000 1.0
C      1  0.4639380000000  0.4064540000000  0.4696090000000 1.0
C      1  0.4832110000000  0.5558920000000  0.5812050000000 1.0
C      1  0.4699020000000  0.4467800000000  0.4040400000000 1.0
C      1  0.4752690000000  0.5823100000000  0.4432730000000 1.0
C      1  0.4106260000000  0.3980510000000  0.5301270000000 1.0
C      1  0.4559350000000  0.5411270000000  0.5104290000000 1.0
C      1  0.5274680000000  0.4850290000000  0.4157170000000 1.0
C      1  0.5146240000000  0.5695550000000  0.5161220000000 1.0
C      1  0.5127260000000  0.4721360000000  0.5979340000000 1.0
C      1  0.4455910000000  0.4725330000000  0.4782680000000 1.0
C      1  0.5587580000000  0.5464710000000  0.5078300000000 1.0
C      1  0.5021460000000  0.4081910000000  0.5755120000000 1.0
C      1  0.4938870000000  0.5881450000000  0.5606280000000 1.0
C      1  0.5429640000000  0.4600960000000  0.4279100000000 1.0
C      1  0.4679450000000  0.5072740000000  0.5734400000000 1.0
C      1  0.4647500000000  0.5069000000000  0.3998760000000 1.0
C      1  0.5384340000000  0.5906060000000  0.5185640000000 1.0
C      1  0.5622470000000  0.5173650000000  0.5950090000000 1.0
C      1  0.5011640000000  0.4814020000000  0.4065330000000 1.0
C      1  0.5079480000000  0.4969640000000  0.5318250000000 1.0
C      1  0.4540170000000  0.4663310000000  0.4235450000000 1.0
C      1  0.4237430000000  0.5183390000000  0.5042380000000 1.0
C      1  0.5697560000000  0.4915120000000  0.5993890000000 1.0
C      1  0.5270700000000  0.5410500000000  0.5144530000000 1.0
C      1  0.4912360000000  0.3992000000000  0.5146770000000 1.0
C      1  0.5360920000000  0.5268850000000  0.5998660000000 1.0
C      1  0.4905440000000  0.5487630000000  0.5286160000000 1.0
C      1  0.5284410000000  0.6113000000000  0.5353380000000 1.0
C      1  0.5399660000000  0.4749870000000  0.5558940000000 1.0
C      1  0.5720800000000  0.5514640000000  0.4302570000000 1.0
C      1  0.5125100000000  0.4792140000000  0.5687910000000 1.0
C      1  0.4680870000000  0.5365450000000  0.4787860000000 1.0
C      1  0.4461700000000  0.4434360000000  0.4928300000000 1.0
C      1  0.4901590000000  0.4644200000000  0.5535670000000 1.0
C      1  0.5938220000000  0.4270890000000  0.4961300000000 1.0
C      1  0.5241130000000  0.3978570000000  0.5236520000000 1.0
C      1  0.5089610000000  0.4393110000000  0.4301680000000 1.0
C      1  0.5900570000000  0.5579350000000  0.4120820000000 1.0
C      1  0.4801880000000  0.5115400000000  0.6023490000000 1.0
C      1  0.4679580000000  0.4848030000000  0.5529170000000 1.0
C      1  0.5301410000000  0.4627810000000  0.5287880000000 1.0
C      1  0.5312850000000  0.4504450000000  0.6011300000000 1.0
C      1  0.5189620000000  0.5160750000000  0.4599300000000 1.0
C      1  0.4963850000000  0.4276680000000  0.5950220000000 1.0
C      1  0.5433260000000  0.5315990000000  0.5412870000000 1.0
C      1  0.4124060000000  0.5077240000000  0.5475980000000 1.0
C      1  0.5865520000000  0.4765940000000  0.5515510000000 1.0
C      1  0.4993430000000  0.5434230000000  0.4661190000000 1.0
C      1  0.6051290000000  0.5280510000000  0.5168020000000 1.0
C      1  0.5167420000000  0.5344320000000  0.5817680000000 1.0
C      1  0.5158060000000  0.5827570000000  0.4139550000000 1.0
C      1  0.4571210000000  0.6066390000000  0.4513420000000 1.0
C      1  0.4207490000000  0.4718030000000  0.5628430000000 1.0
C      1  0.5455570000000  0.6184470000000  0.4307270000000 1.0
C      1  0.4433030000000  0.4856360000000  0.5842840000000 1.0
C      1  0.5596990000000  0.5715850000000  0.4770470000000 1.0
C      1  0.4114990000000  0.4279170000000  0.5142430000000 1.0
C      1  0.4831100000000  0.5334350000000  0.5573370000000 1.0
C      1  0.6060790000000  0.4951870000000  0.5117410000000 1.0
C      1  0.4958240000000  0.4898750000000  0.6122450000000 1.0
C      1  0.5515960000000  0.5097320000000  0.3962920000000 1.0
C      1  0.5707280000000  0.4703610000000  0.4382670000000 1.0
C      1  0.4682430000000  0.4000400000000  0.5375780000000 1.0
C      1  0.4242530000000  0.5728520000000  0.4595300000000 1.0
C      1  0.4241260000000  0.5099290000000  0.5750630000000 1.0
C      1  0.4732980000000  0.5134600000000  0.4397610000000 1.0
C      1  0.5031870000000  0.4202020000000  0.5375390000000 1.0
C      1  0.5395380000000  0.4298350000000  0.4366320000000 1.0
C      1  0.4441220000000  0.4875100000000  0.4477580000000 1.0
C      1  0.5340560000000  0.5125340000000  0.4320210000000 1.0
C      1  0.5579170000000  0.4869820000000  0.4791210000000 1.0
C      1  0.4419510000000  0.5391210000000  0.4056910000000 1.0
C      1  0.5352630000000  0.5928340000000  0.4348920000000 1.0
C      1  0.3997490000000  0.4575590000000  0.5227950000000 1.0
C      1  0.4347830000000  0.5131180000000  0.5294640000000 1.0
C      1  0.4127780000000  0.4961060000000  0.4380960000000 1.0
C      1  0.5561020000000  0.5024400000000  0.5516690000000 1.0
C      1  0.4717890000000  0.4934560000000  0.4760110000000 1.0
C      1  0.4489290000000  0.5481640000000  0.5430260000000 1.0
C      1  0.5675350000000  0.4354200000000  0.5353740000000 1.0
C      1  0.5589500000000  0.5857040000000  0.5000570000000 1.0
C      1  0.4627690000000  0.4362200000000  0.5197920000000 1.0
C      1  0.5331650000000  0.4895880000000  0.5104100000000 1.0
C      1  0.4709800000000  0.4171610000000  0.4427620000000 1.0
C      1  0.4023770000000  0.5226890000000  0.4549000000000 1.0
C      1  0.5245880000000  0.5853000000000  0.4643500000000 1.0
C      1  0.4842000000000  0.4270370000000  0.4193580000000 1.0
C      1  0.5559300000000  0.5699720000000  0.4452940000000 1.0
C      1  0.5517530000000  0.4287840000000  0.5587270000000 1.0
C      1  0.4438540000000  0.5648480000000  0.4932780000000 1.0
C      1  0.4397760000000  0.4201040000000  0.4797580000000 1.0
C      1  0.5690300000000  0.4980410000000  0.4180530000000 1.0
C      1  0.5049870000000  0.4679490000000  0.4439640000000 1.0
C      1  0.5724610000000  0.5274670000000  0.5680430000000 1.0
C      1  0.4790860000000  0.3974470000000  0.5624660000000 1.0
C      1  0.4143860000000  0.4965790000000  0.4724780000000 1.0
C      1  0.5003560000000  0.5212490000000  0.5110950000000 1.0
C      1  0.5060870000000  0.5101330000000  0.5617800000000 1.0
C      1  0.5187880000000  0.4838090000000  0.4829590000000 1.0
C      1  0.5968720000000  0.4810890000000  0.4725830000000 1.0
C      1  0.4793180000000  0.4200570000000  0.4944870000000 1.0
C      1  0.4974690000000  0.5070240000000  0.4836040000000 1.0
C      1  0.4583910000000  0.5573490000000  0.4049100000000 1.0
C      1  0.4675180000000  0.5702060000000  0.5552360000000 1.0
C      1  0.4835090000000  0.5720190000000  0.4162430000000 1.0
C      1  0.5000330000000  0.4452710000000  0.4889700000000 1.0
C      1  0.5330960000000  0.5521380000000  0.4679120000000 1.0
C      1  0.4806550000000  0.5387980000000  0.6071310000000 1.0
C      1  0.4120570000000  0.4412210000000  0.4601250000000 1.0
C      1  0.4429610000000  0.5217010000000  0.4422430000000 1.0
C      1  0.5096720000000  0.5511190000000  0.4092810000000 1.0
C      1  0.4824640000000  0.4634740000000  0.4663290000000 1.0
C      1  0.4398690000000  0.4779690000000  0.5110960000000 1.0
C      1  0.5428050000000  0.5747000000000  0.5733080000000 1.0
C      1  0.5553060000000  0.5083510000000  0.5189180000000 1.0
C      1  0.5912890000000  0.5570030000000  0.5052040000000 1.0
C      1  0.5727950000000  0.4181250000000  0.5133900000000 1.0
C      1  0.5133100000000  0.5681060000000  0.5778630000000 1.0
C      1  0.4782560000000  0.4464010000000  0.6024000000000 1.0
C      1  0.5935760000000  0.4477500000000  0.4785410000000 1.0
C      1  0.5781720000000  0.5503320000000  0.5358570000000 1.0
C      1  0.4394360000000  0.5978030000000  0.4711330000000 1.0
C      1  0.4334350000000  0.5070410000000  0.4132090000000 1.0
C      1  0.5678150000000  0.4723650000000  0.5756500000000 1.0
C      1  0.4335980000000  0.4493240000000  0.4448360000000 1.0
C      1  0.4610840000000  0.4436230000000  0.4554750000000 1.0
C      1  0.4398580000000  0.4153910000000  0.5288050000000 1.0
C      1  0.4439120000000  0.5123450000000  0.4807690000000 1.0
C      1  0.4855500000000  0.6021240000000  0.5125790000000 1.0
C      1  0.4722780000000  0.4842440000000  0.5195380000000 1.0
C      1  0.4941570000000  0.5751980000000  0.4658980000000 1.0
C      1  0.5990800000000  0.5275950000000  0.5502570000000 1.0
C      1  0.4067810000000  0.4450190000000  0.4863340000000 1.0
C      1  0.4883560000000  0.4629330000000  0.3887710000000 1.0
C      1  0.4409320000000  0.4758530000000  0.5424180000000 1.0
C      1  0.5518420000000  0.3783180000000  0.4886220000000 1.0
C      1  0.5920370000000  0.4953080000000  0.4429450000000 1.0
C      1  0.4995000000000  0.4685680000000  0.5141150000000 1.0
C      1  0.5511650000000  0.5186820000000  0.4675940000000 1.0
C      1  0.5809060000000  0.4771140000000  0.5022540000000 1.0
C      1  0.4704500000000  0.5755520000000  0.5235850000000 1.0
C      1  0.4223030000000  0.5445410000000  0.4517990000000 1.0
C      1  0.6032740000000  0.4973250000000  0.5422470000000 1.0
C      1  0.4800220000000  0.4859430000000  0.4303200000000 1.0
C      1  0.4376650000000  0.5341610000000  0.5634190000000 1.0
C      1  0.5348750000000  0.4798570000000  0.4543980000000 1.0
C      1  0.5768230000000  0.4616820000000  0.5295670000000 1.0
C      1  0.4849620000000  0.4422250000000  0.5403130000000 1.0
C      1  0.3973920000000  0.4635550000000  0.5495110000000 1.0
C      1  0.5854440000000  0.5134730000000  0.4698240000000 1.0
END
