TITL C-2778427-5640-1355 -0.00247050670626852 125000 -439.189411255417 0 0 78 (C1) n - 1
REM
REM in /home/nfs/bkarasulu/CARBON/AIRSS/Generating-Clusters/REBO/Only-C1/SD-CG/HFTN-CG
REM
REM
REM
REM
REM
REM ./C.cell (11c1c37f851c82e70ff6c80c92926a4b)
REM
REM compiler GCC version 9.2.1 20190827 (Red Hat 9.2.1-1)
REM options -cpp -mtune=generic -march=x86-64 -g -O0 -fpre-include=/usr/include/finclude/math-vector-fortran.h
REM seed -77035614 -18392958 1736350494 -831380440 1954818546 -1081536002 -42487985 788263140 928546008 -1351846671 2043685655 -788715941 -1430518638 1130091419 -1844082861 -1065185377 1611612154 1382965241 1546593958 -1178862772 937254958 -1617606318 422393336 -572267029 1390482485 569182121 -1978875288 279708133 1886480266 -17353103 -644979780 164793351 788427401
REM
CELL 1.54180   50.00000   50.00000   50.00000   90.00000   90.00000   90.00000
LATT -1
SFAC C  
C      1  0.5332280000000  0.5074080000000  0.4949360000000 1.0
C      1  0.4526160000000  0.5319790000000  0.4359170000000 1.0
C      1  0.4368350000000  0.5586400000000  0.5398320000000 1.0
C      1  0.4578410000000  0.5068480000000  0.5166980000000 1.0
C      1  0.4598220000000  0.4914520000000  0.5632400000000 1.0
C      1  0.4818190000000  0.4468380000000  0.5067460000000 1.0
C      1  0.4802590000000  0.5319660000000  0.5107770000000 1.0
C      1  0.4349550000000  0.5099220000000  0.4945950000000 1.0
C      1  0.5063260000000  0.5309160000000  0.4652400000000 1.0
C      1  0.5392340000000  0.4699010000000  0.5538650000000 1.0
C      1  0.5226220000000  0.5043180000000  0.5772940000000 1.0
C      1  0.5381420000000  0.4253560000000  0.5212240000000 1.0
C      1  0.4821020000000  0.5386380000000  0.5717070000000 1.0
C      1  0.5765060000000  0.5242160000000  0.5425640000000 1.0
C      1  0.5730100000000  0.4965680000000  0.5292710000000 1.0
C      1  0.5498060000000  0.4517320000000  0.5347410000000 1.0
C      1  0.4501260000000  0.5029600000000  0.4453430000000 1.0
C      1  0.4237950000000  0.4823640000000  0.4893750000000 1.0
C      1  0.5071830000000  0.5624640000000  0.4793220000000 1.0
C      1  0.4609390000000  0.5530780000000  0.5538990000000 1.0
C      1  0.4609970000000  0.5508480000000  0.4621480000000 1.0
C      1  0.5533830000000  0.4482090000000  0.5024800000000 1.0
C      1  0.5411900000000  0.5359110000000  0.5087430000000 1.0
C      1  0.5145080000000  0.4149730000000  0.4860990000000 1.0
C      1  0.4446100000000  0.4607930000000  0.5023720000000 1.0
C      1  0.4842030000000  0.5067380000000  0.5694820000000 1.0
C      1  0.4835990000000  0.5535570000000  0.5348020000000 1.0
C      1  0.5373580000000  0.5442530000000  0.4607040000000 1.0
C      1  0.4560600000000  0.5186590000000  0.4731710000000 1.0
C      1  0.5159690000000  0.5581860000000  0.4379570000000 1.0
C      1  0.5209530000000  0.4771670000000  0.4234460000000 1.0
C      1  0.4870990000000  0.5156890000000  0.4827160000000 1.0
C      1  0.4647280000000  0.4636380000000  0.5637270000000 1.0
C      1  0.5573440000000  0.5248300000000  0.4441590000000 1.0
C      1  0.4450320000000  0.4552740000000  0.4696420000000 1.0
C      1  0.5294480000000  0.5671410000000  0.5304870000000 1.0
C      1  0.5489390000000  0.4629470000000  0.4789570000000 1.0
C      1  0.5193820000000  0.4594870000000  0.4682410000000 1.0
C      1  0.5139060000000  0.4626770000000  0.5644590000000 1.0
C      1  0.4764090000000  0.4693220000000  0.4713530000000 1.0
C      1  0.5544860000000  0.5476390000000  0.5350650000000 1.0
C      1  0.5059390000000  0.4402240000000  0.4863730000000 1.0
C      1  0.5461440000000  0.5562940000000  0.4855570000000 1.0
C      1  0.4700080000000  0.4783020000000  0.5106960000000 1.0
C      1  0.5736400000000  0.5025200000000  0.4488600000000 1.0
C      1  0.4982790000000  0.4850070000000  0.4921950000000 1.0
C      1  0.5096800000000  0.4569530000000  0.4387190000000 1.0
C      1  0.4336880000000  0.5548140000000  0.5112300000000 1.0
C      1  0.5335740000000  0.5330370000000  0.4232340000000 1.0
C      1  0.5974080000000  0.4996850000000  0.4358000000000 1.0
C      1  0.4891310000000  0.4509350000000  0.5562890000000 1.0
C      1  0.5479660000000  0.5279890000000  0.5612810000000 1.0
C      1  0.4635340000000  0.4783780000000  0.4428070000000 1.0
C      1  0.5233930000000  0.4930070000000  0.4689850000000 1.0
C      1  0.5087860000000  0.5024170000000  0.5460300000000 1.0
C      1  0.5084430000000  0.5578490000000  0.5463400000000 1.0
C      1  0.4163970000000  0.5332610000000  0.5029240000000 1.0
C      1  0.5484150000000  0.4860530000000  0.5143180000000 1.0
C      1  0.5161490000000  0.5366300000000  0.5687660000000 1.0
C      1  0.4888240000000  0.5645490000000  0.4533000000000 1.0
C      1  0.5235230000000  0.5041750000000  0.4391620000000 1.0
C      1  0.5127410000000  0.4167850000000  0.5297320000000 1.0
C      1  0.4974730000000  0.5231350000000  0.4341830000000 1.0
C      1  0.4657580000000  0.4344930000000  0.4553010000000 1.0
C      1  0.5248580000000  0.5718110000000  0.5023680000000 1.0
C      1  0.4580670000000  0.5523390000000  0.4949840000000 1.0
C      1  0.5518140000000  0.4951500000000  0.5531180000000 1.0
C      1  0.4687830000000  0.4263890000000  0.4834880000000 1.0
C      1  0.5171680000000  0.4818540000000  0.5205030000000 1.0
C      1  0.4905640000000  0.4343320000000  0.5330710000000 1.0
C      1  0.4814260000000  0.4515900000000  0.4361420000000 1.0
C      1  0.5118150000000  0.5211380000000  0.5179080000000 1.0
C      1  0.4448030000000  0.5040870000000  0.5444900000000 1.0
C      1  0.5643520000000  0.4821710000000  0.4659930000000 1.0
C      1  0.5010600000000  0.4939840000000  0.5963680000000 1.0
C      1  0.4172750000000  0.4722480000000  0.4614500000000 1.0
C      1  0.4765020000000  0.5319070000000  0.4201030000000 1.0
C      1  0.4358520000000  0.4390110000000  0.5211350000000 1.0
END
