TITL C-2778434-4341-1148 -0.00146851039787422 125000 -1009.90706740147 0 0 177 (C1) n - 1
REM
REM in /home/nfs/bkarasulu/CARBON/AIRSS/Generating-Clusters/REBO/Only-C1/SD-CG/HFTN-CG
REM
REM
REM
REM
REM
REM ./C.cell (11c1c37f851c82e70ff6c80c92926a4b)
REM
REM compiler GCC version 9.2.1 20190827 (Red Hat 9.2.1-1)
REM options -cpp -mtune=generic -march=x86-64 -g -O0 -fpre-include=/usr/include/finclude/math-vector-fortran.h
REM seed -1164981484 -1148313354 726802643 2030397144 -1462815609 97437524 721717716 -497580998 259863062 329297085 1569696207 101598702 317922545 -2015905809 588891656 -146254750 1566921020 -741625045 -426252443 -1462047210 -1374019464 1959561627 -1213801712 -8929892 859868884 -924862788 145136795 1575173924 -1206131883 -476941342 -1397966282 567655508 1481638397
REM
CELL 1.54180   50.00000   50.00000   50.00000   90.00000   90.00000   90.00000
LATT -1
SFAC C  
C      1  0.6099790000000  0.4859630000000  0.4777780000000 1.0
C      1  0.4449120000000  0.5377870000000  0.5253810000000 1.0
C      1  0.4944280000000  0.4300900000000  0.5408650000000 1.0
C      1  0.5278740000000  0.3944440000000  0.5434100000000 1.0
C      1  0.5234820000000  0.4187270000000  0.4415290000000 1.0
C      1  0.4713270000000  0.5313270000000  0.5441850000000 1.0
C      1  0.4610080000000  0.4662170000000  0.5384410000000 1.0
C      1  0.4080760000000  0.5337920000000  0.4739160000000 1.0
C      1  0.5011350000000  0.6024910000000  0.4400050000000 1.0
C      1  0.4697160000000  0.4403160000000  0.5587740000000 1.0
C      1  0.4303950000000  0.5785290000000  0.4565050000000 1.0
C      1  0.4507300000000  0.6039190000000  0.4219000000000 1.0
C      1  0.4806020000000  0.4669910000000  0.4274040000000 1.0
C      1  0.5926780000000  0.4621350000000  0.4850100000000 1.0
C      1  0.4737370000000  0.5630930000000  0.4803490000000 1.0
C      1  0.5466910000000  0.5213860000000  0.4577770000000 1.0
C      1  0.4601230000000  0.4934600000000  0.4064870000000 1.0
C      1  0.4456970000000  0.5567750000000  0.4267280000000 1.0
C      1  0.4873000000000  0.5276650000000  0.4331510000000 1.0
C      1  0.4848110000000  0.4852400000000  0.3923590000000 1.0
C      1  0.5311990000000  0.6030940000000  0.5093880000000 1.0
C      1  0.5370800000000  0.5604210000000  0.5316640000000 1.0
C      1  0.4061450000000  0.5344760000000  0.5053480000000 1.0
C      1  0.5537650000000  0.5394670000000  0.5010780000000 1.0
C      1  0.5001590000000  0.4729510000000  0.4820910000000 1.0
C      1  0.5737530000000  0.4891120000000  0.5415010000000 1.0
C      1  0.5213840000000  0.5232890000000  0.5733450000000 1.0
C      1  0.4960850000000  0.4973530000000  0.4231980000000 1.0
C      1  0.5100180000000  0.4189250000000  0.4961160000000 1.0
C      1  0.5448650000000  0.4882550000000  0.5751150000000 1.0
C      1  0.4167290000000  0.4279300000000  0.5744980000000 1.0
C      1  0.4336470000000  0.5433830000000  0.5573430000000 1.0
C      1  0.5769700000000  0.4387200000000  0.4498520000000 1.0
C      1  0.4613620000000  0.4942480000000  0.5563930000000 1.0
C      1  0.4630040000000  0.5874480000000  0.5721370000000 1.0
C      1  0.5518920000000  0.4578490000000  0.5158250000000 1.0
C      1  0.5244710000000  0.5420340000000  0.5065190000000 1.0
C      1  0.5375390000000  0.5365830000000  0.4110770000000 1.0
C      1  0.5211540000000  0.4909600000000  0.4533660000000 1.0
C      1  0.5242440000000  0.4928510000000  0.5243530000000 1.0
C      1  0.4958160000000  0.5451510000000  0.4616680000000 1.0
C      1  0.5551610000000  0.4576540000000  0.5837160000000 1.0
C      1  0.5341870000000  0.5592720000000  0.5847730000000 1.0
C      1  0.4779680000000  0.5388110000000  0.6131380000000 1.0
C      1  0.5255550000000  0.4871940000000  0.4928910000000 1.0
C      1  0.5027060000000  0.4007630000000  0.5333110000000 1.0
C      1  0.5097230000000  0.5785720000000  0.5323640000000 1.0
C      1  0.4459520000000  0.4127740000000  0.4841400000000 1.0
C      1  0.4796470000000  0.4458110000000  0.5872010000000 1.0
C      1  0.6114170000000  0.5020080000000  0.5396720000000 1.0
C      1  0.5765230000000  0.5140000000000  0.5031690000000 1.0
C      1  0.5758190000000  0.5503070000000  0.5553620000000 1.0
C      1  0.5199870000000  0.4534820000000  0.5133360000000 1.0
C      1  0.4597730000000  0.5260190000000  0.4772700000000 1.0
C      1  0.4251810000000  0.4788860000000  0.5631640000000 1.0
C      1  0.4222440000000  0.4886960000000  0.4364090000000 1.0
C      1  0.4769490000000  0.4873480000000  0.4613930000000 1.0
C      1  0.4378350000000  0.5742430000000  0.5604470000000 1.0
C      1  0.5528240000000  0.5032260000000  0.4850810000000 1.0
C      1  0.5801540000000  0.4360840000000  0.5436210000000 1.0
C      1  0.4062580000000  0.5385470000000  0.5391900000000 1.0
C      1  0.5288110000000  0.4993670000000  0.4223870000000 1.0
C      1  0.5525800000000  0.4009210000000  0.4761300000000 1.0
C      1  0.4698320000000  0.4727310000000  0.4977570000000 1.0
C      1  0.5619090000000  0.5371660000000  0.4243690000000 1.0
C      1  0.4299230000000  0.4987950000000  0.5904750000000 1.0
C      1  0.4137760000000  0.4543260000000  0.4614070000000 1.0
C      1  0.4526150000000  0.5806980000000  0.4672480000000 1.0
C      1  0.5295740000000  0.5304850000000  0.6025340000000 1.0
C      1  0.4809530000000  0.4246470000000  0.4693360000000 1.0
C      1  0.3983360000000  0.4841190000000  0.4830700000000 1.0
C      1  0.5546570000000  0.5736370000000  0.4426390000000 1.0
C      1  0.5007960000000  0.6066930000000  0.5010610000000 1.0
C      1  0.4214410000000  0.5496320000000  0.4475150000000 1.0
C      1  0.5131990000000  0.5038790000000  0.6071330000000 1.0
C      1  0.5150640000000  0.4314090000000  0.4182460000000 1.0
C      1  0.4915310000000  0.5786810000000  0.4263190000000 1.0
C      1  0.4074940000000  0.5655730000000  0.5196390000000 1.0
C      1  0.5861570000000  0.5556750000000  0.4721490000000 1.0
C      1  0.4663860000000  0.3887040000000  0.4596760000000 1.0
C      1  0.5581290000000  0.4007080000000  0.5087280000000 1.0
C      1  0.5221820000000  0.5874480000000  0.5690180000000 1.0
C      1  0.5817910000000  0.4128790000000  0.4893980000000 1.0
C      1  0.4839780000000  0.3906310000000  0.5131210000000 1.0
C      1  0.5810090000000  0.4626870000000  0.4356000000000 1.0
C      1  0.5137570000000  0.4858730000000  0.5847620000000 1.0
C      1  0.4877370000000  0.4302090000000  0.5098590000000 1.0
C      1  0.4061090000000  0.4692870000000  0.5134730000000 1.0
C      1  0.4454580000000  0.4925960000000  0.5024560000000 1.0
C      1  0.5154270000000  0.4797560000000  0.3907630000000 1.0
C      1  0.5774340000000  0.4357500000000  0.5106110000000 1.0
C      1  0.4696720000000  0.5499000000000  0.5075080000000 1.0
C      1  0.5002330000000  0.5251470000000  0.3840240000000 1.0
C      1  0.4869890000000  0.4364540000000  0.4152550000000 1.0
C      1  0.4336660000000  0.4660210000000  0.5935880000000 1.0
C      1  0.5469300000000  0.4716050000000  0.4620390000000 1.0
C      1  0.5651740000000  0.5111860000000  0.5763660000000 1.0
C      1  0.5339120000000  0.4223980000000  0.5157380000000 1.0
C      1  0.4985120000000  0.5798260000000  0.4824420000000 1.0
C      1  0.5352930000000  0.5315300000000  0.5463090000000 1.0
C      1  0.4571110000000  0.5313420000000  0.4178330000000 1.0
C      1  0.4301990000000  0.4757820000000  0.4824840000000 1.0
C      1  0.4915000000000  0.5962020000000  0.5556680000000 1.0
C      1  0.4562270000000  0.4044180000000  0.5106250000000 1.0
C      1  0.5287810000000  0.4606070000000  0.4125560000000 1.0
C      1  0.4338600000000  0.4424100000000  0.4858200000000 1.0
C      1  0.5287730000000  0.4735770000000  0.5487430000000 1.0
C      1  0.4604070000000  0.4989980000000  0.4401190000000 1.0
C      1  0.4669550000000  0.4557600000000  0.4679410000000 1.0
C      1  0.5497080000000  0.4297640000000  0.4585950000000 1.0
C      1  0.4499360000000  0.5922520000000  0.5153520000000 1.0
C      1  0.4786610000000  0.5687480000000  0.5299440000000 1.0
C      1  0.4929860000000  0.5171280000000  0.5721640000000 1.0
C      1  0.5576850000000  0.4949260000000  0.4391350000000 1.0
C      1  0.5132890000000  0.5174760000000  0.4664970000000 1.0
C      1  0.5100410000000  0.5510680000000  0.4250960000000 1.0
C      1  0.5604640000000  0.5397120000000  0.5761330000000 1.0
C      1  0.5329500000000  0.4483360000000  0.4819700000000 1.0
C      1  0.5279980000000  0.5113530000000  0.3918670000000 1.0
C      1  0.5572160000000  0.4693860000000  0.4185180000000 1.0
C      1  0.5795450000000  0.5336970000000  0.5305250000000 1.0
C      1  0.3759750000000  0.4696500000000  0.5038900000000 1.0
C      1  0.4349180000000  0.5684300000000  0.5008780000000 1.0
C      1  0.5197140000000  0.4075120000000  0.4716050000000 1.0
C      1  0.4275810000000  0.5124340000000  0.5179450000000 1.0
C      1  0.5080860000000  0.4514040000000  0.5598410000000 1.0
C      1  0.4913510000000  0.4813050000000  0.5593930000000 1.0
C      1  0.5993670000000  0.4928240000000  0.5094190000000 1.0
C      1  0.5455130000000  0.5848820000000  0.4894310000000 1.0
C      1  0.4941640000000  0.5027510000000  0.5117610000000 1.0
C      1  0.5054300000000  0.5595200000000  0.5685880000000 1.0
C      1  0.4989540000000  0.6076320000000  0.4668210000000 1.0
C      1  0.4794190000000  0.6025170000000  0.5239550000000 1.0
C      1  0.5041240000000  0.5403850000000  0.5420420000000 1.0
C      1  0.4933240000000  0.4679340000000  0.5273950000000 1.0
C      1  0.4770650000000  0.5175720000000  0.5961010000000 1.0
C      1  0.5642270000000  0.4715980000000  0.4905880000000 1.0
C      1  0.4786430000000  0.5305500000000  0.3942070000000 1.0
C      1  0.5229610000000  0.5637190000000  0.4750930000000 1.0
C      1  0.5590520000000  0.4606830000000  0.5499900000000 1.0
C      1  0.5932310000000  0.4365020000000  0.4729120000000 1.0
C      1  0.5370420000000  0.4427970000000  0.5981880000000 1.0
C      1  0.4827940000000  0.3932090000000  0.4829660000000 1.0
C      1  0.4529890000000  0.4168820000000  0.4508160000000 1.0
C      1  0.4328290000000  0.5073770000000  0.4147240000000 1.0
C      1  0.4587390000000  0.4408340000000  0.4318750000000 1.0
C      1  0.5923720000000  0.5036040000000  0.5628090000000 1.0
C      1  0.5564250000000  0.4127320000000  0.5394430000000 1.0
C      1  0.5390330000000  0.5934620000000  0.5400850000000 1.0
C      1  0.4418520000000  0.4641550000000  0.4461150000000 1.0
C      1  0.4102280000000  0.5039010000000  0.4622410000000 1.0
C      1  0.5922140000000  0.5502780000000  0.5032080000000 1.0
C      1  0.5683910000000  0.5788490000000  0.4665130000000 1.0
C      1  0.4303960000000  0.4462660000000  0.5546910000000 1.0
C      1  0.4957030000000  0.5339570000000  0.5126180000000 1.0
C      1  0.4592920000000  0.4955140000000  0.6008310000000 1.0
C      1  0.4293940000000  0.4641740000000  0.5265270000000 1.0
C      1  0.4659330000000  0.5037830000000  0.5250300000000 1.0
C      1  0.4389500000000  0.5206490000000  0.4526470000000 1.0
C      1  0.5100020000000  0.4422270000000  0.5898350000000 1.0
C      1  0.5520240000000  0.5096720000000  0.5334050000000 1.0
C      1  0.4635630000000  0.4638620000000  0.6015370000000 1.0
C      1  0.4866330000000  0.5105190000000  0.4816070000000 1.0
C      1  0.5996170000000  0.4809120000000  0.4490780000000 1.0
C      1  0.4625580000000  0.5792610000000  0.4237260000000 1.0
C      1  0.4595720000000  0.4436910000000  0.5053530000000 1.0
C      1  0.5901250000000  0.4639660000000  0.5252210000000 1.0
C      1  0.5768900000000  0.5366450000000  0.4519670000000 1.0
C      1  0.4502260000000  0.4282350000000  0.5336400000000 1.0
C      1  0.4325380000000  0.5098530000000  0.5510260000000 1.0
C      1  0.4752080000000  0.5600640000000  0.5608850000000 1.0
C      1  0.5051770000000  0.4446020000000  0.4658460000000 1.0
C      1  0.5327990000000  0.5512610000000  0.4477850000000 1.0
C      1  0.5654530000000  0.5666020000000  0.5043620000000 1.0
C      1  0.4376910000000  0.5461720000000  0.4838460000000 1.0
C      1  0.4281000000000  0.5857260000000  0.5359060000000 1.0
C      1  0.5095880000000  0.4639840000000  0.4405810000000 1.0
END
