TITL C-2778429-3646-326 0.00437354206181166 125000 -1047.60688651542 0 0 179 (C1) n - 1
REM
REM in /home/nfs/bkarasulu/CARBON/AIRSS/Generating-Clusters/REBO/Only-C1/SD-CG/HFTN-CG
REM
REM
REM
REM
REM
REM ./C.cell (11c1c37f851c82e70ff6c80c92926a4b)
REM
REM compiler GCC version 9.2.1 20190827 (Red Hat 9.2.1-1)
REM options -cpp -mtune=generic -march=x86-64 -g -O0 -fpre-include=/usr/include/finclude/math-vector-fortran.h
REM seed 596506161 1257639381 -1804344563 -674481912 -1703819934 -1460938595 679842860 -1676580209 1254797766 -2066926540 -593017435 -984197780 -193802999 -303970941 1140604620 1345869602 306925949 1381025430 801392590 215604546 -159515233 1311859847 524096037 -1321724923 2025215646 -851996949 -483398500 965838086 -1443994067 702511493 -987161693 666297006 860204654
REM
CELL 1.54180   50.00000   50.00000   50.00000   90.00000   90.00000   90.00000
LATT -1
SFAC C  
C      1  0.4719520000000  0.4533260000000  0.5350730000000 1.0
C      1  0.4101560000000  0.5133070000000  0.5567590000000 1.0
C      1  0.4955710000000  0.4358120000000  0.5002000000000 1.0
C      1  0.4523580000000  0.4274840000000  0.5585510000000 1.0
C      1  0.4648410000000  0.5786190000000  0.5664050000000 1.0
C      1  0.5418050000000  0.4832880000000  0.3937340000000 1.0
C      1  0.5147610000000  0.4970980000000  0.4782640000000 1.0
C      1  0.4686660000000  0.5521220000000  0.5368390000000 1.0
C      1  0.5803050000000  0.4338460000000  0.5308260000000 1.0
C      1  0.4548940000000  0.5175030000000  0.5874720000000 1.0
C      1  0.6145830000000  0.5007970000000  0.4747960000000 1.0
C      1  0.4956710000000  0.5255970000000  0.5503810000000 1.0
C      1  0.4489220000000  0.4828210000000  0.4752720000000 1.0
C      1  0.4118030000000  0.5324550000000  0.5286570000000 1.0
C      1  0.4163620000000  0.5569250000000  0.4799610000000 1.0
C      1  0.5954330000000  0.5123900000000  0.5328750000000 1.0
C      1  0.4898630000000  0.5904280000000  0.4735050000000 1.0
C      1  0.5021410000000  0.4590560000000  0.4154670000000 1.0
C      1  0.5373080000000  0.5517550000000  0.5941910000000 1.0
C      1  0.5724440000000  0.5139170000000  0.4953030000000 1.0
C      1  0.5106650000000  0.4521870000000  0.5190860000000 1.0
C      1  0.5928590000000  0.4357880000000  0.4839130000000 1.0
C      1  0.4855130000000  0.3933660000000  0.5251740000000 1.0
C      1  0.5652070000000  0.4783840000000  0.4183300000000 1.0
C      1  0.5540820000000  0.5136690000000  0.3895440000000 1.0
C      1  0.4964530000000  0.5210020000000  0.3857050000000 1.0
C      1  0.5803590000000  0.5604620000000  0.5269910000000 1.0
C      1  0.5133740000000  0.5733080000000  0.5854110000000 1.0
C      1  0.5464130000000  0.4700820000000  0.4597510000000 1.0
C      1  0.5442550000000  0.5947100000000  0.5097750000000 1.0
C      1  0.4916980000000  0.4044980000000  0.4999350000000 1.0
C      1  0.5126810000000  0.5576360000000  0.5082160000000 1.0
C      1  0.4235740000000  0.5428510000000  0.5585570000000 1.0
C      1  0.5333950000000  0.5265360000000  0.5634250000000 1.0
C      1  0.4936640000000  0.5504670000000  0.4327240000000 1.0
C      1  0.4803490000000  0.4798110000000  0.5170530000000 1.0
C      1  0.4666280000000  0.4684630000000  0.5823990000000 1.0
C      1  0.5431920000000  0.5579480000000  0.5640220000000 1.0
C      1  0.4978150000000  0.4057720000000  0.5460160000000 1.0
C      1  0.5203210000000  0.4760630000000  0.5633360000000 1.0
C      1  0.4614530000000  0.5131870000000  0.4197640000000 1.0
C      1  0.4309710000000  0.4824750000000  0.4207220000000 1.0
C      1  0.5112720000000  0.5285400000000  0.4132800000000 1.0
C      1  0.5481740000000  0.5250350000000  0.6003460000000 1.0
C      1  0.5194790000000  0.5067390000000  0.5099090000000 1.0
C      1  0.4137110000000  0.4802820000000  0.5625500000000 1.0
C      1  0.4071960000000  0.5102450000000  0.4545120000000 1.0
C      1  0.5833910000000  0.4715120000000  0.4392030000000 1.0
C      1  0.3781300000000  0.5209210000000  0.4796290000000 1.0
C      1  0.4681160000000  0.4271810000000  0.4306240000000 1.0
C      1  0.4868410000000  0.4758990000000  0.5560410000000 1.0
C      1  0.4760480000000  0.5027610000000  0.4684240000000 1.0
C      1  0.4304740000000  0.4941410000000  0.5372600000000 1.0
C      1  0.4651070000000  0.4535530000000  0.4498600000000 1.0
C      1  0.5090540000000  0.4928020000000  0.3951960000000 1.0
C      1  0.4142050000000  0.4192230000000  0.5275050000000 1.0
C      1  0.5269680000000  0.5370770000000  0.4851430000000 1.0
C      1  0.5297250000000  0.5572520000000  0.4169540000000 1.0
C      1  0.5241770000000  0.4428590000000  0.5870200000000 1.0
C      1  0.4962830000000  0.4213460000000  0.4584170000000 1.0
C      1  0.5371560000000  0.4391280000000  0.4886280000000 1.0
C      1  0.4979160000000  0.5790850000000  0.5576920000000 1.0
C      1  0.4264940000000  0.5801950000000  0.5268240000000 1.0
C      1  0.5715300000000  0.4931650000000  0.5422630000000 1.0
C      1  0.4709460000000  0.4191730000000  0.4694360000000 1.0
C      1  0.5666920000000  0.4274360000000  0.5023440000000 1.0
C      1  0.4337860000000  0.4651060000000  0.4498660000000 1.0
C      1  0.5314770000000  0.4392320000000  0.5335330000000 1.0
C      1  0.4890520000000  0.5486150000000  0.4871970000000 1.0
C      1  0.4529620000000  0.5126630000000  0.5215180000000 1.0
C      1  0.4231800000000  0.5147590000000  0.5044260000000 1.0
C      1  0.6129690000000  0.4780070000000  0.4980750000000 1.0
C      1  0.4925060000000  0.4461880000000  0.5820250000000 1.0
C      1  0.4110770000000  0.4479290000000  0.4599250000000 1.0
C      1  0.5516600000000  0.5317440000000  0.4139430000000 1.0
C      1  0.3981750000000  0.4403240000000  0.5193270000000 1.0
C      1  0.4832400000000  0.4301670000000  0.5573680000000 1.0
C      1  0.5408470000000  0.5038880000000  0.5432520000000 1.0
C      1  0.5656480000000  0.5194390000000  0.5718230000000 1.0
C      1  0.5995490000000  0.5315650000000  0.4566890000000 1.0
C      1  0.5813000000000  0.4857090000000  0.4966040000000 1.0
C      1  0.5917480000000  0.4995880000000  0.4532040000000 1.0
C      1  0.4802120000000  0.4771290000000  0.4002880000000 1.0
C      1  0.4399940000000  0.4294160000000  0.5335910000000 1.0
C      1  0.5116760000000  0.6149860000000  0.4733090000000 1.0
C      1  0.5565460000000  0.4510050000000  0.5430990000000 1.0
C      1  0.4663150000000  0.5556230000000  0.5895970000000 1.0
C      1  0.4734350000000  0.5312060000000  0.6123730000000 1.0
C      1  0.6069500000000  0.4401390000000  0.5279540000000 1.0
C      1  0.5478570000000  0.5194270000000  0.4769500000000 1.0
C      1  0.5312990000000  0.5695860000000  0.4488130000000 1.0
C      1  0.5463180000000  0.4029100000000  0.4750420000000 1.0
C      1  0.5311690000000  0.5031990000000  0.6094130000000 1.0
C      1  0.4392760000000  0.5331990000000  0.4462610000000 1.0
C      1  0.4399800000000  0.4387530000000  0.5802210000000 1.0
C      1  0.5387530000000  0.4201620000000  0.4462240000000 1.0
C      1  0.4533270000000  0.4779710000000  0.4027760000000 1.0
C      1  0.4025780000000  0.4753840000000  0.4874940000000 1.0
C      1  0.5747080000000  0.4892570000000  0.5740390000000 1.0
C      1  0.5181000000000  0.4976770000000  0.4262470000000 1.0
C      1  0.4450650000000  0.5638730000000  0.4923450000000 1.0
C      1  0.5310710000000  0.6150810000000  0.4893000000000 1.0
C      1  0.4920940000000  0.5176570000000  0.4922310000000 1.0
C      1  0.4424240000000  0.5861810000000  0.4512560000000 1.0
C      1  0.4336540000000  0.5728800000000  0.5539830000000 1.0
C      1  0.4548930000000  0.5401640000000  0.5623820000000 1.0
C      1  0.5628840000000  0.5773380000000  0.4877350000000 1.0
C      1  0.4079300000000  0.5282000000000  0.4820910000000 1.0
C      1  0.5477150000000  0.5035100000000  0.4275870000000 1.0
C      1  0.4164920000000  0.5425010000000  0.4233320000000 1.0
C      1  0.5175640000000  0.4821490000000  0.5310670000000 1.0
C      1  0.3801430000000  0.4612620000000  0.4644620000000 1.0
C      1  0.5281810000000  0.4091620000000  0.5399960000000 1.0
C      1  0.6104170000000  0.5109630000000  0.5070990000000 1.0
C      1  0.5731900000000  0.4177870000000  0.4641430000000 1.0
C      1  0.4481500000000  0.5936790000000  0.5073370000000 1.0
C      1  0.4845320000000  0.6035640000000  0.5206510000000 1.0
C      1  0.5439960000000  0.5807810000000  0.5493970000000 1.0
C      1  0.4797290000000  0.5036320000000  0.5390760000000 1.0
C      1  0.4496940000000  0.5444070000000  0.4158710000000 1.0
C      1  0.5575500000000  0.5795040000000  0.4600380000000 1.0
C      1  0.5180910000000  0.3960270000000  0.4586810000000 1.0
C      1  0.4618310000000  0.5420030000000  0.5066120000000 1.0
C      1  0.5191860000000  0.5884750000000  0.5328300000000 1.0
C      1  0.4614700000000  0.3993420000000  0.4362820000000 1.0
C      1  0.5839680000000  0.4481760000000  0.4537020000000 1.0
C      1  0.5350480000000  0.4705330000000  0.6038030000000 1.0
C      1  0.5964660000000  0.5536960000000  0.4416150000000 1.0
C      1  0.5129090000000  0.5217130000000  0.4577150000000 1.0
C      1  0.5798000000000  0.5752860000000  0.4429640000000 1.0
C      1  0.4242700000000  0.5632710000000  0.4498100000000 1.0
C      1  0.4788420000000  0.4974300000000  0.5918780000000 1.0
C      1  0.4654040000000  0.5859090000000  0.5340980000000 1.0
C      1  0.5953050000000  0.5341530000000  0.4873010000000 1.0
C      1  0.5452560000000  0.4461180000000  0.4365460000000 1.0
C      1  0.3816550000000  0.4932920000000  0.4675520000000 1.0
C      1  0.5674550000000  0.4703400000000  0.5211140000000 1.0
C      1  0.4296700000000  0.5011980000000  0.5925450000000 1.0
C      1  0.4303710000000  0.4825970000000  0.4990360000000 1.0
C      1  0.4718640000000  0.5622650000000  0.4175220000000 1.0
C      1  0.4685880000000  0.5211760000000  0.3893550000000 1.0
C      1  0.4922890000000  0.3859510000000  0.4757470000000 1.0
C      1  0.4430990000000  0.4602420000000  0.5203470000000 1.0
C      1  0.6130630000000  0.4487660000000  0.5021880000000 1.0
C      1  0.5352470000000  0.5376200000000  0.4437690000000 1.0
C      1  0.4070030000000  0.5102650000000  0.6023270000000 1.0
C      1  0.5497080000000  0.5210250000000  0.5168170000000 1.0
C      1  0.5497090000000  0.4672610000000  0.5667960000000 1.0
C      1  0.5037740000000  0.5889890000000  0.5024830000000 1.0
C      1  0.5331520000000  0.4570790000000  0.4119150000000 1.0
C      1  0.4935900000000  0.4778120000000  0.4937080000000 1.0
C      1  0.5358450000000  0.4236390000000  0.5699430000000 1.0
C      1  0.4144340000000  0.5082990000000  0.4225940000000 1.0
C      1  0.5671870000000  0.5844950000000  0.5331330000000 1.0
C      1  0.5573340000000  0.4639870000000  0.4893790000000 1.0
C      1  0.4975670000000  0.5489470000000  0.5969460000000 1.0
C      1  0.5008360000000  0.5647670000000  0.4596120000000 1.0
C      1  0.5159480000000  0.4453880000000  0.4672510000000 1.0
C      1  0.5073220000000  0.5235290000000  0.5794130000000 1.0
C      1  0.5014970000000  0.5118590000000  0.6109830000000 1.0
C      1  0.4706030000000  0.3815450000000  0.4562920000000 1.0
C      1  0.4111940000000  0.5600150000000  0.5130780000000 1.0
C      1  0.5153520000000  0.4709480000000  0.4448060000000 1.0
C      1  0.4119880000000  0.4656760000000  0.5319580000000 1.0
C      1  0.5660020000000  0.4674440000000  0.5968070000000 1.0
C      1  0.5709010000000  0.5330620000000  0.5409390000000 1.0
C      1  0.3945020000000  0.4432250000000  0.4896100000000 1.0
C      1  0.5591730000000  0.4987820000000  0.4556130000000 1.0
C      1  0.5017350000000  0.5527820000000  0.5364760000000 1.0
C      1  0.4847200000000  0.5207930000000  0.4420030000000 1.0
C      1  0.4659150000000  0.4860720000000  0.4397890000000 1.0
C      1  0.5042150000000  0.4768490000000  0.5919460000000 1.0
C      1  0.5383470000000  0.4102100000000  0.5073680000000 1.0
C      1  0.5822490000000  0.5595320000000  0.4987680000000 1.0
C      1  0.4597130000000  0.5895660000000  0.4756160000000 1.0
C      1  0.4891890000000  0.4313100000000  0.4137510000000 1.0
C      1  0.4849570000000  0.4557290000000  0.4746970000000 1.0
C      1  0.4345010000000  0.4701750000000  0.5841070000000 1.0
C      1  0.4397990000000  0.5043830000000  0.4527760000000 1.0
END
