TITL C-2778424-3986-578 0.00162757546598468 125000 -1114.73824487501 0 0 188 (C1) n - 1
REM
REM in /home/nfs/bkarasulu/CARBON/AIRSS/Generating-Clusters/REBO/Only-C1/SD-CG/HFTN-CG
REM
REM
REM
REM
REM
REM ./C.cell (11c1c37f851c82e70ff6c80c92926a4b)
REM
REM compiler GCC version 9.2.1 20190827 (Red Hat 9.2.1-1)
REM options -cpp -mtune=generic -march=x86-64 -g -O0 -fpre-include=/usr/include/finclude/math-vector-fortran.h
REM seed 749147235 215673632 1865530534 1671459182 -1895004181 -762238912 933644879 -803200469 1387661128 1947919829 1713576509 705309330 -1697833007 -1196558864 -18224294 219441674 -1006748412 1254820087 -1514991636 -389781846 391233213 -1476529453 -988618754 409919516 598805976 1394997340 1584426259 -597829505 -1855606287 -954003120 -1531655765 1916210576 -1866819955
REM
CELL 1.54180   50.00000   50.00000   50.00000   90.00000   90.00000   90.00000
LATT -1
SFAC C  
C      1  0.5087610000000  0.5321410000000  0.4099260000000 1.0
C      1  0.4189960000000  0.5888630000000  0.4763390000000 1.0
C      1  0.4640760000000  0.5684670000000  0.5759560000000 1.0
C      1  0.5291050000000  0.4174560000000  0.5025420000000 1.0
C      1  0.5497350000000  0.5564830000000  0.5146190000000 1.0
C      1  0.4189820000000  0.5088190000000  0.4285930000000 1.0
C      1  0.5321020000000  0.4857050000000  0.5973020000000 1.0
C      1  0.4067300000000  0.5067570000000  0.4537170000000 1.0
C      1  0.4240770000000  0.4543110000000  0.5605050000000 1.0
C      1  0.6024460000000  0.4473770000000  0.5135680000000 1.0
C      1  0.4998100000000  0.4281140000000  0.5349790000000 1.0
C      1  0.5044260000000  0.4697900000000  0.6113430000000 1.0
C      1  0.5519060000000  0.5515950000000  0.4204090000000 1.0
C      1  0.4602220000000  0.4908920000000  0.5588520000000 1.0
C      1  0.4755260000000  0.5351640000000  0.4767430000000 1.0
C      1  0.4581000000000  0.6180910000000  0.4866610000000 1.0
C      1  0.5404550000000  0.4590550000000  0.5687890000000 1.0
C      1  0.6054010000000  0.4585960000000  0.4812890000000 1.0
C      1  0.5874800000000  0.4526560000000  0.4529860000000 1.0
C      1  0.4732450000000  0.4610060000000  0.6063960000000 1.0
C      1  0.4776290000000  0.5976840000000  0.4546260000000 1.0
C      1  0.4687790000000  0.5032270000000  0.4384500000000 1.0
C      1  0.5206290000000  0.5534380000000  0.4746900000000 1.0
C      1  0.5266250000000  0.5171590000000  0.5428810000000 1.0
C      1  0.4334470000000  0.4158130000000  0.5106270000000 1.0
C      1  0.5506180000000  0.4584980000000  0.4185090000000 1.0
C      1  0.4243000000000  0.5568230000000  0.4673380000000 1.0
C      1  0.5121830000000  0.4765970000000  0.5727530000000 1.0
C      1  0.5336440000000  0.4868900000000  0.5412400000000 1.0
C      1  0.5283460000000  0.5294820000000  0.4943100000000 1.0
C      1  0.5077780000000  0.5800880000000  0.4065720000000 1.0
C      1  0.5696020000000  0.5030490000000  0.5819170000000 1.0
C      1  0.5167940000000  0.4576230000000  0.5369710000000 1.0
C      1  0.5147150000000  0.3812420000000  0.5312650000000 1.0
C      1  0.4105580000000  0.5305410000000  0.4742200000000 1.0
C      1  0.4133070000000  0.4794740000000  0.4641750000000 1.0
C      1  0.4778980000000  0.5425240000000  0.4040620000000 1.0
C      1  0.4115730000000  0.4491840000000  0.4568110000000 1.0
C      1  0.4703610000000  0.4264570000000  0.5506640000000 1.0
C      1  0.4404580000000  0.5460130000000  0.5803740000000 1.0
C      1  0.5728290000000  0.4459920000000  0.5882060000000 1.0
C      1  0.4667480000000  0.4889760000000  0.4898640000000 1.0
C      1  0.5501710000000  0.4506620000000  0.5374660000000 1.0
C      1  0.4767570000000  0.4165010000000  0.5775740000000 1.0
C      1  0.4805850000000  0.4356030000000  0.4622940000000 1.0
C      1  0.4383740000000  0.5613330000000  0.4976930000000 1.0
C      1  0.5553390000000  0.4168650000000  0.4661900000000 1.0
C      1  0.5271240000000  0.4004850000000  0.4749160000000 1.0
C      1  0.5458910000000  0.5162420000000  0.5969020000000 1.0
C      1  0.4098660000000  0.4391800000000  0.5267340000000 1.0
C      1  0.5573710000000  0.4132460000000  0.5202620000000 1.0
C      1  0.4637120000000  0.5611200000000  0.4625860000000 1.0
C      1  0.4990730000000  0.4961220000000  0.5232040000000 1.0
C      1  0.4536990000000  0.5233320000000  0.4032960000000 1.0
C      1  0.4439600000000  0.4687430000000  0.5290120000000 1.0
C      1  0.4938620000000  0.4644910000000  0.4719810000000 1.0
C      1  0.5475720000000  0.4629240000000  0.4676890000000 1.0
C      1  0.5477650000000  0.5017310000000  0.4590450000000 1.0
C      1  0.5632140000000  0.5708690000000  0.5493480000000 1.0
C      1  0.3956990000000  0.4881190000000  0.5395880000000 1.0
C      1  0.5158700000000  0.5780530000000  0.4932370000000 1.0
C      1  0.4945380000000  0.4492300000000  0.4352260000000 1.0
C      1  0.5843400000000  0.5525430000000  0.4571300000000 1.0
C      1  0.5509960000000  0.5315390000000  0.4617780000000 1.0
C      1  0.4569120000000  0.4866830000000  0.5991600000000 1.0
C      1  0.5619010000000  0.4830310000000  0.5572960000000 1.0
C      1  0.4988240000000  0.5543720000000  0.5370430000000 1.0
C      1  0.4703410000000  0.5503780000000  0.5031890000000 1.0
C      1  0.5235950000000  0.6074520000000  0.4808300000000 1.0
C      1  0.4026910000000  0.5270440000000  0.5049360000000 1.0
C      1  0.4753570000000  0.3972740000000  0.4545060000000 1.0
C      1  0.4954290000000  0.5597230000000  0.4527170000000 1.0
C      1  0.6048590000000  0.5164960000000  0.4809600000000 1.0
C      1  0.5897990000000  0.5293320000000  0.5017600000000 1.0
C      1  0.4521980000000  0.4947090000000  0.3998350000000 1.0
C      1  0.4912580000000  0.6112040000000  0.4828770000000 1.0
C      1  0.4447240000000  0.4710360000000  0.4526820000000 1.0
C      1  0.4805170000000  0.5733690000000  0.4076160000000 1.0
C      1  0.5475960000000  0.4128060000000  0.5496950000000 1.0
C      1  0.4451090000000  0.5897120000000  0.4584930000000 1.0
C      1  0.5176090000000  0.4979680000000  0.4971100000000 1.0
C      1  0.5905630000000  0.4163640000000  0.5164350000000 1.0
C      1  0.5413330000000  0.4474900000000  0.5074320000000 1.0
C      1  0.5668390000000  0.4886650000000  0.5061630000000 1.0
C      1  0.4398250000000  0.4309000000000  0.5411580000000 1.0
C      1  0.5411400000000  0.5775350000000  0.4616320000000 1.0
C      1  0.4580970000000  0.5241910000000  0.5519610000000 1.0
C      1  0.4577640000000  0.5872270000000  0.4958120000000 1.0
C      1  0.4704600000000  0.4712420000000  0.4304180000000 1.0
C      1  0.4698010000000  0.4502620000000  0.4035360000000 1.0
C      1  0.5256780000000  0.4509720000000  0.4065160000000 1.0
C      1  0.5241410000000  0.5162900000000  0.6214790000000 1.0
C      1  0.4221730000000  0.4477460000000  0.4296530000000 1.0
C      1  0.4135750000000  0.4809700000000  0.4944190000000 1.0
C      1  0.5638250000000  0.5536220000000  0.4837330000000 1.0
C      1  0.4340320000000  0.5313860000000  0.4214250000000 1.0
C      1  0.4505210000000  0.4205040000000  0.4591170000000 1.0
C      1  0.5433200000000  0.4625160000000  0.6167930000000 1.0
C      1  0.5192140000000  0.4053710000000  0.5470150000000 1.0
C      1  0.5774880000000  0.5195420000000  0.5531850000000 1.0
C      1  0.4529920000000  0.5433140000000  0.5301820000000 1.0
C      1  0.4403550000000  0.5558930000000  0.4382710000000 1.0
C      1  0.5188110000000  0.4951100000000  0.4186200000000 1.0
C      1  0.4857930000000  0.5191440000000  0.5695390000000 1.0
C      1  0.5050330000000  0.4123910000000  0.4567960000000 1.0
C      1  0.4258820000000  0.4947790000000  0.5389190000000 1.0
C      1  0.4523780000000  0.3945070000000  0.5021970000000 1.0
C      1  0.5550110000000  0.5189600000000  0.4237940000000 1.0
C      1  0.5816750000000  0.5081510000000  0.4392850000000 1.0
C      1  0.5197690000000  0.4609780000000  0.4532330000000 1.0
C      1  0.4960950000000  0.4955830000000  0.4759710000000 1.0
C      1  0.4599650000000  0.5101830000000  0.4669920000000 1.0
C      1  0.4404030000000  0.4262050000000  0.4299460000000 1.0
C      1  0.5740700000000  0.4611810000000  0.4892060000000 1.0
C      1  0.4994380000000  0.5202740000000  0.4575970000000 1.0
C      1  0.4322610000000  0.5990620000000  0.5241530000000 1.0
C      1  0.5620840000000  0.4372930000000  0.4397280000000 1.0
C      1  0.5618380000000  0.5655660000000  0.4428430000000 1.0
C      1  0.4202060000000  0.5461350000000  0.5213580000000 1.0
C      1  0.6128300000000  0.4905240000000  0.4879550000000 1.0
C      1  0.5839700000000  0.5514280000000  0.5440260000000 1.0
C      1  0.4922500000000  0.4346140000000  0.5956390000000 1.0
C      1  0.4622490000000  0.4248220000000  0.4122880000000 1.0
C      1  0.5242210000000  0.4465160000000  0.5959320000000 1.0
C      1  0.4832720000000  0.4510290000000  0.4990220000000 1.0
C      1  0.4609320000000  0.5820350000000  0.4290670000000 1.0
C      1  0.5964840000000  0.5266710000000  0.4550070000000 1.0
C      1  0.5766020000000  0.4725610000000  0.5928920000000 1.0
C      1  0.4768450000000  0.5116730000000  0.6000280000000 1.0
C      1  0.5219650000000  0.5731670000000  0.5240360000000 1.0
C      1  0.3969140000000  0.4999500000000  0.5120580000000 1.0
C      1  0.4948600000000  0.5619540000000  0.5844590000000 1.0
C      1  0.5383030000000  0.4768520000000  0.4965010000000 1.0
C      1  0.4895120000000  0.4657060000000  0.5242850000000 1.0
C      1  0.4872920000000  0.5781270000000  0.5049570000000 1.0
C      1  0.4871870000000  0.4601130000000  0.5757640000000 1.0
C      1  0.4752610000000  0.4015070000000  0.4883580000000 1.0
C      1  0.5806010000000  0.4399570000000  0.5386560000000 1.0
C      1  0.5734950000000  0.4817190000000  0.4550000000000 1.0
C      1  0.5668180000000  0.4290680000000  0.5664620000000 1.0
C      1  0.4467590000000  0.4984290000000  0.5135070000000 1.0
C      1  0.5102940000000  0.5386100000000  0.5643030000000 1.0
C      1  0.4140530000000  0.5957410000000  0.5021130000000 1.0
C      1  0.4791000000000  0.4791500000000  0.3922740000000 1.0
C      1  0.5341870000000  0.4176130000000  0.4397960000000 1.0
C      1  0.4344050000000  0.4811210000000  0.5755050000000 1.0
C      1  0.5183300000000  0.3860280000000  0.5044330000000 1.0
C      1  0.4204030000000  0.5421000000000  0.5531720000000 1.0
C      1  0.5807010000000  0.5776580000000  0.5010510000000 1.0
C      1  0.5931910000000  0.5530890000000  0.5167030000000 1.0
C      1  0.5394300000000  0.5411710000000  0.5816530000000 1.0
C      1  0.4735900000000  0.5733000000000  0.5467740000000 1.0
C      1  0.4911010000000  0.4213060000000  0.5028000000000 1.0
C      1  0.5099410000000  0.5891610000000  0.4553410000000 1.0
C      1  0.5009380000000  0.5016600000000  0.6165670000000 1.0
C      1  0.5583830000000  0.5890640000000  0.5230470000000 1.0
C      1  0.4997490000000  0.5939210000000  0.5394990000000 1.0
C      1  0.3966910000000  0.4597810000000  0.5468880000000 1.0
C      1  0.4787040000000  0.5354830000000  0.4358260000000 1.0
C      1  0.5112260000000  0.4255690000000  0.4196190000000 1.0
C      1  0.5524820000000  0.5296450000000  0.5332800000000 1.0
C      1  0.4291560000000  0.4548040000000  0.5033480000000 1.0
C      1  0.4555890000000  0.4605310000000  0.4826320000000 1.0
C      1  0.4886700000000  0.5049110000000  0.4121040000000 1.0
C      1  0.4321640000000  0.5080790000000  0.4845570000000 1.0
C      1  0.4443450000000  0.5759820000000  0.5343320000000 1.0
C      1  0.5408240000000  0.5665290000000  0.5658940000000 1.0
C      1  0.5265980000000  0.5581450000000  0.4097190000000 1.0
C      1  0.5576110000000  0.4855010000000  0.4177410000000 1.0
C      1  0.5526800000000  0.5932000000000  0.4894930000000 1.0
C      1  0.4936860000000  0.4927190000000  0.5537380000000 1.0
C      1  0.4832900000000  0.6100900000000  0.5162220000000 1.0
C      1  0.4324750000000  0.4791340000000  0.4211600000000 1.0
C      1  0.4697190000000  0.5426600000000  0.5974160000000 1.0
C      1  0.4835310000000  0.4094130000000  0.4236210000000 1.0
C      1  0.5059990000000  0.5284690000000  0.5197160000000 1.0
C      1  0.5596590000000  0.5193910000000  0.5034610000000 1.0
C      1  0.6045850000000  0.4790990000000  0.5153050000000 1.0
C      1  0.4692310000000  0.4601690000000  0.5476190000000 1.0
C      1  0.5255890000000  0.5284910000000  0.4393570000000 1.0
C      1  0.5150030000000  0.5782990000000  0.5650100000000 1.0
C      1  0.4306670000000  0.5147100000000  0.5709660000000 1.0
C      1  0.5652450000000  0.4296800000000  0.4911410000000 1.0
C      1  0.5827050000000  0.4917230000000  0.5341520000000 1.0
C      1  0.4271170000000  0.4296210000000  0.4798460000000 1.0
C      1  0.5276550000000  0.4889420000000  0.4439460000000 1.0
C      1  0.4518610000000  0.6196080000000  0.5182490000000 1.0
C      1  0.5100780000000  0.4733690000000  0.4003100000000 1.0
END
