TITL C-2778429-3646-524 0.00209288442212129 125000 -856.038784143929 0 0 149 (C1) n - 1
REM
REM in /home/nfs/bkarasulu/CARBON/AIRSS/Generating-Clusters/REBO/Only-C1/SD-CG/HFTN-CG
REM
REM
REM
REM
REM
REM ./C.cell (11c1c37f851c82e70ff6c80c92926a4b)
REM
REM compiler GCC version 9.2.1 20190827 (Red Hat 9.2.1-1)
REM options -cpp -mtune=generic -march=x86-64 -g -O0 -fpre-include=/usr/include/finclude/math-vector-fortran.h
REM seed -1033092864 630572432 -1601472113 323500390 1038371187 -1052877233 -770146362 -278023148 206778016 959308003 -1324826910 -1769766147 -998384937 1664839141 -1345256057 1044213491 1773402646 -1807333821 -930653202 1396134158 -341187953 1592687198 -229855213 -1873789452 1774782481 -1010827938 543180661 -1273508344 -424198120 -912370041 938089412 -163833707 -422208067
REM
CELL 1.54180   50.00000   50.00000   50.00000   90.00000   90.00000   90.00000
LATT -1
SFAC C  
C      1  0.4306820000000  0.5756360000000  0.5350840000000 1.0
C      1  0.4217400000000  0.4571230000000  0.4699920000000 1.0
C      1  0.5430980000000  0.5271020000000  0.4076730000000 1.0
C      1  0.5598410000000  0.4638730000000  0.4175760000000 1.0
C      1  0.6027730000000  0.5035350000000  0.4708460000000 1.0
C      1  0.5280030000000  0.4004180000000  0.5198780000000 1.0
C      1  0.5044900000000  0.5784270000000  0.5024630000000 1.0
C      1  0.5720510000000  0.4099940000000  0.4796620000000 1.0
C      1  0.5156320000000  0.4254120000000  0.4744110000000 1.0
C      1  0.4685410000000  0.5297660000000  0.4361580000000 1.0
C      1  0.5681850000000  0.5097110000000  0.4893500000000 1.0
C      1  0.5358790000000  0.5547510000000  0.4697730000000 1.0
C      1  0.4977890000000  0.5221090000000  0.4356390000000 1.0
C      1  0.4812320000000  0.5369730000000  0.3946890000000 1.0
C      1  0.5276080000000  0.5922380000000  0.5415150000000 1.0
C      1  0.4689880000000  0.4848310000000  0.5463290000000 1.0
C      1  0.4362140000000  0.4749670000000  0.5840200000000 1.0
C      1  0.4598910000000  0.5509800000000  0.5235370000000 1.0
C      1  0.5642980000000  0.5025190000000  0.4581080000000 1.0
C      1  0.4376030000000  0.4539550000000  0.4425790000000 1.0
C      1  0.5781110000000  0.5174440000000  0.4238460000000 1.0
C      1  0.4143300000000  0.4983430000000  0.4729550000000 1.0
C      1  0.5050740000000  0.4992890000000  0.4580200000000 1.0
C      1  0.5555340000000  0.4590370000000  0.5821820000000 1.0
C      1  0.5400380000000  0.5227530000000  0.4642620000000 1.0
C      1  0.5246080000000  0.5796160000000  0.5711330000000 1.0
C      1  0.4988550000000  0.5495110000000  0.6032440000000 1.0
C      1  0.5357900000000  0.4480940000000  0.4901180000000 1.0
C      1  0.4558370000000  0.5882020000000  0.4890680000000 1.0
C      1  0.4245340000000  0.5524410000000  0.4194010000000 1.0
C      1  0.4914770000000  0.5770250000000  0.5752210000000 1.0
C      1  0.5435050000000  0.4883360000000  0.5692370000000 1.0
C      1  0.5522360000000  0.4975430000000  0.5131980000000 1.0
C      1  0.4387500000000  0.4904820000000  0.5574550000000 1.0
C      1  0.4679940000000  0.5597960000000  0.5000820000000 1.0
C      1  0.5085470000000  0.5598360000000  0.4283580000000 1.0
C      1  0.5391440000000  0.4735590000000  0.3974120000000 1.0
C      1  0.5489920000000  0.5890000000000  0.5244270000000 1.0
C      1  0.4849840000000  0.5575040000000  0.4127170000000 1.0
C      1  0.5816780000000  0.5668430000000  0.4895240000000 1.0
C      1  0.4711680000000  0.4584680000000  0.5936510000000 1.0
C      1  0.4250280000000  0.4601370000000  0.5187480000000 1.0
C      1  0.5668740000000  0.4507720000000  0.5047250000000 1.0
C      1  0.5604590000000  0.4439880000000  0.4414510000000 1.0
C      1  0.5905090000000  0.4852870000000  0.4489290000000 1.0
C      1  0.4705060000000  0.4624590000000  0.5252400000000 1.0
C      1  0.5877790000000  0.5303230000000  0.4744380000000 1.0
C      1  0.5719480000000  0.4611050000000  0.5523910000000 1.0
C      1  0.4422220000000  0.4920410000000  0.6329340000000 1.0
C      1  0.4247020000000  0.5494120000000  0.4974200000000 1.0
C      1  0.5298600000000  0.4700860000000  0.6018250000000 1.0
C      1  0.5426770000000  0.5680690000000  0.4982270000000 1.0
C      1  0.5031780000000  0.5907500000000  0.5271770000000 1.0
C      1  0.4875610000000  0.5858060000000  0.4507510000000 1.0
C      1  0.3955280000000  0.4481550000000  0.4707150000000 1.0
C      1  0.5059870000000  0.5226600000000  0.4903920000000 1.0
C      1  0.4488060000000  0.4845820000000  0.4341950000000 1.0
C      1  0.5073560000000  0.5093930000000  0.4066750000000 1.0
C      1  0.4323760000000  0.5657150000000  0.4479190000000 1.0
C      1  0.4743850000000  0.4655770000000  0.4328630000000 1.0
C      1  0.5186100000000  0.4274960000000  0.5475650000000 1.0
C      1  0.4859540000000  0.4202880000000  0.5455090000000 1.0
C      1  0.5276700000000  0.4408650000000  0.5748030000000 1.0
C      1  0.4631930000000  0.4844180000000  0.4929730000000 1.0
C      1  0.5183420000000  0.5418190000000  0.5357410000000 1.0
C      1  0.5326550000000  0.4644450000000  0.5503500000000 1.0
C      1  0.4956850000000  0.4614130000000  0.5631290000000 1.0
C      1  0.4438870000000  0.4433610000000  0.5803720000000 1.0
C      1  0.5711870000000  0.4904890000000  0.5410780000000 1.0
C      1  0.5288500000000  0.4376370000000  0.4453610000000 1.0
C      1  0.4138790000000  0.4992330000000  0.5016160000000 1.0
C      1  0.4634920000000  0.5662170000000  0.5779580000000 1.0
C      1  0.4312520000000  0.5304860000000  0.4095480000000 1.0
C      1  0.5199330000000  0.5022250000000  0.5475020000000 1.0
C      1  0.4281360000000  0.4308090000000  0.5568970000000 1.0
C      1  0.4897340000000  0.4633840000000  0.4631640000000 1.0
C      1  0.4892330000000  0.4738560000000  0.4070860000000 1.0
C      1  0.4294110000000  0.5430130000000  0.4682640000000 1.0
C      1  0.4863560000000  0.4167930000000  0.4212800000000 1.0
C      1  0.4350510000000  0.4665940000000  0.4925010000000 1.0
C      1  0.4179420000000  0.4809660000000  0.5367700000000 1.0
C      1  0.4579990000000  0.5272550000000  0.4655170000000 1.0
C      1  0.6002430000000  0.4866980000000  0.4956130000000 1.0
C      1  0.4738930000000  0.4876660000000  0.5800650000000 1.0
C      1  0.4643410000000  0.4292510000000  0.5212370000000 1.0
C      1  0.5863270000000  0.5483700000000  0.5100860000000 1.0
C      1  0.4407180000000  0.5230810000000  0.5625180000000 1.0
C      1  0.4353200000000  0.4367900000000  0.5312310000000 1.0
C      1  0.4883030000000  0.5125860000000  0.5422390000000 1.0
C      1  0.4293640000000  0.4139270000000  0.4848890000000 1.0
C      1  0.4773200000000  0.5031640000000  0.3961530000000 1.0
C      1  0.4745420000000  0.4178760000000  0.4591950000000 1.0
C      1  0.4856050000000  0.5310100000000  0.5813060000000 1.0
C      1  0.4609680000000  0.4184680000000  0.4905840000000 1.0
C      1  0.5243720000000  0.4485970000000  0.5211280000000 1.0
C      1  0.4808390000000  0.5779900000000  0.5441550000000 1.0
C      1  0.5189560000000  0.4745220000000  0.4774970000000 1.0
C      1  0.4448370000000  0.5004530000000  0.5145480000000 1.0
C      1  0.4747440000000  0.4309320000000  0.5724890000000 1.0
C      1  0.5654350000000  0.5123250000000  0.5666240000000 1.0
C      1  0.5790640000000  0.5389830000000  0.4364180000000 1.0
C      1  0.5676980000000  0.5913980000000  0.4989020000000 1.0
C      1  0.4583740000000  0.5214630000000  0.5347190000000 1.0
C      1  0.5691890000000  0.5547440000000  0.4628620000000 1.0
C      1  0.5008860000000  0.4420780000000  0.5911300000000 1.0
C      1  0.5772200000000  0.5262980000000  0.5244820000000 1.0
C      1  0.5135560000000  0.4638200000000  0.4396090000000 1.0
C      1  0.4610970000000  0.5624320000000  0.4321170000000 1.0
C      1  0.4411120000000  0.4242710000000  0.4584540000000 1.0
C      1  0.5925220000000  0.5001090000000  0.5193900000000 1.0
C      1  0.5162750000000  0.5484120000000  0.5053940000000 1.0
C      1  0.4409420000000  0.4931850000000  0.4632340000000 1.0
C      1  0.4637930000000  0.5932920000000  0.5214470000000 1.0
C      1  0.5548070000000  0.4935160000000  0.4283170000000 1.0
C      1  0.4592260000000  0.5154050000000  0.5872800000000 1.0
C      1  0.5677170000000  0.5423800000000  0.5592020000000 1.0
C      1  0.5057850000000  0.4733360000000  0.5343030000000 1.0
C      1  0.4059760000000  0.5232410000000  0.4608690000000 1.0
C      1  0.5383540000000  0.5277760000000  0.5813820000000 1.0
C      1  0.5011920000000  0.4078750000000  0.5178810000000 1.0
C      1  0.4788790000000  0.4540870000000  0.4933500000000 1.0
C      1  0.4228160000000  0.5269470000000  0.5137880000000 1.0
C      1  0.4887020000000  0.5455940000000  0.5507140000000 1.0
C      1  0.4643070000000  0.4354000000000  0.4306450000000 1.0
C      1  0.5066350000000  0.4815070000000  0.5886400000000 1.0
C      1  0.4580760000000  0.5847480000000  0.4585380000000 1.0
C      1  0.4789580000000  0.5056210000000  0.4783320000000 1.0
C      1  0.4453910000000  0.5537130000000  0.5543800000000 1.0
C      1  0.4535070000000  0.5093630000000  0.4169870000000 1.0
C      1  0.5584800000000  0.4308210000000  0.4710890000000 1.0
C      1  0.4841070000000  0.5450130000000  0.4783860000000 1.0
C      1  0.4931020000000  0.4240900000000  0.4939970000000 1.0
C      1  0.5236780000000  0.4923360000000  0.4302800000000 1.0
C      1  0.5286940000000  0.5346680000000  0.4344960000000 1.0
C      1  0.5295350000000  0.5019470000000  0.4891600000000 1.0
C      1  0.5053680000000  0.4135160000000  0.4448960000000 1.0
C      1  0.5252420000000  0.5558310000000  0.5947640000000 1.0
C      1  0.5477300000000  0.4190220000000  0.5342870000000 1.0
C      1  0.5446730000000  0.5215940000000  0.5339870000000 1.0
C      1  0.5126500000000  0.4624580000000  0.3988990000000 1.0
C      1  0.5844420000000  0.4586150000000  0.4590650000000 1.0
C      1  0.5107320000000  0.5117480000000  0.5796690000000 1.0
C      1  0.5660290000000  0.4411120000000  0.5318310000000 1.0
C      1  0.5366530000000  0.5022550000000  0.3938390000000 1.0
C      1  0.5391440000000  0.5533130000000  0.5576980000000 1.0
C      1  0.4437870000000  0.4931570000000  0.6056910000000 1.0
C      1  0.5071650000000  0.5616510000000  0.4610570000000 1.0
C      1  0.4315180000000  0.5742340000000  0.5076620000000 1.0
C      1  0.5871750000000  0.4610960000000  0.4881210000000 1.0
END
