TITL C-2778433-5640-661 0.0026978287775761 125000 -698.08041837992 0 0 122 (C1) n - 1
REM
REM in /home/nfs/bkarasulu/CARBON/AIRSS/Generating-Clusters/REBO/Only-C1/SD-CG/HFTN-CG
REM
REM
REM
REM
REM
REM ./C.cell (11c1c37f851c82e70ff6c80c92926a4b)
REM
REM compiler GCC version 9.2.1 20190827 (Red Hat 9.2.1-1)
REM options -cpp -mtune=generic -march=x86-64 -g -O0 -fpre-include=/usr/include/finclude/math-vector-fortran.h
REM seed -1565382840 1744131328 524190404 -1759367391 -156467929 -1402959524 -1040858228 -1452363844 882163949 318028719 1737510703 -1487817928 1337612982 111657540 -1291346974 -107801223 1483930149 1571648600 -1316729558 -1123451676 428790925 -1664444141 419540522 -484935896 -1246856336 1712973072 -1325027631 1913834559 176450902 1435660892 2122018432 170420405 -558151615
REM
CELL 1.54180   50.00000   50.00000   50.00000   90.00000   90.00000   90.00000
LATT -1
SFAC C  
C      1  0.5084170000000  0.5850170000000  0.4775080000000 1.0
C      1  0.4228740000000  0.4619750000000  0.4976110000000 1.0
C      1  0.4885820000000  0.4075470000000  0.4527910000000 1.0
C      1  0.4150030000000  0.5122720000000  0.5133840000000 1.0
C      1  0.5007080000000  0.5662430000000  0.5651110000000 1.0
C      1  0.5885430000000  0.5418410000000  0.5091350000000 1.0
C      1  0.4655430000000  0.4670240000000  0.5106370000000 1.0
C      1  0.5066550000000  0.4810590000000  0.3909870000000 1.0
C      1  0.5587530000000  0.4679550000000  0.5683930000000 1.0
C      1  0.5519700000000  0.4523100000000  0.4285140000000 1.0
C      1  0.4804370000000  0.4422190000000  0.4227170000000 1.0
C      1  0.4812610000000  0.5887500000000  0.5188960000000 1.0
C      1  0.5318540000000  0.4687230000000  0.5373790000000 1.0
C      1  0.4601290000000  0.5232910000000  0.5595580000000 1.0
C      1  0.4772390000000  0.4330780000000  0.4692050000000 1.0
C      1  0.4823530000000  0.4888920000000  0.4077510000000 1.0
C      1  0.5009650000000  0.4507380000000  0.4791460000000 1.0
C      1  0.5726260000000  0.4980090000000  0.4693050000000 1.0
C      1  0.5338590000000  0.5163910000000  0.5941600000000 1.0
C      1  0.5119460000000  0.5907910000000  0.5167520000000 1.0
C      1  0.5028560000000  0.4737100000000  0.4981150000000 1.0
C      1  0.4559240000000  0.5182840000000  0.4929190000000 1.0
C      1  0.4796130000000  0.4946360000000  0.4415140000000 1.0
C      1  0.4968210000000  0.4082060000000  0.5294790000000 1.0
C      1  0.5424540000000  0.5859930000000  0.5232660000000 1.0
C      1  0.5361800000000  0.4633010000000  0.5918380000000 1.0
C      1  0.5089560000000  0.4110270000000  0.4795460000000 1.0
C      1  0.5433770000000  0.5117840000000  0.4066360000000 1.0
C      1  0.5690820000000  0.5354260000000  0.5276390000000 1.0
C      1  0.5311780000000  0.4357420000000  0.4789840000000 1.0
C      1  0.4546860000000  0.4807990000000  0.4605750000000 1.0
C      1  0.5109040000000  0.5047250000000  0.5716560000000 1.0
C      1  0.5873180000000  0.4831230000000  0.4903220000000 1.0
C      1  0.5627190000000  0.4951830000000  0.5607390000000 1.0
C      1  0.5225540000000  0.5613320000000  0.4154490000000 1.0
C      1  0.5692010000000  0.5068390000000  0.5356180000000 1.0
C      1  0.4152520000000  0.5408730000000  0.5321280000000 1.0
C      1  0.4968490000000  0.5405750000000  0.4193490000000 1.0
C      1  0.5317390000000  0.4781300000000  0.5112830000000 1.0
C      1  0.4466460000000  0.4455540000000  0.5038360000000 1.0
C      1  0.4536610000000  0.5017570000000  0.5814650000000 1.0
C      1  0.5003010000000  0.5013170000000  0.5175330000000 1.0
C      1  0.5487770000000  0.4230550000000  0.4365980000000 1.0
C      1  0.5649580000000  0.4804550000000  0.4431960000000 1.0
C      1  0.5266900000000  0.4580060000000  0.4061180000000 1.0
C      1  0.4719710000000  0.4837380000000  0.5956900000000 1.0
C      1  0.4759800000000  0.5449950000000  0.4921450000000 1.0
C      1  0.4404460000000  0.5666020000000  0.4951700000000 1.0
C      1  0.4766300000000  0.4609630000000  0.5389300000000 1.0
C      1  0.4161920000000  0.4809470000000  0.5189710000000 1.0
C      1  0.4723430000000  0.5211330000000  0.4128120000000 1.0
C      1  0.4621350000000  0.4235700000000  0.4946080000000 1.0
C      1  0.4826250000000  0.5235100000000  0.5339420000000 1.0
C      1  0.4231000000000  0.5202290000000  0.4829080000000 1.0
C      1  0.5226500000000  0.4362930000000  0.5985870000000 1.0
C      1  0.4830240000000  0.5807650000000  0.4471440000000 1.0
C      1  0.5439090000000  0.5137640000000  0.4771440000000 1.0
C      1  0.4744650000000  0.5692050000000  0.5459610000000 1.0
C      1  0.4280210000000  0.5636320000000  0.4707800000000 1.0
C      1  0.5051550000000  0.4530720000000  0.5482630000000 1.0
C      1  0.4587800000000  0.4680580000000  0.4203970000000 1.0
C      1  0.5741570000000  0.4540680000000  0.5206800000000 1.0
C      1  0.5237670000000  0.4891170000000  0.6060360000000 1.0
C      1  0.4286290000000  0.4762540000000  0.5442990000000 1.0
C      1  0.5632960000000  0.4475950000000  0.5492650000000 1.0
C      1  0.4905500000000  0.4966410000000  0.5497210000000 1.0
C      1  0.5738670000000  0.5298240000000  0.4729480000000 1.0
C      1  0.5329450000000  0.4861380000000  0.4200350000000 1.0
C      1  0.5514410000000  0.5571760000000  0.5343600000000 1.0
C      1  0.4477100000000  0.5623840000000  0.4450540000000 1.0
C      1  0.5775320000000  0.4869410000000  0.5173630000000 1.0
C      1  0.4617620000000  0.4502270000000  0.4493160000000 1.0
C      1  0.5028370000000  0.5544190000000  0.5908120000000 1.0
C      1  0.5029550000000  0.4219230000000  0.5515730000000 1.0
C      1  0.4507030000000  0.5535930000000  0.5598980000000 1.0
C      1  0.4944380000000  0.5222980000000  0.4472240000000 1.0
C      1  0.4488930000000  0.5000700000000  0.4260300000000 1.0
C      1  0.4702000000000  0.4410880000000  0.5630740000000 1.0
C      1  0.4943490000000  0.5728960000000  0.4235900000000 1.0
C      1  0.4230990000000  0.4730520000000  0.4709290000000 1.0
C      1  0.4072850000000  0.4958130000000  0.4681460000000 1.0
C      1  0.5471150000000  0.5601120000000  0.4255870000000 1.0
C      1  0.5875010000000  0.4552860000000  0.4830800000000 1.0
C      1  0.5574080000000  0.4210940000000  0.5550350000000 1.0
C      1  0.6006570000000  0.4422850000000  0.5185720000000 1.0
C      1  0.4376410000000  0.5712470000000  0.4203870000000 1.0
C      1  0.4739660000000  0.4562370000000  0.5906450000000 1.0
C      1  0.5209610000000  0.5096160000000  0.4583120000000 1.0
C      1  0.5646690000000  0.4509320000000  0.4600960000000 1.0
C      1  0.5145630000000  0.5578860000000  0.5189700000000 1.0
C      1  0.4878780000000  0.5626750000000  0.4745450000000 1.0
C      1  0.4442360000000  0.5138930000000  0.5309160000000 1.0
C      1  0.5560580000000  0.5415070000000  0.4483400000000 1.0
C      1  0.5234320000000  0.5627940000000  0.5494490000000 1.0
C      1  0.4622070000000  0.5338920000000  0.4431450000000 1.0
C      1  0.4413690000000  0.5126690000000  0.4562000000000 1.0
C      1  0.5101760000000  0.4397840000000  0.4272550000000 1.0
C      1  0.5329560000000  0.5423150000000  0.5021610000000 1.0
C      1  0.4176310000000  0.4633620000000  0.5660180000000 1.0
C      1  0.4853340000000  0.5491560000000  0.5206690000000 1.0
C      1  0.4583920000000  0.4865680000000  0.5446560000000 1.0
C      1  0.5203160000000  0.4557120000000  0.4537000000000 1.0
C      1  0.5204920000000  0.4141220000000  0.4471150000000 1.0
C      1  0.4411100000000  0.5419870000000  0.5112300000000 1.0
C      1  0.5252850000000  0.4841790000000  0.4462560000000 1.0
C      1  0.5197120000000  0.4756480000000  0.5671890000000 1.0
C      1  0.5579170000000  0.4424460000000  0.4929100000000 1.0
C      1  0.5440160000000  0.5537550000000  0.4777990000000 1.0
C      1  0.5238770000000  0.5028710000000  0.3848630000000 1.0
C      1  0.5299900000000  0.5439690000000  0.5999130000000 1.0
C      1  0.4588240000000  0.5882250000000  0.4655700000000 1.0
C      1  0.4234480000000  0.5548340000000  0.5545380000000 1.0
C      1  0.5310530000000  0.5106670000000  0.5060030000000 1.0
C      1  0.5353540000000  0.5807840000000  0.4748840000000 1.0
C      1  0.4264260000000  0.4981290000000  0.5865440000000 1.0
C      1  0.4950270000000  0.5256070000000  0.5938960000000 1.0
C      1  0.5593940000000  0.5125790000000  0.4334510000000 1.0
C      1  0.4885970000000  0.4109170000000  0.5027950000000 1.0
C      1  0.4650160000000  0.4886730000000  0.4918420000000 1.0
C      1  0.4628320000000  0.5866320000000  0.4966120000000 1.0
C      1  0.4946400000000  0.4974370000000  0.6071920000000 1.0
C      1  0.4962710000000  0.4315650000000  0.5831160000000 1.0
END
