TITL C-2778435-5768-460 -0.00285972473704757 125000 -307.365170608121 0 0 54 (C1) n - 1
REM
REM in /home/nfs/bkarasulu/CARBON/AIRSS/Generating-Clusters/REBO/Only-C1/SD-CG/HFTN-CG
REM
REM
REM
REM
REM
REM ./C.cell (11c1c37f851c82e70ff6c80c92926a4b)
REM
REM compiler GCC version 9.2.1 20190827 (Red Hat 9.2.1-1)
REM options -cpp -mtune=generic -march=x86-64 -g -O0 -fpre-include=/usr/include/finclude/math-vector-fortran.h
REM seed 1920191024 2119377192 -732205365 -1031666487 102136829 -1015104451 1017897578 1059979161 -1690172839 1676454761 -543845983 -2093012626 -1808588427 -1889403958 -1094357429 -727048467 -83606552 -2115661998 449014159 923944990 -1542557136 1900202713 -191889676 -811852099 -1881186821 -1025371207 -1832727652 866316491 1078784194 1825016609 66919605 486942628 1271789631
REM
CELL 1.54180   50.00000   50.00000   50.00000   90.00000   90.00000   90.00000
LATT -1
SFAC C  
C      1  0.4576770000000  0.5623830000000  0.4852230000000 1.0
C      1  0.4761550000000  0.4281770000000  0.4478720000000 1.0
C      1  0.4842040000000  0.4710690000000  0.4290290000000 1.0
C      1  0.4789600000000  0.4231230000000  0.5002010000000 1.0
C      1  0.4891770000000  0.4601970000000  0.5298800000000 1.0
C      1  0.5365180000000  0.5601050000000  0.5136940000000 1.0
C      1  0.5390160000000  0.3852910000000  0.5085450000000 1.0
C      1  0.5048180000000  0.4193720000000  0.5127990000000 1.0
C      1  0.5071000000000  0.4394830000000  0.5334020000000 1.0
C      1  0.4731300000000  0.4369080000000  0.4744650000000 1.0
C      1  0.4695900000000  0.5293930000000  0.5821150000000 1.0
C      1  0.5247820000000  0.5081430000000  0.4613820000000 1.0
C      1  0.4583650000000  0.5334810000000  0.4993700000000 1.0
C      1  0.5209850000000  0.4407660000000  0.4382570000000 1.0
C      1  0.4899580000000  0.5651890000000  0.5534290000000 1.0
C      1  0.5434370000000  0.4245360000000  0.4811590000000 1.0
C      1  0.5290390000000  0.4093580000000  0.5002840000000 1.0
C      1  0.4760520000000  0.4859260000000  0.4548980000000 1.0
C      1  0.5607810000000  0.5276630000000  0.4919020000000 1.0
C      1  0.4664610000000  0.5423550000000  0.5543460000000 1.0
C      1  0.4962270000000  0.5449660000000  0.5802750000000 1.0
C      1  0.4646780000000  0.5348430000000  0.4662780000000 1.0
C      1  0.5441160000000  0.5463480000000  0.5665420000000 1.0
C      1  0.5316080000000  0.4819670000000  0.4660880000000 1.0
C      1  0.4561280000000  0.5306160000000  0.5319280000000 1.0
C      1  0.4407310000000  0.4693530000000  0.5151010000000 1.0
C      1  0.4912050000000  0.4802910000000  0.5047070000000 1.0
C      1  0.5140920000000  0.4677940000000  0.4875840000000 1.0
C      1  0.5211400000000  0.5756490000000  0.5310120000000 1.0
C      1  0.5101160000000  0.5695690000000  0.4458290000000 1.0
C      1  0.4968100000000  0.5307150000000  0.4892460000000 1.0
C      1  0.5440560000000  0.5285830000000  0.4672620000000 1.0
C      1  0.5235510000000  0.5675970000000  0.5595900000000 1.0
C      1  0.4638110000000  0.4519250000000  0.5102170000000 1.0
C      1  0.4960380000000  0.5625460000000  0.4756970000000 1.0
C      1  0.4934650000000  0.4440560000000  0.4316100000000 1.0
C      1  0.4274180000000  0.4916010000000  0.4961970000000 1.0
C      1  0.4577230000000  0.5112150000000  0.5975320000000 1.0
C      1  0.5229350000000  0.5376340000000  0.5859800000000 1.0
C      1  0.4527360000000  0.5071740000000  0.4566920000000 1.0
C      1  0.4797730000000  0.5798150000000  0.4977050000000 1.0
C      1  0.4488020000000  0.5011240000000  0.5203870000000 1.0
C      1  0.4915420000000  0.5807650000000  0.5231930000000 1.0
C      1  0.5618950000000  0.5375590000000  0.5458970000000 1.0
C      1  0.4799760000000  0.5086400000000  0.5085900000000 1.0
C      1  0.4299190000000  0.4991240000000  0.4695120000000 1.0
C      1  0.5692340000000  0.4169190000000  0.4740670000000 1.0
C      1  0.4918190000000  0.5144030000000  0.4605780000000 1.0
C      1  0.5324080000000  0.5561970000000  0.4603470000000 1.0
C      1  0.5576770000000  0.5416170000000  0.5178010000000 1.0
C      1  0.5935370000000  0.4097430000000  0.4673860000000 1.0
C      1  0.5313250000000  0.4479380000000  0.4670160000000 1.0
C      1  0.5219630000000  0.5516450000000  0.4910350000000 1.0
C      1  0.4753420000000  0.4671510000000  0.4788670000000 1.0
END
