TITL C-2778423-5760-285 -0.0137541768813463 125000 -1085.74047673689 0 0 188 (C1) n - 1
REM
REM in /home/nfs/bkarasulu/CARBON/AIRSS/Generating-Clusters/REBO/Only-C1/SD-CG/HFTN-CG
REM
REM
REM
REM
REM
REM ./C.cell (11c1c37f851c82e70ff6c80c92926a4b)
REM
REM compiler GCC version 9.2.1 20190827 (Red Hat 9.2.1-1)
REM options -cpp -mtune=generic -march=x86-64 -g -O0 -fpre-include=/usr/include/finclude/math-vector-fortran.h
REM seed 1042377546 133812793 21199229 1065815054 409875444 459889047 -162618143 -1541424452 -527581095 2016832698 -1284851288 690412944 1380798870 -427199949 184918177 787926866 -1437487181 -104889926 -1233927090 -1668626536 -1715573304 680905980 1751149490 -2624792 -693395110 -970987869 -355071431 -1680440158 -1146632590 -2014065972 -1918633683 -198357518 1098491733
REM
CELL 1.54180   50.00000   50.00000   50.00000   90.00000   90.00000   90.00000
LATT -1
SFAC C  
C      1  0.5643120000000  0.4947420000000  0.4285080000000 1.0
C      1  0.5602060000000  0.5366640000000  0.5769320000000 1.0
C      1  0.5555550000000  0.4181550000000  0.5187670000000 1.0
C      1  0.4682110000000  0.4895980000000  0.5003570000000 1.0
C      1  0.6027480000000  0.5303000000000  0.4620830000000 1.0
C      1  0.4501430000000  0.5097370000000  0.5678460000000 1.0
C      1  0.5108610000000  0.5861650000000  0.4657260000000 1.0
C      1  0.5986090000000  0.4905350000000  0.4272420000000 1.0
C      1  0.5561050000000  0.5954290000000  0.5388110000000 1.0
C      1  0.4143960000000  0.5361530000000  0.5805140000000 1.0
C      1  0.4400840000000  0.5208780000000  0.4909740000000 1.0
C      1  0.4808620000000  0.4899870000000  0.6010940000000 1.0
C      1  0.5098920000000  0.4214110000000  0.5525510000000 1.0
C      1  0.5766890000000  0.4263080000000  0.4657680000000 1.0
C      1  0.5806720000000  0.4271950000000  0.4976380000000 1.0
C      1  0.5259410000000  0.4663280000000  0.4445720000000 1.0
C      1  0.4812730000000  0.5753050000000  0.4411990000000 1.0
C      1  0.4525580000000  0.5221320000000  0.6147640000000 1.0
C      1  0.5842030000000  0.5663660000000  0.5126440000000 1.0
C      1  0.5451630000000  0.4037850000000  0.5479570000000 1.0
C      1  0.5314360000000  0.5315050000000  0.4509350000000 1.0
C      1  0.4464670000000  0.4578110000000  0.4566430000000 1.0
C      1  0.5330840000000  0.5134040000000  0.5460040000000 1.0
C      1  0.5184780000000  0.5691720000000  0.5743520000000 1.0
C      1  0.5551820000000  0.4856000000000  0.5908130000000 1.0
C      1  0.5497770000000  0.4196000000000  0.4633010000000 1.0
C      1  0.4930200000000  0.5125460000000  0.5815020000000 1.0
C      1  0.5055750000000  0.5964270000000  0.4351370000000 1.0
C      1  0.5616950000000  0.5848020000000  0.4852430000000 1.0
C      1  0.5668220000000  0.4729200000000  0.5398500000000 1.0
C      1  0.4658140000000  0.5648040000000  0.5693790000000 1.0
C      1  0.5612790000000  0.4286290000000  0.4198490000000 1.0
C      1  0.5657860000000  0.5258630000000  0.5269560000000 1.0
C      1  0.4616380000000  0.5351160000000  0.5527060000000 1.0
C      1  0.4904750000000  0.5620370000000  0.5924130000000 1.0
C      1  0.4514840000000  0.5768830000000  0.4575750000000 1.0
C      1  0.5352440000000  0.4991250000000  0.4407950000000 1.0
C      1  0.5366800000000  0.4981980000000  0.3999390000000 1.0
C      1  0.4877840000000  0.4663790000000  0.4925900000000 1.0
C      1  0.5769810000000  0.4717290000000  0.5723560000000 1.0
C      1  0.5396200000000  0.4695510000000  0.4034410000000 1.0
C      1  0.4783550000000  0.5195680000000  0.3862640000000 1.0
C      1  0.5550200000000  0.4432680000000  0.5400340000000 1.0
C      1  0.3932080000000  0.5232980000000  0.4644450000000 1.0
C      1  0.6098370000000  0.4820880000000  0.5069520000000 1.0
C      1  0.4971370000000  0.5556300000000  0.5215730000000 1.0
C      1  0.4661430000000  0.4917470000000  0.3975460000000 1.0
C      1  0.5831840000000  0.5007290000000  0.5017650000000 1.0
C      1  0.5895650000000  0.5804550000000  0.4756930000000 1.0
C      1  0.5292740000000  0.5929660000000  0.4918780000000 1.0
C      1  0.5378360000000  0.4136420000000  0.5796790000000 1.0
C      1  0.4870830000000  0.4668830000000  0.4002550000000 1.0
C      1  0.5870010000000  0.4405840000000  0.5287890000000 1.0
C      1  0.5892020000000  0.5277110000000  0.5475740000000 1.0
C      1  0.4198120000000  0.5498170000000  0.5557320000000 1.0
C      1  0.4771590000000  0.4584480000000  0.6068120000000 1.0
C      1  0.5062580000000  0.4808030000000  0.4223490000000 1.0
C      1  0.4716730000000  0.4097430000000  0.5153920000000 1.0
C      1  0.4314530000000  0.5460360000000  0.4172570000000 1.0
C      1  0.4870360000000  0.5213260000000  0.5429470000000 1.0
C      1  0.4746660000000  0.5814840000000  0.5226260000000 1.0
C      1  0.5301210000000  0.4868710000000  0.5100110000000 1.0
C      1  0.4936760000000  0.4853320000000  0.4581750000000 1.0
C      1  0.4459940000000  0.5814830000000  0.5292710000000 1.0
C      1  0.5123710000000  0.4264240000000  0.4175440000000 1.0
C      1  0.5191410000000  0.5516590000000  0.4865260000000 1.0
C      1  0.5011470000000  0.5393740000000  0.6159940000000 1.0
C      1  0.5853820000000  0.4450610000000  0.4461880000000 1.0
C      1  0.4232180000000  0.5036580000000  0.4470480000000 1.0
C      1  0.5331500000000  0.4347980000000  0.4842240000000 1.0
C      1  0.4453150000000  0.4764720000000  0.4280720000000 1.0
C      1  0.4958580000000  0.6040930000000  0.5155990000000 1.0
C      1  0.5394090000000  0.5238330000000  0.4096740000000 1.0
C      1  0.5214240000000  0.4960230000000  0.5722010000000 1.0
C      1  0.5928860000000  0.4975880000000  0.5568860000000 1.0
C      1  0.4382110000000  0.4360430000000  0.4244220000000 1.0
C      1  0.4520030000000  0.5760990000000  0.4901990000000 1.0
C      1  0.4415120000000  0.4305820000000  0.5752530000000 1.0
C      1  0.4632680000000  0.4935320000000  0.4503520000000 1.0
C      1  0.4132890000000  0.4535230000000  0.4348240000000 1.0
C      1  0.5129820000000  0.5273960000000  0.5222360000000 1.0
C      1  0.5113500000000  0.4524950000000  0.4720300000000 1.0
C      1  0.4309700000000  0.4252330000000  0.5497970000000 1.0
C      1  0.4431570000000  0.4236790000000  0.5180150000000 1.0
C      1  0.5727970000000  0.5433020000000  0.5021250000000 1.0
C      1  0.5677590000000  0.4616870000000  0.4209920000000 1.0
C      1  0.5079560000000  0.4626800000000  0.6117140000000 1.0
C      1  0.4904620000000  0.5149760000000  0.4727050000000 1.0
C      1  0.5400270000000  0.5653620000000  0.5074010000000 1.0
C      1  0.4606790000000  0.6045540000000  0.4748380000000 1.0
C      1  0.4084740000000  0.5460700000000  0.4719300000000 1.0
C      1  0.4621000000000  0.5339430000000  0.4198500000000 1.0
C      1  0.5483010000000  0.4751970000000  0.4764900000000 1.0
C      1  0.5232270000000  0.5397670000000  0.5917240000000 1.0
C      1  0.4446680000000  0.4964480000000  0.5198960000000 1.0
C      1  0.5336460000000  0.4405600000000  0.5586420000000 1.0
C      1  0.3899100000000  0.4671270000000  0.4973630000000 1.0
C      1  0.3994050000000  0.4805830000000  0.5450880000000 1.0
C      1  0.4121820000000  0.4467360000000  0.5079460000000 1.0
C      1  0.4602960000000  0.5641330000000  0.4209720000000 1.0
C      1  0.6130600000000  0.5092850000000  0.4867640000000 1.0
C      1  0.4400020000000  0.4642030000000  0.5127580000000 1.0
C      1  0.4268060000000  0.4315620000000  0.4565930000000 1.0
C      1  0.4959010000000  0.4336200000000  0.5137060000000 1.0
C      1  0.5155930000000  0.3935340000000  0.4821810000000 1.0
C      1  0.5913390000000  0.4734970000000  0.4508970000000 1.0
C      1  0.5859270000000  0.4602350000000  0.5015950000000 1.0
C      1  0.3940500000000  0.5041430000000  0.4851480000000 1.0
C      1  0.4689510000000  0.4520010000000  0.5557180000000 1.0
C      1  0.6027640000000  0.5608990000000  0.4676590000000 1.0
C      1  0.4839990000000  0.4559050000000  0.4434900000000 1.0
C      1  0.5162980000000  0.4510650000000  0.3989100000000 1.0
C      1  0.5226680000000  0.4389890000000  0.5968860000000 1.0
C      1  0.3839390000000  0.4711570000000  0.4657160000000 1.0
C      1  0.4706110000000  0.5378720000000  0.4735990000000 1.0
C      1  0.5827200000000  0.5556720000000  0.5596340000000 1.0
C      1  0.5060230000000  0.5117580000000  0.4277720000000 1.0
C      1  0.5719050000000  0.4860420000000  0.4666150000000 1.0
C      1  0.5428140000000  0.5553640000000  0.5584920000000 1.0
C      1  0.5228880000000  0.4540470000000  0.5175050000000 1.0
C      1  0.5603710000000  0.5064700000000  0.5642960000000 1.0
C      1  0.4863340000000  0.5877330000000  0.5603120000000 1.0
C      1  0.4647510000000  0.4522860000000  0.4182810000000 1.0
C      1  0.4881120000000  0.4741610000000  0.5717400000000 1.0
C      1  0.5126540000000  0.5407570000000  0.4170010000000 1.0
C      1  0.4701540000000  0.3992460000000  0.4710600000000 1.0
C      1  0.5431790000000  0.5165200000000  0.5986930000000 1.0
C      1  0.4310870000000  0.5560620000000  0.4494370000000 1.0
C      1  0.4972140000000  0.4022110000000  0.4636040000000 1.0
C      1  0.4818340000000  0.3963100000000  0.5409710000000 1.0
C      1  0.4208550000000  0.4729330000000  0.5552180000000 1.0
C      1  0.4877860000000  0.5935970000000  0.4868760000000 1.0
C      1  0.4396560000000  0.5726260000000  0.5555850000000 1.0
C      1  0.4124600000000  0.5476050000000  0.5007280000000 1.0
C      1  0.5089940000000  0.5779350000000  0.5427160000000 1.0
C      1  0.5473560000000  0.5515490000000  0.5317690000000 1.0
C      1  0.5762760000000  0.5155650000000  0.4737010000000 1.0
C      1  0.5104840000000  0.5324760000000  0.5616690000000 1.0
C      1  0.5272390000000  0.5983960000000  0.5256070000000 1.0
C      1  0.4522510000000  0.4820570000000  0.5503020000000 1.0
C      1  0.4849520000000  0.4909750000000  0.5432240000000 1.0
C      1  0.5574920000000  0.4947460000000  0.5204580000000 1.0
C      1  0.5533730000000  0.5635390000000  0.4381890000000 1.0
C      1  0.5603360000000  0.5352520000000  0.4286320000000 1.0
C      1  0.5106970000000  0.5582320000000  0.4457720000000 1.0
C      1  0.5522830000000  0.4552070000000  0.5002070000000 1.0
C      1  0.5867200000000  0.5201830000000  0.4354450000000 1.0
C      1  0.5022500000000  0.4287170000000  0.4491200000000 1.0
C      1  0.4200400000000  0.4824060000000  0.4918620000000 1.0
C      1  0.5364050000000  0.4393360000000  0.4313620000000 1.0
C      1  0.4787180000000  0.4220210000000  0.5634520000000 1.0
C      1  0.4412610000000  0.5418200000000  0.5305040000000 1.0
C      1  0.4160050000000  0.5198990000000  0.4114920000000 1.0
C      1  0.4838770000000  0.5155690000000  0.6234230000000 1.0
C      1  0.3950130000000  0.5155960000000  0.4340220000000 1.0
C      1  0.4999170000000  0.4782200000000  0.5216280000000 1.0
C      1  0.4664740000000  0.4480690000000  0.5234920000000 1.0
C      1  0.4893480000000  0.5618420000000  0.4889010000000 1.0
C      1  0.6006630000000  0.4710450000000  0.5369260000000 1.0
C      1  0.5778060000000  0.5763200000000  0.5392400000000 1.0
C      1  0.5194550000000  0.4639870000000  0.5737240000000 1.0
C      1  0.4717060000000  0.4480740000000  0.4730250000000 1.0
C      1  0.4174780000000  0.5165210000000  0.5145240000000 1.0
C      1  0.4918240000000  0.5391430000000  0.3935940000000 1.0
C      1  0.4574980000000  0.4214520000000  0.4799480000000 1.0
C      1  0.5213080000000  0.4907740000000  0.4773420000000 1.0
C      1  0.4026290000000  0.4764750000000  0.4460540000000 1.0
C      1  0.5152100000000  0.3948200000000  0.5344170000000 1.0
C      1  0.4581370000000  0.4422720000000  0.5937630000000 1.0
C      1  0.4558950000000  0.5460980000000  0.5034050000000 1.0
C      1  0.5249930000000  0.4879220000000  0.6052800000000 1.0
C      1  0.5166380000000  0.5204850000000  0.4915780000000 1.0
C      1  0.5443650000000  0.5649250000000  0.4677490000000 1.0
C      1  0.5037340000000  0.4142920000000  0.5852990000000 1.0
C      1  0.4367390000000  0.4849920000000  0.4681860000000 1.0
C      1  0.5265840000000  0.5999440000000  0.4188130000000 1.0
C      1  0.4070340000000  0.4332570000000  0.5354490000000 1.0
C      1  0.5234030000000  0.4137790000000  0.5073150000000 1.0
C      1  0.5538680000000  0.5352900000000  0.4760930000000 1.0
C      1  0.5489310000000  0.5843680000000  0.4214100000000 1.0
C      1  0.4411930000000  0.5265340000000  0.4598450000000 1.0
C      1  0.4335960000000  0.4968210000000  0.4062660000000 1.0
C      1  0.3924470000000  0.4943980000000  0.5178370000000 1.0
C      1  0.4346210000000  0.5181160000000  0.5903380000000 1.0
C      1  0.4748490000000  0.5083570000000  0.4246030000000 1.0
C      1  0.4264620000000  0.4253240000000  0.4883850000000 1.0
C      1  0.4256850000000  0.5714500000000  0.5086690000000 1.0
C      1  0.4713590000000  0.5339190000000  0.5910360000000 1.0
END
