TITL C-2778436-5916-1294 -4.35371866375291e-05 125000 -338.600860224105 0 0 61 (C1) n - 1
REM
REM in /home/nfs/bkarasulu/CARBON/AIRSS/Generating-Clusters/REBO/Only-C1/SD-CG/HFTN-CG
REM
REM
REM
REM
REM
REM ./C.cell (11c1c37f851c82e70ff6c80c92926a4b)
REM
REM compiler GCC version 9.2.1 20190827 (Red Hat 9.2.1-1)
REM options -cpp -mtune=generic -march=x86-64 -g -O0 -fpre-include=/usr/include/finclude/math-vector-fortran.h
REM seed -548897603 -1359722980 1367467786 971091404 577926784 -1362981974 -1486467668 1363593471 1308616184 -567149924 1022816602 1264330694 -782710139 1984635913 -1264424184 -657098844 969936881 809102610 422241482 -638965400 -646870832 -1510522184 -414869876 1426667021 1077022420 -1155049270 1608035817 1068329704 2043340861 -899054516 -103247507 -748261968 -1474010286
REM
CELL 1.54180   50.00000   50.00000   50.00000   90.00000   90.00000   90.00000
LATT -1
SFAC C  
C      1  0.5455020000000  0.5373730000000  0.4627380000000 1.0
C      1  0.4669980000000  0.4691390000000  0.6347700000000 1.0
C      1  0.4687830000000  0.5510090000000  0.4957380000000 1.0
C      1  0.5111510000000  0.4919610000000  0.5007920000000 1.0
C      1  0.4705420000000  0.4412560000000  0.4718620000000 1.0
C      1  0.5485540000000  0.4789340000000  0.4615190000000 1.0
C      1  0.4989280000000  0.4277360000000  0.5145750000000 1.0
C      1  0.4504730000000  0.5343050000000  0.5367230000000 1.0
C      1  0.4529570000000  0.4873890000000  0.5312040000000 1.0
C      1  0.4801430000000  0.4761410000000  0.6132070000000 1.0
C      1  0.4351850000000  0.4647370000000  0.5139860000000 1.0
C      1  0.5193170000000  0.5622250000000  0.5255790000000 1.0
C      1  0.5272700000000  0.5750320000000  0.4972400000000 1.0
C      1  0.4815870000000  0.4811380000000  0.5044260000000 1.0
C      1  0.5145590000000  0.5357550000000  0.5072160000000 1.0
C      1  0.5196500000000  0.5363670000000  0.4787180000000 1.0
C      1  0.5470790000000  0.4901230000000  0.5370000000000 1.0
C      1  0.4763800000000  0.5398760000000  0.5483530000000 1.0
C      1  0.4843690000000  0.5325350000000  0.5099910000000 1.0
C      1  0.4341680000000  0.5275760000000  0.5134030000000 1.0
C      1  0.5516340000000  0.5206550000000  0.5504400000000 1.0
C      1  0.4653990000000  0.5520640000000  0.4559470000000 1.0
C      1  0.4935010000000  0.4832570000000  0.5912940000000 1.0
C      1  0.5390030000000  0.5687960000000  0.4658480000000 1.0
C      1  0.5284040000000  0.4482880000000  0.5526160000000 1.0
C      1  0.5162100000000  0.5616700000000  0.4411660000000 1.0
C      1  0.4954080000000  0.5380120000000  0.4641940000000 1.0
C      1  0.5130700000000  0.4636910000000  0.4683040000000 1.0
C      1  0.5046860000000  0.4556280000000  0.4307050000000 1.0
C      1  0.4788290000000  0.5719560000000  0.4769540000000 1.0
C      1  0.4908210000000  0.5631400000000  0.5425920000000 1.0
C      1  0.4967980000000  0.4376640000000  0.4556050000000 1.0
C      1  0.4552410000000  0.4877890000000  0.4882190000000 1.0
C      1  0.5014410000000  0.5319340000000  0.4328160000000 1.0
C      1  0.4427060000000  0.5407940000000  0.4899780000000 1.0
C      1  0.5229190000000  0.4822390000000  0.4415050000000 1.0
C      1  0.4979720000000  0.5146320000000  0.5525040000000 1.0
C      1  0.4309280000000  0.4980100000000  0.5084330000000 1.0
C      1  0.4533110000000  0.4988140000000  0.4566680000000 1.0
C      1  0.5264270000000  0.5100760000000  0.5218000000000 1.0
C      1  0.5159430000000  0.4161010000000  0.4999600000000 1.0
C      1  0.5372300000000  0.4425590000000  0.5210840000000 1.0
C      1  0.5485280000000  0.4525320000000  0.4828730000000 1.0
C      1  0.4809420000000  0.4494010000000  0.5031000000000 1.0
C      1  0.5487420000000  0.5228330000000  0.4387140000000 1.0
C      1  0.5244860000000  0.4299100000000  0.4744990000000 1.0
C      1  0.4691170000000  0.5228120000000  0.4389320000000 1.0
C      1  0.5066850000000  0.5770290000000  0.4702370000000 1.0
C      1  0.5236760000000  0.5104340000000  0.4308400000000 1.0
C      1  0.5282930000000  0.4753670000000  0.5573480000000 1.0
C      1  0.5242760000000  0.5351640000000  0.5457150000000 1.0
C      1  0.5561240000000  0.4690660000000  0.5125060000000 1.0
C      1  0.5074000000000  0.4906610000000  0.5684920000000 1.0
C      1  0.4417980000000  0.5294880000000  0.4599750000000 1.0
C      1  0.5326060000000  0.4181190000000  0.5442860000000 1.0
C      1  0.4530280000000  0.4662330000000  0.4631100000000 1.0
C      1  0.4794370000000  0.5062130000000  0.5270630000000 1.0
C      1  0.5720590000000  0.5196030000000  0.4252920000000 1.0
C      1  0.5193670000000  0.4599830000000  0.5002080000000 1.0
C      1  0.5429760000000  0.4907980000000  0.4909120000000 1.0
C      1  0.4489870000000  0.4459780000000  0.4982260000000 1.0
END
