TITL C-2778437-8639-524 0.197595178149249 125000 -382.018749435685 0 0 66 (C1) n - 1
REM
REM in /home/nfs/bkarasulu/CARBON/AIRSS/Generating-Clusters/REBO/Only-C1/SD-CG/HFTN-CG
REM
REM
REM
REM
REM
REM ./C.cell (11c1c37f851c82e70ff6c80c92926a4b)
REM
REM compiler GCC version 9.2.1 20190827 (Red Hat 9.2.1-1)
REM options -cpp -mtune=generic -march=x86-64 -g -O0 -fpre-include=/usr/include/finclude/math-vector-fortran.h
REM seed 1115919648 -1497716653 110938462 -2080135556 -884250588 -1561195765 -2020843275 -1703709898 1412742919 -617746037 -612386935 -1510743446 386958442 2038533860 -558143884 1382200532 693485098 2061501128 1985630725 -1840521547 -1926210405 -1163797336 -1527946804 1483535879 1852595008 1054596344 -743883800 1395631798 1618521175 -1005767278 -1459772258 1051477626 -1036892733
REM
CELL 1.54180   50.00000   50.00000   50.00000   90.00000   90.00000   90.00000
LATT -1
SFAC C  
C      1  0.5332980000000  0.4759900000000  0.4467660000000 1.0
C      1  0.5313590000000  0.4299380000000  0.4757760000000 1.0
C      1  0.5803980000000  0.4986460000000  0.4824690000000 1.0
C      1  0.4979830000000  0.5349540000000  0.5629010000000 1.0
C      1  0.5084230000000  0.4202900000000  0.4986790000000 1.0
C      1  0.4514810000000  0.4278790000000  0.4773000000000 1.0
C      1  0.4846480000000  0.5374810000000  0.4684750000000 1.0
C      1  0.5486210000000  0.5401860000000  0.4864590000000 1.0
C      1  0.5390670000000  0.4660620000000  0.5515440000000 1.0
C      1  0.5001610000000  0.5108040000000  0.4828310000000 1.0
C      1  0.4381380000000  0.4644940000000  0.5379690000000 1.0
C      1  0.4647450000000  0.4534610000000  0.5386850000000 1.0
C      1  0.4503500000000  0.5803680000000  0.5511240000000 1.0
C      1  0.4858680000000  0.4785980000000  0.4447650000000 1.0
C      1  0.4807650000000  0.4616680000000  0.5124960000000 1.0
C      1  0.4688260000000  0.4988190000000  0.5046090000000 1.0
C      1  0.5201640000000  0.4969430000000  0.5068180000000 1.0
C      1  0.4804680000000  0.4122130000000  0.4859130000000 1.0
C      1  0.4346830000000  0.5006740000000  0.4680370000000 1.0
C      1  0.4600540000000  0.5086880000000  0.5461260000000 1.0
C      1  0.5644750000000  0.5231150000000  0.4664760000000 1.0
C      1  0.4430000000000  0.4858620000000  0.4193050000000 1.0
C      1  0.4235430000000  0.4794620000000  0.4866070000000 1.0
C      1  0.4346350000000  0.4966900000000  0.5417540000000 1.0
C      1  0.4555490000000  0.4899360000000  0.4435900000000 1.0
C      1  0.5315130000000  0.5740460000000  0.4984310000000 1.0
C      1  0.5225780000000  0.5285720000000  0.4990850000000 1.0
C      1  0.4977020000000  0.5730640000000  0.4996620000000 1.0
C      1  0.4770940000000  0.4283040000000  0.4585870000000 1.0
C      1  0.4838730000000  0.4470680000000  0.5591470000000 1.0
C      1  0.4702850000000  0.5343310000000  0.5541420000000 1.0
C      1  0.5369790000000  0.4523280000000  0.5245270000000 1.0
C      1  0.4695120000000  0.5573750000000  0.5100210000000 1.0
C      1  0.5696870000000  0.5428710000000  0.4426560000000 1.0
C      1  0.4409070000000  0.4541880000000  0.4806650000000 1.0
C      1  0.5036090000000  0.4529320000000  0.4930730000000 1.0
C      1  0.4930100000000  0.4540070000000  0.4607550000000 1.0
C      1  0.4621510000000  0.5582570000000  0.5396290000000 1.0
C      1  0.4626940000000  0.4736470000000  0.4893300000000 1.0
C      1  0.5585220000000  0.4915600000000  0.4573460000000 1.0
C      1  0.5445800000000  0.5704600000000  0.4713710000000 1.0
C      1  0.5579080000000  0.4883850000000  0.5520090000000 1.0
C      1  0.5859920000000  0.4918540000000  0.5072850000000 1.0
C      1  0.5472680000000  0.5541840000000  0.5177430000000 1.0
C      1  0.4840940000000  0.5647060000000  0.4725220000000 1.0
C      1  0.4669240000000  0.5252730000000  0.5020960000000 1.0
C      1  0.4708240000000  0.5086500000000  0.4659340000000 1.0
C      1  0.4211930000000  0.4824170000000  0.5152040000000 1.0
C      1  0.4306780000000  0.5307910000000  0.4709960000000 1.0
C      1  0.4811170000000  0.4893090000000  0.5326090000000 1.0
C      1  0.5248210000000  0.4512060000000  0.4592910000000 1.0
C      1  0.5091130000000  0.4966110000000  0.5352840000000 1.0
C      1  0.5458580000000  0.5416680000000  0.5451840000000 1.0
C      1  0.5077930000000  0.5482100000000  0.5169570000000 1.0
C      1  0.5298810000000  0.4692190000000  0.4998320000000 1.0
C      1  0.5575060000000  0.5677280000000  0.4461370000000 1.0
C      1  0.5534720000000  0.4691950000000  0.4805410000000 1.0
C      1  0.5169320000000  0.5118140000000  0.5575020000000 1.0
C      1  0.5100370000000  0.4897880000000  0.4363720000000 1.0
C      1  0.4715040000000  0.5838070000000  0.4571310000000 1.0
C      1  0.5465490000000  0.5143300000000  0.5580230000000 1.0
C      1  0.4480120000000  0.5444650000000  0.4869110000000 1.0
C      1  0.5192940000000  0.4280610000000  0.5270550000000 1.0
C      1  0.5165270000000  0.5493960000000  0.5438310000000 1.0
C      1  0.5790780000000  0.4878220000000  0.5331160000000 1.0
C      1  0.5122270000000  0.4448840000000  0.5545310000000 1.0
END
