TITL C-2778437-8639-1164 0.00899745025865387 125000 -842.342310075356 0 0 148 (C1) n - 1
REM
REM in /home/nfs/bkarasulu/CARBON/AIRSS/Generating-Clusters/REBO/Only-C1/SD-CG/HFTN-CG
REM
REM
REM
REM
REM
REM ./C.cell (11c1c37f851c82e70ff6c80c92926a4b)
REM
REM compiler GCC version 9.2.1 20190827 (Red Hat 9.2.1-1)
REM options -cpp -mtune=generic -march=x86-64 -g -O0 -fpre-include=/usr/include/finclude/math-vector-fortran.h
REM seed 814126245 488136930 -779925462 492084539 27772011 -853859682 -751508681 -302743310 -235341622 1360606638 -554549086 -688721163 1600074952 2143877528 1674385805 -1371254702 -1512660002 -933443056 -341947800 538003056 1019999366 898369025 -988535514 -734706579 995589848 1009596319 5337990 873398115 340589576 -1935133747 -1347080893 -2059496332 1408535857
REM
CELL 1.54180   50.00000   50.00000   50.00000   90.00000   90.00000   90.00000
LATT -1
SFAC C  
C      1  0.5568020000000  0.4487310000000  0.4862030000000 1.0
C      1  0.5255110000000  0.5807550000000  0.5495110000000 1.0
C      1  0.5129340000000  0.5140100000000  0.6113370000000 1.0
C      1  0.4109400000000  0.4445300000000  0.4950290000000 1.0
C      1  0.4751290000000  0.5342010000000  0.4423070000000 1.0
C      1  0.5057470000000  0.5019300000000  0.5206260000000 1.0
C      1  0.4916620000000  0.4857080000000  0.4068390000000 1.0
C      1  0.5515500000000  0.5020930000000  0.5694610000000 1.0
C      1  0.5416950000000  0.4849500000000  0.4914270000000 1.0
C      1  0.5192130000000  0.5600340000000  0.4637730000000 1.0
C      1  0.4449500000000  0.4664780000000  0.5802240000000 1.0
C      1  0.4009220000000  0.4977210000000  0.4828770000000 1.0
C      1  0.4132050000000  0.5013730000000  0.5303490000000 1.0
C      1  0.4527250000000  0.4272230000000  0.4709590000000 1.0
C      1  0.4751190000000  0.4711590000000  0.5936760000000 1.0
C      1  0.5939040000000  0.4694630000000  0.4748770000000 1.0
C      1  0.4425890000000  0.4103640000000  0.4939460000000 1.0
C      1  0.5405670000000  0.5185520000000  0.5920220000000 1.0
C      1  0.4911080000000  0.5167370000000  0.5604430000000 1.0
C      1  0.4829610000000  0.4359280000000  0.5516380000000 1.0
C      1  0.4011840000000  0.4813130000000  0.5073100000000 1.0
C      1  0.4080580000000  0.4339550000000  0.4678900000000 1.0
C      1  0.5393570000000  0.5676780000000  0.4155890000000 1.0
C      1  0.5435040000000  0.5332120000000  0.4114180000000 1.0
C      1  0.5730660000000  0.5679210000000  0.4574940000000 1.0
C      1  0.5154800000000  0.4097420000000  0.4857250000000 1.0
C      1  0.4163730000000  0.4812100000000  0.5776630000000 1.0
C      1  0.5641020000000  0.4912320000000  0.4409630000000 1.0
C      1  0.4688880000000  0.5670520000000  0.5201070000000 1.0
C      1  0.5718620000000  0.5823040000000  0.5259280000000 1.0
C      1  0.5095280000000  0.5412270000000  0.4152150000000 1.0
C      1  0.4476750000000  0.4582600000000  0.4412080000000 1.0
C      1  0.4928050000000  0.5182150000000  0.4001250000000 1.0
C      1  0.5262800000000  0.4760040000000  0.5287430000000 1.0
C      1  0.5451810000000  0.4448540000000  0.4481260000000 1.0
C      1  0.4446370000000  0.5116800000000  0.4301640000000 1.0
C      1  0.5238260000000  0.4392280000000  0.5111580000000 1.0
C      1  0.4645160000000  0.4211410000000  0.4402940000000 1.0
C      1  0.4150300000000  0.5598460000000  0.4944010000000 1.0
C      1  0.4494140000000  0.4895230000000  0.3976240000000 1.0
C      1  0.5082980000000  0.5181080000000  0.6384620000000 1.0
C      1  0.5170150000000  0.5049960000000  0.4355220000000 1.0
C      1  0.5256620000000  0.4663780000000  0.6018800000000 1.0
C      1  0.5615440000000  0.5034710000000  0.5113000000000 1.0
C      1  0.4676590000000  0.4995150000000  0.4858970000000 1.0
C      1  0.4703910000000  0.5388400000000  0.5750270000000 1.0
C      1  0.5466740000000  0.4181680000000  0.4971980000000 1.0
C      1  0.4287270000000  0.4696190000000  0.5499090000000 1.0
C      1  0.5682600000000  0.5557270000000  0.4289330000000 1.0
C      1  0.5723380000000  0.4761790000000  0.5781870000000 1.0
C      1  0.5295610000000  0.5984310000000  0.4675120000000 1.0
C      1  0.4400180000000  0.5151690000000  0.4792660000000 1.0
C      1  0.4436680000000  0.5310220000000  0.4539760000000 1.0
C      1  0.4344060000000  0.4320570000000  0.5379250000000 1.0
C      1  0.4801590000000  0.4179330000000  0.6033820000000 1.0
C      1  0.4709770000000  0.5819260000000  0.4715880000000 1.0
C      1  0.5440880000000  0.5391270000000  0.5345460000000 1.0
C      1  0.4091480000000  0.5340940000000  0.5241470000000 1.0
C      1  0.5424710000000  0.5771330000000  0.4472200000000 1.0
C      1  0.4875420000000  0.4724590000000  0.4913510000000 1.0
C      1  0.4738730000000  0.5042270000000  0.5266890000000 1.0
C      1  0.4487440000000  0.4151330000000  0.5198660000000 1.0
C      1  0.4773960000000  0.5021420000000  0.4332140000000 1.0
C      1  0.4796800000000  0.4137690000000  0.5258890000000 1.0
C      1  0.5901060000000  0.4485380000000  0.5080370000000 1.0
C      1  0.5841670000000  0.5234100000000  0.4818100000000 1.0
C      1  0.5955720000000  0.5269400000000  0.5280940000000 1.0
C      1  0.5867220000000  0.4935880000000  0.5526370000000 1.0
C      1  0.4794920000000  0.5645430000000  0.5589740000000 1.0
C      1  0.4619470000000  0.4552910000000  0.4801650000000 1.0
C      1  0.5416730000000  0.4642490000000  0.5775160000000 1.0
C      1  0.4662600000000  0.4677010000000  0.4149680000000 1.0
C      1  0.5229110000000  0.5563860000000  0.4948360000000 1.0
C      1  0.5703450000000  0.4240970000000  0.4678530000000 1.0
C      1  0.4984090000000  0.4908090000000  0.4567740000000 1.0
C      1  0.4254820000000  0.4629480000000  0.4629560000000 1.0
C      1  0.5478080000000  0.5325800000000  0.4679670000000 1.0
C      1  0.5364040000000  0.4485200000000  0.5479050000000 1.0
C      1  0.4423450000000  0.5693120000000  0.5400460000000 1.0
C      1  0.4475260000000  0.5203730000000  0.5122410000000 1.0
C      1  0.4314830000000  0.4283940000000  0.4442040000000 1.0
C      1  0.5325090000000  0.5882360000000  0.4966720000000 1.0
C      1  0.4109090000000  0.5265620000000  0.4913090000000 1.0
C      1  0.4270660000000  0.5230120000000  0.5508680000000 1.0
C      1  0.5615160000000  0.5240000000000  0.4378280000000 1.0
C      1  0.4165500000000  0.5663880000000  0.5265840000000 1.0
C      1  0.5177230000000  0.4622130000000  0.4912050000000 1.0
C      1  0.5830820000000  0.5506680000000  0.4755140000000 1.0
C      1  0.5017710000000  0.5608310000000  0.5418130000000 1.0
C      1  0.4157040000000  0.4975450000000  0.4321140000000 1.0
C      1  0.5765520000000  0.4686240000000  0.5392880000000 1.0
C      1  0.4835370000000  0.5877270000000  0.4996800000000 1.0
C      1  0.5660650000000  0.5173130000000  0.5423790000000 1.0
C      1  0.5250460000000  0.5071610000000  0.4021060000000 1.0
C      1  0.4421330000000  0.5507560000000  0.5623820000000 1.0
C      1  0.4616220000000  0.5210110000000  0.4019050000000 1.0
C      1  0.4708240000000  0.4380490000000  0.5896080000000 1.0
C      1  0.5032130000000  0.4862960000000  0.6008630000000 1.0
C      1  0.4999580000000  0.4899940000000  0.5689980000000 1.0
C      1  0.5098280000000  0.5850340000000  0.5193870000000 1.0
C      1  0.5250800000000  0.5659330000000  0.5805580000000 1.0
C      1  0.4364470000000  0.4671070000000  0.4948710000000 1.0
C      1  0.5806290000000  0.4469850000000  0.5624600000000 1.0
C      1  0.5610910000000  0.5934600000000  0.5063320000000 1.0
C      1  0.5217630000000  0.4371740000000  0.4709030000000 1.0
C      1  0.5717980000000  0.4286590000000  0.5171540000000 1.0
C      1  0.4835090000000  0.4434100000000  0.4320180000000 1.0
C      1  0.5196700000000  0.5426440000000  0.5938850000000 1.0
C      1  0.5120560000000  0.5304250000000  0.5383870000000 1.0
C      1  0.5993890000000  0.5133060000000  0.5040600000000 1.0
C      1  0.5623830000000  0.4317340000000  0.5438050000000 1.0
C      1  0.4305290000000  0.5559480000000  0.4557020000000 1.0
C      1  0.5753360000000  0.5777530000000  0.5922080000000 1.0
C      1  0.5464290000000  0.5326800000000  0.5013660000000 1.0
C      1  0.5321420000000  0.4561200000000  0.4186810000000 1.0
C      1  0.4223210000000  0.4889200000000  0.4042490000000 1.0
C      1  0.4396570000000  0.4872480000000  0.5158840000000 1.0
C      1  0.5229400000000  0.5338830000000  0.4456170000000 1.0
C      1  0.4140070000000  0.4558630000000  0.5259670000000 1.0
C      1  0.5125740000000  0.4388790000000  0.4383630000000 1.0
C      1  0.5097670000000  0.5709910000000  0.4061710000000 1.0
C      1  0.5606520000000  0.5025400000000  0.4714350000000 1.0
C      1  0.4775290000000  0.4677440000000  0.4532250000000 1.0
C      1  0.5878980000000  0.4824850000000  0.5036350000000 1.0
C      1  0.5405040000000  0.4860480000000  0.4225180000000 1.0
C      1  0.5545410000000  0.4646920000000  0.5162000000000 1.0
C      1  0.5541440000000  0.5665270000000  0.5444460000000 1.0
C      1  0.5070620000000  0.5004540000000  0.4865910000000 1.0
C      1  0.4857990000000  0.5247080000000  0.4945980000000 1.0
C      1  0.5678240000000  0.4653490000000  0.4586380000000 1.0
C      1  0.4847080000000  0.4074370000000  0.4926230000000 1.0
C      1  0.4460630000000  0.5503940000000  0.5050720000000 1.0
C      1  0.5545010000000  0.5721630000000  0.5754840000000 1.0
C      1  0.5129810000000  0.4076170000000  0.5198260000000 1.0
C      1  0.5268780000000  0.4856450000000  0.5580850000000 1.0
C      1  0.5114240000000  0.4315620000000  0.5421210000000 1.0
C      1  0.4594840000000  0.4778780000000  0.5412370000000 1.0
C      1  0.6180940000000  0.4642410000000  0.4658010000000 1.0
C      1  0.4586680000000  0.5511780000000  0.4175160000000 1.0
C      1  0.4508710000000  0.4384900000000  0.5622890000000 1.0
C      1  0.4418630000000  0.5714070000000  0.4783090000000 1.0
C      1  0.4900430000000  0.5599580000000  0.4564120000000 1.0
C      1  0.5133420000000  0.4691240000000  0.3987050000000 1.0
C      1  0.4577940000000  0.5155460000000  0.5541060000000 1.0
C      1  0.4091210000000  0.4874910000000  0.4576240000000 1.0
C      1  0.4792800000000  0.4664070000000  0.5598630000000 1.0
C      1  0.4632060000000  0.5720350000000  0.4393840000000 1.0
C      1  0.4936540000000  0.5495040000000  0.5045790000000 1.0
END
