TITL C-2778424-3986-640 -0.00571439379858861 125000 -218.917637904402 0 0 39 (C1) n - 1
REM
REM in /home/nfs/bkarasulu/CARBON/AIRSS/Generating-Clusters/REBO/Only-C1/SD-CG/HFTN-CG
REM
REM
REM
REM
REM
REM ./C.cell (11c1c37f851c82e70ff6c80c92926a4b)
REM
REM compiler GCC version 9.2.1 20190827 (Red Hat 9.2.1-1)
REM options -cpp -mtune=generic -march=x86-64 -g -O0 -fpre-include=/usr/include/finclude/math-vector-fortran.h
REM seed -736745785 -1484562810 1148449145 1182808433 845510128 -1630484551 2100947064 -794504432 -1742838013 1468507424 -1845747195 1651688513 1663067615 -2082049080 689097526 -1933226090 892303723 1355806376 690330438 -1429083356 -214927683 -1959868500 555548166 1947835048 -603732705 1995248092 1399611855 125302159 -670014802 -2111918776 1168926178 196407672 -1111500681
REM
CELL 1.54180   50.00000   50.00000   50.00000   90.00000   90.00000   90.00000
LATT -1
SFAC C  
C      1  0.5461930000000  0.5444520000000  0.4826530000000 1.0
C      1  0.5057840000000  0.4595930000000  0.4756030000000 1.0
C      1  0.5780660000000  0.4251930000000  0.5110050000000 1.0
C      1  0.4453350000000  0.4893890000000  0.4957050000000 1.0
C      1  0.5237430000000  0.5100070000000  0.4441500000000 1.0
C      1  0.4889540000000  0.4497560000000  0.5204150000000 1.0
C      1  0.5647520000000  0.5164790000000  0.5350050000000 1.0
C      1  0.5325090000000  0.4665570000000  0.4666020000000 1.0
C      1  0.5054230000000  0.4783060000000  0.5545240000000 1.0
C      1  0.5496060000000  0.4978410000000  0.5207400000000 1.0
C      1  0.4925570000000  0.5228690000000  0.4392860000000 1.0
C      1  0.4863810000000  0.5426780000000  0.5235590000000 1.0
C      1  0.4376220000000  0.5403590000000  0.5015130000000 1.0
C      1  0.5457640000000  0.5052280000000  0.4903940000000 1.0
C      1  0.4729720000000  0.5639050000000  0.4753460000000 1.0
C      1  0.4619770000000  0.5563360000000  0.5055960000000 1.0
C      1  0.4900880000000  0.4419930000000  0.4620620000000 1.0
C      1  0.4666880000000  0.5345960000000  0.4589100000000 1.0
C      1  0.4829400000000  0.4599450000000  0.5461030000000 1.0
C      1  0.4446210000000  0.5198310000000  0.4802260000000 1.0
C      1  0.4978590000000  0.5580040000000  0.4976640000000 1.0
C      1  0.4645950000000  0.4947900000000  0.4710550000000 1.0
C      1  0.4567290000000  0.4747420000000  0.5467070000000 1.0
C      1  0.5020960000000  0.4978500000000  0.5086740000000 1.0
C      1  0.5621520000000  0.4463000000000  0.5046370000000 1.0
C      1  0.4981480000000  0.5492190000000  0.4587910000000 1.0
C      1  0.4144350000000  0.5428170000000  0.5137120000000 1.0
C      1  0.5373940000000  0.4952210000000  0.4648310000000 1.0
C      1  0.5531030000000  0.4646980000000  0.5236510000000 1.0
C      1  0.5532490000000  0.4508530000000  0.4780900000000 1.0
C      1  0.4913210000000  0.5044780000000  0.5563010000000 1.0
C      1  0.4899830000000  0.5025440000000  0.4639360000000 1.0
C      1  0.4990690000000  0.4690570000000  0.5022650000000 1.0
C      1  0.5067220000000  0.5114750000000  0.4845960000000 1.0
C      1  0.4441760000000  0.4784480000000  0.5211060000000 1.0
C      1  0.4952830000000  0.5167760000000  0.5304000000000 1.0
C      1  0.5295160000000  0.4781240000000  0.5401690000000 1.0
C      1  0.4631390000000  0.4990170000000  0.5620490000000 1.0
C      1  0.5190560000000  0.5402710000000  0.4819680000000 1.0
END
