TITL C-2778434-4341-329 0.00209625598687097 125000 -409.763502965731 0 0 71 (C1) n - 1
REM
REM in /home/nfs/bkarasulu/CARBON/AIRSS/Generating-Clusters/REBO/Only-C1/SD-CG/HFTN-CG
REM
REM
REM
REM
REM
REM ./C.cell (11c1c37f851c82e70ff6c80c92926a4b)
REM
REM compiler GCC version 9.2.1 20190827 (Red Hat 9.2.1-1)
REM options -cpp -mtune=generic -march=x86-64 -g -O0 -fpre-include=/usr/include/finclude/math-vector-fortran.h
REM seed -203216322 -666110844 -1879236516 -1784645253 1937749140 521597311 -53557729 -852171076 -1639746164 -1230131403 43994013 -1090720091 323991859 -1937539538 -1717822146 -330997411 1652599274 962876163 1203651496 -485233338 -1414063708 -815823358 -1954143164 -222121040 496484207 -808425474 -1522052331 1836368670 -1307930122 -1093869657 839033803 -1217207959 1321777736
REM
CELL 1.54180   50.00000   50.00000   50.00000   90.00000   90.00000   90.00000
LATT -1
SFAC C  
C      1  0.4350490000000  0.5285310000000  0.5076160000000 1.0
C      1  0.4457300000000  0.4815900000000  0.5044970000000 1.0
C      1  0.5697160000000  0.5087530000000  0.4793950000000 1.0
C      1  0.5143590000000  0.5168370000000  0.4530770000000 1.0
C      1  0.5710920000000  0.4765530000000  0.4798530000000 1.0
C      1  0.4922490000000  0.4311730000000  0.5183150000000 1.0
C      1  0.5037470000000  0.5263980000000  0.4783570000000 1.0
C      1  0.5228840000000  0.4322670000000  0.5559760000000 1.0
C      1  0.5142510000000  0.5681880000000  0.4544170000000 1.0
C      1  0.4920900000000  0.4813890000000  0.5124870000000 1.0
C      1  0.4830910000000  0.5829170000000  0.4987330000000 1.0
C      1  0.5306550000000  0.5947530000000  0.5067220000000 1.0
C      1  0.4916310000000  0.5142180000000  0.4345490000000 1.0
C      1  0.4859820000000  0.5391200000000  0.5180860000000 1.0
C      1  0.5084140000000  0.5057920000000  0.5708260000000 1.0
C      1  0.5404960000000  0.4551480000000  0.5515460000000 1.0
C      1  0.5704000000000  0.5832510000000  0.5616930000000 1.0
C      1  0.4798900000000  0.5406020000000  0.4304810000000 1.0
C      1  0.5331110000000  0.4984750000000  0.4230150000000 1.0
C      1  0.4340370000000  0.4450340000000  0.4683430000000 1.0
C      1  0.4500510000000  0.4491070000000  0.4982810000000 1.0
C      1  0.4734200000000  0.4563630000000  0.5181170000000 1.0
C      1  0.4720270000000  0.4849490000000  0.4746310000000 1.0
C      1  0.4523920000000  0.5051820000000  0.5168670000000 1.0
C      1  0.4328720000000  0.5019440000000  0.5597730000000 1.0
C      1  0.4611310000000  0.4286500000000  0.4746040000000 1.0
C      1  0.5551870000000  0.5261470000000  0.4894560000000 1.0
C      1  0.4775760000000  0.5145300000000  0.5292180000000 1.0
C      1  0.5100380000000  0.5772670000000  0.5067750000000 1.0
C      1  0.5314670000000  0.5105280000000  0.5474220000000 1.0
C      1  0.4276310000000  0.5287910000000  0.4805760000000 1.0
C      1  0.4371830000000  0.4763920000000  0.5508270000000 1.0
C      1  0.5219990000000  0.4988790000000  0.5087080000000 1.0
C      1  0.5112000000000  0.5495830000000  0.5131940000000 1.0
C      1  0.5041200000000  0.4668870000000  0.5629470000000 1.0
C      1  0.4871870000000  0.5066640000000  0.4912470000000 1.0
C      1  0.4391020000000  0.4764570000000  0.4716000000000 1.0
C      1  0.5512710000000  0.4565760000000  0.5250430000000 1.0
C      1  0.4994770000000  0.5549440000000  0.4753990000000 1.0
C      1  0.4806360000000  0.4843740000000  0.4358830000000 1.0
C      1  0.4594920000000  0.5467430000000  0.4503030000000 1.0
C      1  0.4871640000000  0.4344830000000  0.4673370000000 1.0
C      1  0.5321840000000  0.4811430000000  0.5718590000000 1.0
C      1  0.4682780000000  0.5627910000000  0.4754410000000 1.0
C      1  0.5121130000000  0.4842810000000  0.5376560000000 1.0
C      1  0.4616230000000  0.5584010000000  0.5085380000000 1.0
C      1  0.4524600000000  0.4976420000000  0.4501050000000 1.0
C      1  0.5327410000000  0.5542520000000  0.4310130000000 1.0
C      1  0.5381430000000  0.4848590000000  0.4847510000000 1.0
C      1  0.5011070000000  0.4363790000000  0.5769870000000 1.0
C      1  0.5234490000000  0.4678060000000  0.4639640000000 1.0
C      1  0.4914610000000  0.4637280000000  0.4610630000000 1.0
C      1  0.5006280000000  0.5612080000000  0.4260270000000 1.0
C      1  0.5596880000000  0.5061250000000  0.5313400000000 1.0
C      1  0.5590030000000  0.4845860000000  0.5133510000000 1.0
C      1  0.5611490000000  0.5617350000000  0.5515580000000 1.0
C      1  0.5505490000000  0.5370800000000  0.5399450000000 1.0
C      1  0.5334050000000  0.5293760000000  0.5122960000000 1.0
C      1  0.4822570000000  0.5131290000000  0.5609000000000 1.0
C      1  0.4476450000000  0.5409710000000  0.5340760000000 1.0
C      1  0.5377420000000  0.4386880000000  0.4691980000000 1.0
C      1  0.5539000000000  0.4285940000000  0.4484530000000 1.0
C      1  0.5381000000000  0.5259720000000  0.4355320000000 1.0
C      1  0.5127250000000  0.4201530000000  0.5322290000000 1.0
C      1  0.5147450000000  0.4814370000000  0.4346220000000 1.0
C      1  0.5551290000000  0.4500490000000  0.4940720000000 1.0
C      1  0.5109730000000  0.4220850000000  0.4730610000000 1.0
C      1  0.4586580000000  0.4591800000000  0.5454660000000 1.0
C      1  0.4421440000000  0.5256390000000  0.4563660000000 1.0
C      1  0.4512300000000  0.5239400000000  0.5574920000000 1.0
C      1  0.4752740000000  0.4523410000000  0.5664450000000 1.0
END
