TITL C-2778435-5768-919 -0.0041105030986305 125000 -673.816985563832 0 0 119 (C1) n - 1
REM
REM in /home/nfs/bkarasulu/CARBON/AIRSS/Generating-Clusters/REBO/Only-C1/SD-CG/HFTN-CG
REM
REM
REM
REM
REM
REM ./C.cell (11c1c37f851c82e70ff6c80c92926a4b)
REM
REM compiler GCC version 9.2.1 20190827 (Red Hat 9.2.1-1)
REM options -cpp -mtune=generic -march=x86-64 -g -O0 -fpre-include=/usr/include/finclude/math-vector-fortran.h
REM seed 447995267 -554729183 733769297 -116502668 -1381664800 363912584 311667223 1794227317 -1087466161 -1566528285 1810541549 -196222921 -779371608 1821970824 858485830 -1731206282 1777965822 221031161 1936644041 1899133058 1606523800 -2139953164 374410659 700863723 -95664032 -2023701128 -791523723 -1951369461 -141736064 1031749293 609174106 1033267794 -1838835774
REM
CELL 1.54180   50.00000   50.00000   50.00000   90.00000   90.00000   90.00000
LATT -1
SFAC C  
C      1  0.5678240000000  0.4977210000000  0.4359070000000 1.0
C      1  0.5441550000000  0.4227520000000  0.5143840000000 1.0
C      1  0.5124720000000  0.4812590000000  0.4094140000000 1.0
C      1  0.4511180000000  0.4458560000000  0.5699970000000 1.0
C      1  0.4868250000000  0.5580680000000  0.4496270000000 1.0
C      1  0.5489480000000  0.4273720000000  0.4484560000000 1.0
C      1  0.5128290000000  0.4986170000000  0.4790950000000 1.0
C      1  0.4633000000000  0.5246300000000  0.4171090000000 1.0
C      1  0.5525080000000  0.5118980000000  0.5641840000000 1.0
C      1  0.5006160000000  0.5308550000000  0.5380250000000 1.0
C      1  0.4456450000000  0.4901500000000  0.4854580000000 1.0
C      1  0.4548190000000  0.5132830000000  0.4543650000000 1.0
C      1  0.4950290000000  0.5011720000000  0.5770860000000 1.0
C      1  0.5670600000000  0.4491720000000  0.4491040000000 1.0
C      1  0.5310910000000  0.5944830000000  0.5269190000000 1.0
C      1  0.5590430000000  0.4937470000000  0.5292030000000 1.0
C      1  0.4776270000000  0.5316300000000  0.5006490000000 1.0
C      1  0.5706960000000  0.4665400000000  0.4781070000000 1.0
C      1  0.4930290000000  0.4187990000000  0.5195550000000 1.0
C      1  0.4600060000000  0.5459310000000  0.4766070000000 1.0
C      1  0.5216430000000  0.4713260000000  0.5769290000000 1.0
C      1  0.4762770000000  0.5353840000000  0.5858420000000 1.0
C      1  0.5165680000000  0.5587950000000  0.4963630000000 1.0
C      1  0.4942850000000  0.5235950000000  0.4310790000000 1.0
C      1  0.5162450000000  0.5153580000000  0.4084280000000 1.0
C      1  0.4450600000000  0.4420570000000  0.4449520000000 1.0
C      1  0.4663520000000  0.4132500000000  0.4990400000000 1.0
C      1  0.4501410000000  0.5490680000000  0.5329690000000 1.0
C      1  0.5441240000000  0.5726190000000  0.4664720000000 1.0
C      1  0.5041450000000  0.5146440000000  0.5083430000000 1.0
C      1  0.4400790000000  0.5226900000000  0.4918910000000 1.0
C      1  0.5663240000000  0.4664700000000  0.4264710000000 1.0
C      1  0.5918770000000  0.5127940000000  0.5180290000000 1.0
C      1  0.5699150000000  0.5366090000000  0.5070530000000 1.0
C      1  0.5380380000000  0.5125060000000  0.4414300000000 1.0
C      1  0.5830790000000  0.5057960000000  0.5501470000000 1.0
C      1  0.5723080000000  0.5061920000000  0.4924730000000 1.0
C      1  0.5216860000000  0.5528080000000  0.5638070000000 1.0
C      1  0.4960760000000  0.4197170000000  0.4574260000000 1.0
C      1  0.4911050000000  0.4042630000000  0.4827520000000 1.0
C      1  0.5173160000000  0.5825020000000  0.4573960000000 1.0
C      1  0.4254350000000  0.5006760000000  0.4426370000000 1.0
C      1  0.5321280000000  0.4243880000000  0.4765700000000 1.0
C      1  0.5583870000000  0.5810350000000  0.4901020000000 1.0
C      1  0.4605770000000  0.4605040000000  0.4850290000000 1.0
C      1  0.4672310000000  0.5024620000000  0.5161740000000 1.0
C      1  0.4698860000000  0.5242790000000  0.5391570000000 1.0
C      1  0.4608980000000  0.5427300000000  0.4439030000000 1.0
C      1  0.5186000000000  0.5131110000000  0.5609350000000 1.0
C      1  0.4217780000000  0.4467370000000  0.5000550000000 1.0
C      1  0.4661580000000  0.5760310000000  0.5230350000000 1.0
C      1  0.5517680000000  0.5485050000000  0.4517020000000 1.0
C      1  0.4537590000000  0.4649190000000  0.5153840000000 1.0
C      1  0.5560910000000  0.5822850000000  0.5189650000000 1.0
C      1  0.5017010000000  0.5501100000000  0.4747990000000 1.0
C      1  0.4168110000000  0.5459620000000  0.4870060000000 1.0
C      1  0.5715990000000  0.5402090000000  0.5620610000000 1.0
C      1  0.5151900000000  0.4942900000000  0.5332740000000 1.0
C      1  0.5693900000000  0.5290330000000  0.4599490000000 1.0
C      1  0.4329120000000  0.5318680000000  0.5522870000000 1.0
C      1  0.5310910000000  0.4713910000000  0.4838560000000 1.0
C      1  0.4700720000000  0.4943580000000  0.5550190000000 1.0
C      1  0.4128290000000  0.4676470000000  0.4816740000000 1.0
C      1  0.5409660000000  0.5130970000000  0.4934800000000 1.0
C      1  0.4907250000000  0.5161880000000  0.6075280000000 1.0
C      1  0.5388340000000  0.5177230000000  0.5270490000000 1.0
C      1  0.5087020000000  0.4719260000000  0.6006830000000 1.0
C      1  0.5298250000000  0.5412540000000  0.4265330000000 1.0
C      1  0.4511610000000  0.4945270000000  0.4199420000000 1.0
C      1  0.5594770000000  0.4375320000000  0.4916820000000 1.0
C      1  0.5151690000000  0.4655810000000  0.5457130000000 1.0
C      1  0.5057320000000  0.4336630000000  0.5463420000000 1.0
C      1  0.4842250000000  0.4834350000000  0.4934880000000 1.0
C      1  0.4937770000000  0.5896500000000  0.4726920000000 1.0
C      1  0.4658110000000  0.4982870000000  0.5945610000000 1.0
C      1  0.4361490000000  0.4921460000000  0.5181180000000 1.0
C      1  0.4028240000000  0.4937100000000  0.4872050000000 1.0
C      1  0.4363430000000  0.4927480000000  0.5591240000000 1.0
C      1  0.5380340000000  0.5438080000000  0.5420640000000 1.0
C      1  0.4097640000000  0.5187010000000  0.4670390000000 1.0
C      1  0.4996180000000  0.4554790000000  0.4275330000000 1.0
C      1  0.5402450000000  0.4863530000000  0.4205490000000 1.0
C      1  0.4635550000000  0.5770520000000  0.4834000000000 1.0
C      1  0.5480630000000  0.4781760000000  0.5643580000000 1.0
C      1  0.4867540000000  0.4437720000000  0.4794400000000 1.0
C      1  0.5101970000000  0.5653180000000  0.4317920000000 1.0
C      1  0.4851090000000  0.4925900000000  0.4248770000000 1.0
C      1  0.4923440000000  0.5519290000000  0.5708860000000 1.0
C      1  0.4832660000000  0.5962990000000  0.5033280000000 1.0
C      1  0.4751510000000  0.4525410000000  0.4487060000000 1.0
C      1  0.5392390000000  0.4344890000000  0.5398130000000 1.0
C      1  0.5573730000000  0.4560280000000  0.5477770000000 1.0
C      1  0.4763060000000  0.4455160000000  0.5586940000000 1.0
C      1  0.5058880000000  0.5789250000000  0.5175110000000 1.0
C      1  0.4093480000000  0.5192540000000  0.5068650000000 1.0
C      1  0.5409720000000  0.5464110000000  0.4996310000000 1.0
C      1  0.5832380000000  0.4585930000000  0.5351840000000 1.0
C      1  0.5107530000000  0.5250750000000  0.4577400000000 1.0
C      1  0.5179790000000  0.4294720000000  0.4361680000000 1.0
C      1  0.4305250000000  0.4622810000000  0.5572670000000 1.0
C      1  0.4415040000000  0.4257600000000  0.4943880000000 1.0
C      1  0.4911810000000  0.5620980000000  0.5397580000000 1.0
C      1  0.5036120000000  0.4804090000000  0.4510850000000 1.0
C      1  0.4254720000000  0.4683780000000  0.4539640000000 1.0
C      1  0.5182080000000  0.4072200000000  0.5012090000000 1.0
C      1  0.4948690000000  0.4505770000000  0.5118550000000 1.0
C      1  0.4770340000000  0.4676090000000  0.5351430000000 1.0
C      1  0.5245170000000  0.4607910000000  0.5136290000000 1.0
C      1  0.5797290000000  0.4965020000000  0.4645970000000 1.0
C      1  0.4172460000000  0.5097090000000  0.5364260000000 1.0
C      1  0.5638050000000  0.5609640000000  0.5379850000000 1.0
C      1  0.4259340000000  0.4552640000000  0.5297140000000 1.0
C      1  0.5969670000000  0.4819660000000  0.5319620000000 1.0
C      1  0.4479430000000  0.5195720000000  0.5769610000000 1.0
C      1  0.4576250000000  0.4791370000000  0.4497720000000 1.0
C      1  0.5209180000000  0.4526940000000  0.4610760000000 1.0
C      1  0.5548360000000  0.4735050000000  0.5075480000000 1.0
C      1  0.4393190000000  0.5646860000000  0.5045600000000 1.0
C      1  0.4742660000000  0.5087270000000  0.4774890000000 1.0
END
