TITL C-2778430-5657-49 -0.00233036315943763 125000 -384.946105399132 0 0 66 (C1) n - 1
REM
REM in /home/nfs/bkarasulu/CARBON/AIRSS/Generating-Clusters/REBO/Only-C1/SD-CG/HFTN-CG
REM
REM
REM
REM
REM
REM ./C.cell (11c1c37f851c82e70ff6c80c92926a4b)
REM
REM compiler GCC version 9.2.1 20190827 (Red Hat 9.2.1-1)
REM options -cpp -mtune=generic -march=x86-64 -g -O0 -fpre-include=/usr/include/finclude/math-vector-fortran.h
REM seed -2064085803 -1254922479 1948025830 -2140659635 -1855970706 87412586 1135414206 1521521918 1688347297 22002941 355439177 -1229979091 -406680859 25060412 1014969284 -683219355 861034807 78505985 -170986824 -1342425502 -1136640964 -1440456842 1154239425 -554861352 649375081 1440296819 1148916605 -901033817 -2048077479 1488856980 447749443 -1296000458 -1778704160
REM
CELL 1.54180   50.00000   50.00000   50.00000   90.00000   90.00000   90.00000
LATT -1
SFAC C  
C      1  0.5728290000000  0.5043180000000  0.5249200000000 1.0
C      1  0.4829450000000  0.5231020000000  0.4845400000000 1.0
C      1  0.4367230000000  0.5244600000000  0.5020420000000 1.0
C      1  0.4155330000000  0.4531810000000  0.5045630000000 1.0
C      1  0.5095470000000  0.4628120000000  0.4883670000000 1.0
C      1  0.5048090000000  0.4994540000000  0.4733770000000 1.0
C      1  0.4382920000000  0.5347150000000  0.4567290000000 1.0
C      1  0.5355530000000  0.5329590000000  0.5407370000000 1.0
C      1  0.4690100000000  0.5036360000000  0.5343290000000 1.0
C      1  0.4055160000000  0.4675180000000  0.4831970000000 1.0
C      1  0.4540680000000  0.5205060000000  0.5511040000000 1.0
C      1  0.5143650000000  0.5354780000000  0.5591760000000 1.0
C      1  0.4594770000000  0.5157310000000  0.5786360000000 1.0
C      1  0.4525470000000  0.4816630000000  0.4805020000000 1.0
C      1  0.4398570000000  0.4477550000000  0.5155660000000 1.0
C      1  0.5323140000000  0.4357380000000  0.5207700000000 1.0
C      1  0.5117180000000  0.4565950000000  0.5653350000000 1.0
C      1  0.5116830000000  0.5063800000000  0.5062600000000 1.0
C      1  0.5138430000000  0.5107250000000  0.5783030000000 1.0
C      1  0.5055250000000  0.4590710000000  0.4543030000000 1.0
C      1  0.5371230000000  0.4595150000000  0.4597120000000 1.0
C      1  0.5300630000000  0.4900140000000  0.4029430000000 1.0
C      1  0.5015320000000  0.5462400000000  0.4543630000000 1.0
C      1  0.4874710000000  0.4916890000000  0.5179450000000 1.0
C      1  0.4420960000000  0.5426760000000  0.5381460000000 1.0
C      1  0.4679430000000  0.4448870000000  0.5142610000000 1.0
C      1  0.4435930000000  0.5034920000000  0.4528680000000 1.0
C      1  0.4854490000000  0.4392700000000  0.4671690000000 1.0
C      1  0.5825730000000  0.5275110000000  0.5077380000000 1.0
C      1  0.4861230000000  0.4662880000000  0.5061850000000 1.0
C      1  0.4943660000000  0.5668790000000  0.5259230000000 1.0
C      1  0.4731080000000  0.5661260000000  0.5058110000000 1.0
C      1  0.4954840000000  0.5558460000000  0.5524920000000 1.0
C      1  0.5102800000000  0.5269900000000  0.4282230000000 1.0
C      1  0.4584570000000  0.5083140000000  0.4960920000000 1.0
C      1  0.4796950000000  0.4191880000000  0.5089560000000 1.0
C      1  0.4968400000000  0.4825590000000  0.4380580000000 1.0
C      1  0.4764320000000  0.4991080000000  0.4536320000000 1.0
C      1  0.5467620000000  0.5120240000000  0.4532150000000 1.0
C      1  0.4828120000000  0.5028420000000  0.5870420000000 1.0
C      1  0.5232560000000  0.4403980000000  0.5469170000000 1.0
C      1  0.4973960000000  0.4205960000000  0.4862890000000 1.0
C      1  0.5437810000000  0.4349520000000  0.4724370000000 1.0
C      1  0.4224010000000  0.4833360000000  0.4690520000000 1.0
C      1  0.5299220000000  0.4901370000000  0.4591650000000 1.0
C      1  0.5633430000000  0.5489540000000  0.5051100000000 1.0
C      1  0.5342280000000  0.5376860000000  0.4582210000000 1.0
C      1  0.4269640000000  0.5403240000000  0.4812920000000 1.0
C      1  0.5631390000000  0.5074230000000  0.5544020000000 1.0
C      1  0.4479850000000  0.5596250000000  0.5173420000000 1.0
C      1  0.5442530000000  0.5479730000000  0.4842500000000 1.0
C      1  0.4636250000000  0.4538640000000  0.4755380000000 1.0
C      1  0.5363240000000  0.5072240000000  0.5244410000000 1.0
C      1  0.4705930000000  0.5326970000000  0.4554390000000 1.0
C      1  0.5344970000000  0.4606030000000  0.5026380000000 1.0
C      1  0.5751740000000  0.4926550000000  0.4867540000000 1.0
C      1  0.5021840000000  0.4791960000000  0.5775210000000 1.0
C      1  0.5452100000000  0.5089810000000  0.5712370000000 1.0
C      1  0.5729980000000  0.5073320000000  0.4636640000000 1.0
C      1  0.5132370000000  0.5358470000000  0.4919630000000 1.0
C      1  0.5177530000000  0.5613560000000  0.5106960000000 1.0
C      1  0.5515120000000  0.5540240000000  0.5306910000000 1.0
C      1  0.5126680000000  0.4993150000000  0.4215940000000 1.0
C      1  0.4837720000000  0.5624780000000  0.4785330000000 1.0
C      1  0.5531960000000  0.4828020000000  0.5088220000000 1.0
C      1  0.5262290000000  0.4229710000000  0.4924670000000 1.0
END
