TITL C-2778424-3986-584 -0.00465697191920968 125000 -761.730333270872 0 0 131 (C1) n - 1
REM
REM in /home/nfs/bkarasulu/CARBON/AIRSS/Generating-Clusters/REBO/Only-C1/SD-CG/HFTN-CG
REM
REM
REM
REM
REM
REM ./C.cell (11c1c37f851c82e70ff6c80c92926a4b)
REM
REM compiler GCC version 9.2.1 20190827 (Red Hat 9.2.1-1)
REM options -cpp -mtune=generic -march=x86-64 -g -O0 -fpre-include=/usr/include/finclude/math-vector-fortran.h
REM seed -2010951245 -2082349742 -490654214 1965137393 -1192289475 -1044649232 1937048905 -1947455209 936965386 1397160785 754400814 -1979785928 1324667680 -265965366 1847072029 -909024830 -1785035024 -19259730 586406383 -1260302772 -182212366 -1012515150 -1746929583 2032650822 -300750512 1274231228 -1154880417 -1831849978 -774868187 2143574655 834609350 1387919867 -844550177
REM
CELL 1.54180   50.00000   50.00000   50.00000   90.00000   90.00000   90.00000
LATT -1
SFAC C  
C      1  0.4862870000000  0.5790750000000  0.5095820000000 1.0
C      1  0.4596200000000  0.5614180000000  0.5590800000000 1.0
C      1  0.5327760000000  0.4182910000000  0.4464090000000 1.0
C      1  0.5128250000000  0.4631870000000  0.5425580000000 1.0
C      1  0.5760240000000  0.4626860000000  0.4878760000000 1.0
C      1  0.4483060000000  0.5721730000000  0.5199340000000 1.0
C      1  0.4189700000000  0.5114560000000  0.5251650000000 1.0
C      1  0.5571050000000  0.5100910000000  0.4722410000000 1.0
C      1  0.4596210000000  0.5298950000000  0.4561150000000 1.0
C      1  0.4580970000000  0.4660640000000  0.6189290000000 1.0
C      1  0.5611760000000  0.5271700000000  0.4243240000000 1.0
C      1  0.4789100000000  0.5198920000000  0.5411910000000 1.0
C      1  0.4937060000000  0.5466490000000  0.4684120000000 1.0
C      1  0.5343750000000  0.5579560000000  0.5226960000000 1.0
C      1  0.4626510000000  0.4240550000000  0.4742190000000 1.0
C      1  0.4903320000000  0.4279380000000  0.4244090000000 1.0
C      1  0.4429830000000  0.4807000000000  0.5715300000000 1.0
C      1  0.5083970000000  0.6096740000000  0.4704770000000 1.0
C      1  0.5007710000000  0.4674820000000  0.5674240000000 1.0
C      1  0.5971520000000  0.5016560000000  0.4443450000000 1.0
C      1  0.5274300000000  0.4461480000000  0.4367960000000 1.0
C      1  0.4410010000000  0.4977610000000  0.4708900000000 1.0
C      1  0.4613190000000  0.4370940000000  0.4283630000000 1.0
C      1  0.5054790000000  0.5985400000000  0.5198570000000 1.0
C      1  0.5216750000000  0.5113670000000  0.5369990000000 1.0
C      1  0.5134620000000  0.4656790000000  0.4608910000000 1.0
C      1  0.5290820000000  0.4772470000000  0.4837560000000 1.0
C      1  0.4967740000000  0.5158740000000  0.4674870000000 1.0
C      1  0.4831430000000  0.5247520000000  0.5019970000000 1.0
C      1  0.4785060000000  0.4451990000000  0.5756840000000 1.0
C      1  0.5054310000000  0.4415560000000  0.5281450000000 1.0
C      1  0.5819250000000  0.4579380000000  0.5396730000000 1.0
C      1  0.4692030000000  0.4759250000000  0.4455220000000 1.0
C      1  0.4329240000000  0.5402480000000  0.5568790000000 1.0
C      1  0.5431750000000  0.4390510000000  0.5154250000000 1.0
C      1  0.6209300000000  0.4907930000000  0.4424990000000 1.0
C      1  0.5802080000000  0.5015110000000  0.5616400000000 1.0
C      1  0.4353720000000  0.4548480000000  0.5520970000000 1.0
C      1  0.4865500000000  0.5006190000000  0.5193580000000 1.0
C      1  0.5651470000000  0.4504830000000  0.4652000000000 1.0
C      1  0.5294960000000  0.5268570000000  0.5105100000000 1.0
C      1  0.4846660000000  0.4648410000000  0.4705250000000 1.0
C      1  0.4969970000000  0.5498860000000  0.5121930000000 1.0
C      1  0.5244820000000  0.4858010000000  0.4357890000000 1.0
C      1  0.5067800000000  0.4275860000000  0.4982900000000 1.0
C      1  0.5445010000000  0.5310870000000  0.5782250000000 1.0
C      1  0.4896320000000  0.5081250000000  0.3993030000000 1.0
C      1  0.4212460000000  0.4906030000000  0.4441400000000 1.0
C      1  0.5697160000000  0.5586470000000  0.5049460000000 1.0
C      1  0.4378050000000  0.5144430000000  0.5708340000000 1.0
C      1  0.5832460000000  0.4870990000000  0.5372130000000 1.0
C      1  0.5330450000000  0.4847080000000  0.5315100000000 1.0
C      1  0.5117680000000  0.5857480000000  0.4505550000000 1.0
C      1  0.4901710000000  0.4190120000000  0.4719260000000 1.0
C      1  0.5649700000000  0.4842380000000  0.5789060000000 1.0
C      1  0.4296630000000  0.5214000000000  0.4412570000000 1.0
C      1  0.5391990000000  0.4988070000000  0.5878540000000 1.0
C      1  0.5319250000000  0.5761130000000  0.5515630000000 1.0
C      1  0.5361660000000  0.5720340000000  0.4547930000000 1.0
C      1  0.5363280000000  0.4157900000000  0.4963530000000 1.0
C      1  0.4212190000000  0.5437060000000  0.5250030000000 1.0
C      1  0.5754980000000  0.4232300000000  0.4942780000000 1.0
C      1  0.5090280000000  0.4306340000000  0.5802740000000 1.0
C      1  0.4491120000000  0.4854130000000  0.4993930000000 1.0
C      1  0.4792930000000  0.6013330000000  0.4673350000000 1.0
C      1  0.4248360000000  0.5689090000000  0.5011400000000 1.0
C      1  0.5393360000000  0.3876220000000  0.5073360000000 1.0
C      1  0.4637560000000  0.5517490000000  0.4803070000000 1.0
C      1  0.5701660000000  0.5287960000000  0.5593900000000 1.0
C      1  0.5825390000000  0.4455880000000  0.5134390000000 1.0
C      1  0.4495030000000  0.5672310000000  0.4463380000000 1.0
C      1  0.4487760000000  0.4371530000000  0.4532700000000 1.0
C      1  0.5168960000000  0.5140970000000  0.5679620000000 1.0
C      1  0.5095040000000  0.4751060000000  0.4097840000000 1.0
C      1  0.4576670000000  0.4363850000000  0.5535770000000 1.0
C      1  0.4288080000000  0.4615190000000  0.4591630000000 1.0
C      1  0.5326170000000  0.5409580000000  0.4614960000000 1.0
C      1  0.5524060000000  0.4205540000000  0.4694400000000 1.0
C      1  0.5253840000000  0.5187980000000  0.4399330000000 1.0
C      1  0.4423320000000  0.4717780000000  0.4285170000000 1.0
C      1  0.4768270000000  0.5059590000000  0.4416480000000 1.0
C      1  0.5222390000000  0.5534270000000  0.5717380000000 1.0
C      1  0.5317120000000  0.4475620000000  0.5828120000000 1.0
C      1  0.4468510000000  0.5518960000000  0.4230840000000 1.0
C      1  0.4305450000000  0.5715010000000  0.4711350000000 1.0
C      1  0.5753720000000  0.5451840000000  0.5361260000000 1.0
C      1  0.4803540000000  0.5722540000000  0.4503730000000 1.0
C      1  0.5610420000000  0.4528770000000  0.5664340000000 1.0
C      1  0.4888170000000  0.5547640000000  0.5755710000000 1.0
C      1  0.4275050000000  0.4394190000000  0.5059330000000 1.0
C      1  0.5608300000000  0.5749510000000  0.5338100000000 1.0
C      1  0.5083210000000  0.5946560000000  0.5474790000000 1.0
C      1  0.4738370000000  0.4949510000000  0.4799430000000 1.0
C      1  0.5099530000000  0.4906350000000  0.3847990000000 1.0
C      1  0.4797480000000  0.4714910000000  0.5217510000000 1.0
C      1  0.4317030000000  0.5287310000000  0.4748780000000 1.0
C      1  0.5230140000000  0.5916530000000  0.4930120000000 1.0
C      1  0.5351210000000  0.5334870000000  0.4109640000000 1.0
C      1  0.4808700000000  0.4501450000000  0.4982140000000 1.0
C      1  0.4551980000000  0.4287050000000  0.5046070000000 1.0
C      1  0.5680000000000  0.4891340000000  0.4921110000000 1.0
C      1  0.4820200000000  0.4589110000000  0.4122600000000 1.0
C      1  0.5621970000000  0.4937230000000  0.5190110000000 1.0
C      1  0.4594980000000  0.4643940000000  0.5928150000000 1.0
C      1  0.5502930000000  0.4655620000000  0.4456430000000 1.0
C      1  0.5519660000000  0.5771200000000  0.4825720000000 1.0
C      1  0.4644450000000  0.4880270000000  0.4081400000000 1.0
C      1  0.4206240000000  0.4585990000000  0.5279800000000 1.0
C      1  0.5509870000000  0.5376840000000  0.4890190000000 1.0
C      1  0.4100410000000  0.4845070000000  0.5143940000000 1.0
C      1  0.4626050000000  0.5434310000000  0.5311970000000 1.0
C      1  0.4845960000000  0.5845830000000  0.5610790000000 1.0
C      1  0.4552300000000  0.5192590000000  0.4183380000000 1.0
C      1  0.5031250000000  0.4160900000000  0.4467930000000 1.0
C      1  0.5370750000000  0.4649050000000  0.5073300000000 1.0
C      1  0.4635400000000  0.5120370000000  0.5853500000000 1.0
C      1  0.5245480000000  0.5084130000000  0.4828300000000 1.0
C      1  0.5170530000000  0.5587100000000  0.4870790000000 1.0
C      1  0.4694530000000  0.5815230000000  0.4875550000000 1.0
C      1  0.5495860000000  0.4346850000000  0.5413260000000 1.0
C      1  0.4777410000000  0.3952020000000  0.5349350000000 1.0
C      1  0.4467030000000  0.5359190000000  0.5031420000000 1.0
C      1  0.4458470000000  0.4983840000000  0.5250700000000 1.0
C      1  0.5035610000000  0.5269870000000  0.4149470000000 1.0
C      1  0.5719080000000  0.5131900000000  0.4463050000000 1.0
C      1  0.4886070000000  0.5234550000000  0.5706730000000 1.0
C      1  0.4632180000000  0.4185710000000  0.5325390000000 1.0
C      1  0.5199500000000  0.4750580000000  0.5895340000000 1.0
C      1  0.4609050000000  0.4844710000000  0.5451000000000 1.0
C      1  0.4244710000000  0.4661880000000  0.4889410000000 1.0
C      1  0.5110560000000  0.5435040000000  0.5415480000000 1.0
END
