TITL C-2778425-5191-643 -0.00465382176529106 125000 -745.397968368607 0 0 129 (C1) n - 1
REM
REM in /home/nfs/bkarasulu/CARBON/AIRSS/Generating-Clusters/REBO/Only-C1/SD-CG/HFTN-CG
REM
REM
REM
REM
REM
REM ./C.cell (11c1c37f851c82e70ff6c80c92926a4b)
REM
REM compiler GCC version 9.2.1 20190827 (Red Hat 9.2.1-1)
REM options -cpp -mtune=generic -march=x86-64 -g -O0 -fpre-include=/usr/include/finclude/math-vector-fortran.h
REM seed -1421201404 -1844337773 20724471 -1039309054 925343678 -1634524680 -485820427 1185429679 -1821793443 515803471 -1369277599 1576820529 576528585 667139977 -2069831145 -2027733976 1200033773 -312818825 1958819107 1261917056 -25471924 -1011079792 -635687850 1160740647 226261248 -2048217108 -687051744 -1218745609 -305479567 -251254324 1005731496 873635560 1752707768
REM
CELL 1.54180   50.00000   50.00000   50.00000   90.00000   90.00000   90.00000
LATT -1
SFAC C  
C      1  0.5817570000000  0.4911860000000  0.5404060000000 1.0
C      1  0.5349500000000  0.5327510000000  0.4782480000000 1.0
C      1  0.5229410000000  0.5245980000000  0.4115150000000 1.0
C      1  0.4662630000000  0.5707130000000  0.5423960000000 1.0
C      1  0.5270540000000  0.5836840000000  0.4662460000000 1.0
C      1  0.5377730000000  0.5854670000000  0.5180460000000 1.0
C      1  0.5228870000000  0.5512390000000  0.4278850000000 1.0
C      1  0.4576520000000  0.5019770000000  0.5260430000000 1.0
C      1  0.5562610000000  0.4454550000000  0.4613590000000 1.0
C      1  0.4873410000000  0.5571070000000  0.5890310000000 1.0
C      1  0.5103330000000  0.4096040000000  0.5211360000000 1.0
C      1  0.5710500000000  0.4715270000000  0.4645330000000 1.0
C      1  0.5389530000000  0.5038660000000  0.4223140000000 1.0
C      1  0.4738340000000  0.4694880000000  0.4168080000000 1.0
C      1  0.5901070000000  0.4584320000000  0.5368700000000 1.0
C      1  0.4373770000000  0.5323760000000  0.5403520000000 1.0
C      1  0.4543130000000  0.5712510000000  0.5710480000000 1.0
C      1  0.4913850000000  0.5496270000000  0.4682580000000 1.0
C      1  0.5539240000000  0.4745860000000  0.5420800000000 1.0
C      1  0.4955490000000  0.5125860000000  0.4072240000000 1.0
C      1  0.5126520000000  0.4567520000000  0.5129990000000 1.0
C      1  0.4174720000000  0.4648090000000  0.4956110000000 1.0
C      1  0.4121830000000  0.4747380000000  0.4689810000000 1.0
C      1  0.5363150000000  0.4221410000000  0.5325250000000 1.0
C      1  0.5837220000000  0.5026270000000  0.4711640000000 1.0
C      1  0.5578210000000  0.4279350000000  0.5091620000000 1.0
C      1  0.5544350000000  0.5092310000000  0.4448850000000 1.0
C      1  0.5166680000000  0.5448320000000  0.5043840000000 1.0
C      1  0.4441440000000  0.4567660000000  0.5724010000000 1.0
C      1  0.4799190000000  0.4991580000000  0.5729510000000 1.0
C      1  0.5454790000000  0.5357510000000  0.5192550000000 1.0
C      1  0.5192390000000  0.5081250000000  0.5310290000000 1.0
C      1  0.4720560000000  0.4116080000000  0.4822360000000 1.0
C      1  0.5338880000000  0.5089480000000  0.5029730000000 1.0
C      1  0.5132500000000  0.4996090000000  0.4784840000000 1.0
C      1  0.4592590000000  0.5448010000000  0.5854050000000 1.0
C      1  0.5311090000000  0.4919100000000  0.5982370000000 1.0
C      1  0.5772540000000  0.4907020000000  0.5743140000000 1.0
C      1  0.4743980000000  0.4667560000000  0.5830690000000 1.0
C      1  0.5206710000000  0.4786250000000  0.4263100000000 1.0
C      1  0.4610080000000  0.5554110000000  0.5042930000000 1.0
C      1  0.4741360000000  0.4820250000000  0.5463660000000 1.0
C      1  0.4470420000000  0.5437030000000  0.4498760000000 1.0
C      1  0.6080920000000  0.5046040000000  0.4952980000000 1.0
C      1  0.5016030000000  0.4563210000000  0.5725620000000 1.0
C      1  0.5267160000000  0.4354200000000  0.5626320000000 1.0
C      1  0.4954870000000  0.5865580000000  0.4534930000000 1.0
C      1  0.5015960000000  0.4527650000000  0.4180610000000 1.0
C      1  0.5320710000000  0.4889720000000  0.5515490000000 1.0
C      1  0.4783180000000  0.4939020000000  0.3980070000000 1.0
C      1  0.4404990000000  0.5056370000000  0.4598550000000 1.0
C      1  0.5144280000000  0.5398490000000  0.5819630000000 1.0
C      1  0.5272250000000  0.4019590000000  0.4473330000000 1.0
C      1  0.5709560000000  0.5317450000000  0.4469040000000 1.0
C      1  0.5121610000000  0.4700990000000  0.4641810000000 1.0
C      1  0.4148880000000  0.4952500000000  0.4415600000000 1.0
C      1  0.4569520000000  0.5182930000000  0.4213240000000 1.0
C      1  0.5496770000000  0.5697190000000  0.5399290000000 1.0
C      1  0.4485300000000  0.4898370000000  0.5795690000000 1.0
C      1  0.4672430000000  0.4602970000000  0.4966770000000 1.0
C      1  0.4839790000000  0.4690900000000  0.4498780000000 1.0
C      1  0.4884710000000  0.5254380000000  0.5650160000000 1.0
C      1  0.4937040000000  0.5780430000000  0.5704240000000 1.0
C      1  0.4698270000000  0.4989280000000  0.4436380000000 1.0
C      1  0.4695970000000  0.5464280000000  0.4245050000000 1.0
C      1  0.4422640000000  0.4545900000000  0.4651000000000 1.0
C      1  0.4938250000000  0.5596780000000  0.4360260000000 1.0
C      1  0.4381240000000  0.4312030000000  0.5540460000000 1.0
C      1  0.5337190000000  0.5235600000000  0.5981260000000 1.0
C      1  0.5097560000000  0.5820530000000  0.5171010000000 1.0
C      1  0.4496500000000  0.4827350000000  0.4801310000000 1.0
C      1  0.4124240000000  0.5107990000000  0.5018460000000 1.0
C      1  0.5424360000000  0.5697600000000  0.4424290000000 1.0
C      1  0.5708830000000  0.5524220000000  0.5258220000000 1.0
C      1  0.5031610000000  0.5047430000000  0.4399740000000 1.0
C      1  0.4473070000000  0.4090940000000  0.5055200000000 1.0
C      1  0.4472200000000  0.5223740000000  0.5714590000000 1.0
C      1  0.5005750000000  0.4816840000000  0.5283570000000 1.0
C      1  0.4786380000000  0.4874120000000  0.5071640000000 1.0
C      1  0.4389180000000  0.4596140000000  0.5122080000000 1.0
C      1  0.5452480000000  0.4919160000000  0.4689320000000 1.0
C      1  0.4711010000000  0.4398000000000  0.4626170000000 1.0
C      1  0.5170040000000  0.4257640000000  0.4318640000000 1.0
C      1  0.5332370000000  0.4680600000000  0.4913520000000 1.0
C      1  0.5026420000000  0.4432340000000  0.5413900000000 1.0
C      1  0.4245150000000  0.5404040000000  0.5099040000000 1.0
C      1  0.5615210000000  0.4754140000000  0.5029890000000 1.0
C      1  0.4283400000000  0.4642800000000  0.4371240000000 1.0
C      1  0.4284620000000  0.4993900000000  0.5434090000000 1.0
C      1  0.5203180000000  0.4800510000000  0.5754550000000 1.0
C      1  0.4839930000000  0.4283730000000  0.4342720000000 1.0
C      1  0.5048470000000  0.5704280000000  0.4883760000000 1.0
C      1  0.4521740000000  0.4196540000000  0.5340110000000 1.0
C      1  0.5773520000000  0.5046920000000  0.5103860000000 1.0
C      1  0.4786790000000  0.3981830000000  0.5132290000000 1.0
C      1  0.4989780000000  0.5668440000000  0.5401560000000 1.0
C      1  0.4427700000000  0.4690360000000  0.5420660000000 1.0
C      1  0.4932770000000  0.4442740000000  0.4902770000000 1.0
C      1  0.5745710000000  0.4496350000000  0.5151630000000 1.0
C      1  0.5672610000000  0.5588750000000  0.4456670000000 1.0
C      1  0.4466840000000  0.5094690000000  0.4984770000000 1.0
C      1  0.4216300000000  0.5293880000000  0.4758900000000 1.0
C      1  0.5056500000000  0.4137010000000  0.4890040000000 1.0
C      1  0.4708350000000  0.6023620000000  0.4936080000000 1.0
C      1  0.4870110000000  0.5093530000000  0.4881770000000 1.0
C      1  0.4706650000000  0.5925960000000  0.4665400000000 1.0
C      1  0.5490340000000  0.5793030000000  0.4915990000000 1.0
C      1  0.5930610000000  0.4746200000000  0.4894300000000 1.0
C      1  0.5556620000000  0.4441490000000  0.5512330000000 1.0
C      1  0.4342250000000  0.5591930000000  0.4843160000000 1.0
C      1  0.5313360000000  0.4519400000000  0.4445300000000 1.0
C      1  0.4634030000000  0.5326790000000  0.4781780000000 1.0
C      1  0.5328760000000  0.5560490000000  0.5584410000000 1.0
C      1  0.4046950000000  0.4974110000000  0.5257720000000 1.0
C      1  0.5681580000000  0.5575560000000  0.4947540000000 1.0
C      1  0.4831680000000  0.4195290000000  0.5384180000000 1.0
C      1  0.5148070000000  0.5303760000000  0.4531740000000 1.0
C      1  0.5106070000000  0.5353460000000  0.5426980000000 1.0
C      1  0.5303300000000  0.4073810000000  0.4739850000000 1.0
C      1  0.4870830000000  0.5343900000000  0.5102530000000 1.0
C      1  0.4654760000000  0.5852510000000  0.5138740000000 1.0
C      1  0.5603640000000  0.5041390000000  0.5921850000000 1.0
C      1  0.5812730000000  0.4607050000000  0.5669970000000 1.0
C      1  0.4448090000000  0.4596580000000  0.4149980000000 1.0
C      1  0.4267480000000  0.5247870000000  0.4291940000000 1.0
C      1  0.5518360000000  0.4247940000000  0.4811520000000 1.0
C      1  0.5663890000000  0.5263190000000  0.4862560000000 1.0
C      1  0.4709360000000  0.5383660000000  0.5391330000000 1.0
C      1  0.4482110000000  0.5755260000000  0.4607220000000 1.0
END
