TITL C-2778426-5645-1057 0.00224383984132627 125000 -963.510049012542 0 0 166 (C1) n - 1
REM
REM in /home/nfs/bkarasulu/CARBON/AIRSS/Generating-Clusters/REBO/Only-C1/SD-CG/HFTN-CG
REM
REM
REM
REM
REM
REM ./C.cell (11c1c37f851c82e70ff6c80c92926a4b)
REM
REM compiler GCC version 9.2.1 20190827 (Red Hat 9.2.1-1)
REM options -cpp -mtune=generic -march=x86-64 -g -O0 -fpre-include=/usr/include/finclude/math-vector-fortran.h
REM seed 1547039809 -1566317140 -1048764015 -77803836 79334472 -911146160 -334286137 1789843215 594763674 -2089603268 560060556 540405622 -123191165 1071904359 -794052897 -1500945513 1959452354 -19957061 -47428662 -1188380054 2094042550 -1445430031 -2063203496 -1137132909 -478260194 -303883029 693014666 -155800949 -1649456744 -1216038439 -71098581 956835556 1643801662
REM
CELL 1.54180   50.00000   50.00000   50.00000   90.00000   90.00000   90.00000
LATT -1
SFAC C  
C      1  0.5065940000000  0.4511960000000  0.5323600000000 1.0
C      1  0.5921820000000  0.4781500000000  0.4655430000000 1.0
C      1  0.5397770000000  0.4773200000000  0.6048900000000 1.0
C      1  0.4655310000000  0.4663560000000  0.4984690000000 1.0
C      1  0.5873740000000  0.5070310000000  0.5412640000000 1.0
C      1  0.5995370000000  0.5055220000000  0.5099910000000 1.0
C      1  0.4468150000000  0.5563840000000  0.5761590000000 1.0
C      1  0.4776680000000  0.5899880000000  0.5529930000000 1.0
C      1  0.4208990000000  0.4602150000000  0.4397410000000 1.0
C      1  0.5260240000000  0.4143730000000  0.4460820000000 1.0
C      1  0.5373730000000  0.5574650000000  0.4229280000000 1.0
C      1  0.4577450000000  0.5271790000000  0.4128620000000 1.0
C      1  0.6101980000000  0.5738100000000  0.4604810000000 1.0
C      1  0.5606220000000  0.5444810000000  0.4341820000000 1.0
C      1  0.4256120000000  0.4249300000000  0.4805660000000 1.0
C      1  0.4373290000000  0.4820010000000  0.4188110000000 1.0
C      1  0.4512560000000  0.4891220000000  0.5522800000000 1.0
C      1  0.5513150000000  0.5466540000000  0.5941010000000 1.0
C      1  0.5034730000000  0.5285970000000  0.4341910000000 1.0
C      1  0.4205580000000  0.5271530000000  0.5790990000000 1.0
C      1  0.4152270000000  0.5230670000000  0.4399140000000 1.0
C      1  0.3881660000000  0.5477570000000  0.4758950000000 1.0
C      1  0.4215770000000  0.5514410000000  0.5595260000000 1.0
C      1  0.4600280000000  0.4271590000000  0.5032360000000 1.0
C      1  0.5004560000000  0.4528610000000  0.4395940000000 1.0
C      1  0.5769080000000  0.5296100000000  0.4175230000000 1.0
C      1  0.5955700000000  0.4611000000000  0.5282270000000 1.0
C      1  0.4355800000000  0.5444020000000  0.4802930000000 1.0
C      1  0.4418430000000  0.4847030000000  0.4630140000000 1.0
C      1  0.5050890000000  0.5947070000000  0.5637050000000 1.0
C      1  0.5398120000000  0.4685310000000  0.4737090000000 1.0
C      1  0.5147780000000  0.5906480000000  0.5113190000000 1.0
C      1  0.4259860000000  0.5855670000000  0.4269990000000 1.0
C      1  0.4509980000000  0.5696000000000  0.4797210000000 1.0
C      1  0.5586900000000  0.5730210000000  0.5373670000000 1.0
C      1  0.4295900000000  0.4138370000000  0.5097250000000 1.0
C      1  0.4824040000000  0.5240980000000  0.5746120000000 1.0
C      1  0.3962040000000  0.4631700000000  0.4858770000000 1.0
C      1  0.5268060000000  0.5767220000000  0.4419350000000 1.0
C      1  0.4527870000000  0.4565170000000  0.4708460000000 1.0
C      1  0.5349390000000  0.4060940000000  0.4768720000000 1.0
C      1  0.5196820000000  0.5708710000000  0.5672080000000 1.0
C      1  0.4982450000000  0.4190000000000  0.5113440000000 1.0
C      1  0.5956250000000  0.4777980000000  0.4983790000000 1.0
C      1  0.4176490000000  0.5025460000000  0.5174190000000 1.0
C      1  0.5294920000000  0.5578410000000  0.5409680000000 1.0
C      1  0.4479590000000  0.4407850000000  0.5687010000000 1.0
C      1  0.5790120000000  0.5650120000000  0.5117370000000 1.0
C      1  0.4918830000000  0.3728670000000  0.5354720000000 1.0
C      1  0.5882540000000  0.5728240000000  0.4738290000000 1.0
C      1  0.5492450000000  0.4927110000000  0.5046900000000 1.0
C      1  0.4430230000000  0.5182450000000  0.4908260000000 1.0
C      1  0.5678980000000  0.5418930000000  0.5443310000000 1.0
C      1  0.5377590000000  0.4991660000000  0.4215350000000 1.0
C      1  0.5648180000000  0.4502160000000  0.5506680000000 1.0
C      1  0.5379800000000  0.5005700000000  0.5452020000000 1.0
C      1  0.4403680000000  0.5936690000000  0.4901460000000 1.0
C      1  0.5410540000000  0.4767160000000  0.5651510000000 1.0
C      1  0.5453010000000  0.5771330000000  0.4678640000000 1.0
C      1  0.5059690000000  0.5317770000000  0.5947540000000 1.0
C      1  0.4569400000000  0.4606640000000  0.5441320000000 1.0
C      1  0.5218620000000  0.5057750000000  0.6041830000000 1.0
C      1  0.5442320000000  0.5455860000000  0.5124160000000 1.0
C      1  0.5191670000000  0.5377450000000  0.4094120000000 1.0
C      1  0.4374630000000  0.4992780000000  0.5801220000000 1.0
C      1  0.5251110000000  0.5108330000000  0.4497670000000 1.0
C      1  0.4069560000000  0.5315970000000  0.5181580000000 1.0
C      1  0.5150830000000  0.4896420000000  0.4708320000000 1.0
C      1  0.5894350000000  0.4714010000000  0.5604580000000 1.0
C      1  0.5262140000000  0.5396130000000  0.4774850000000 1.0
C      1  0.5046550000000  0.5474960000000  0.4579300000000 1.0
C      1  0.5197680000000  0.5168100000000  0.3907610000000 1.0
C      1  0.4581040000000  0.5356890000000  0.5239140000000 1.0
C      1  0.5671760000000  0.4359680000000  0.4491250000000 1.0
C      1  0.4943210000000  0.4192730000000  0.5552760000000 1.0
C      1  0.5409850000000  0.4347990000000  0.4329330000000 1.0
C      1  0.5693450000000  0.4824720000000  0.5281670000000 1.0
C      1  0.5078530000000  0.5051100000000  0.5356430000000 1.0
C      1  0.4816560000000  0.4215300000000  0.4815840000000 1.0
C      1  0.4340540000000  0.5111720000000  0.4192610000000 1.0
C      1  0.4987900000000  0.5011140000000  0.4968910000000 1.0
C      1  0.5064210000000  0.4777970000000  0.6135330000000 1.0
C      1  0.4675800000000  0.4973800000000  0.5021340000000 1.0
C      1  0.5237770000000  0.5535590000000  0.5897380000000 1.0
C      1  0.4125500000000  0.5423810000000  0.4615320000000 1.0
C      1  0.4106410000000  0.4463810000000  0.4692150000000 1.0
C      1  0.5632170000000  0.5524070000000  0.4846340000000 1.0
C      1  0.5053900000000  0.4997550000000  0.5682570000000 1.0
C      1  0.5729310000000  0.5020950000000  0.4546400000000 1.0
C      1  0.5786900000000  0.4316260000000  0.5260290000000 1.0
C      1  0.4761670000000  0.4414650000000  0.5278460000000 1.0
C      1  0.4772760000000  0.5987030000000  0.5220550000000 1.0
C      1  0.4785310000000  0.4727090000000  0.6000150000000 1.0
C      1  0.5148670000000  0.4845690000000  0.4007360000000 1.0
C      1  0.4696820000000  0.5312610000000  0.4646270000000 1.0
C      1  0.5682060000000  0.5008370000000  0.4182150000000 1.0
C      1  0.3910880000000  0.4826570000000  0.5098750000000 1.0
C      1  0.5653070000000  0.4662270000000  0.4922890000000 1.0
C      1  0.4616390000000  0.4697650000000  0.4091110000000 1.0
C      1  0.5673310000000  0.4788630000000  0.5855160000000 1.0
C      1  0.5359690000000  0.5144270000000  0.5753470000000 1.0
C      1  0.5772350000000  0.4704550000000  0.4195800000000 1.0
C      1  0.5658380000000  0.5910810000000  0.4917270000000 1.0
C      1  0.5284210000000  0.5683530000000  0.4950450000000 1.0
C      1  0.4792210000000  0.5129950000000  0.4284540000000 1.0
C      1  0.5077160000000  0.5373790000000  0.5309170000000 1.0
C      1  0.5428480000000  0.4596930000000  0.5258710000000 1.0
C      1  0.5275680000000  0.4723010000000  0.4362600000000 1.0
C      1  0.5920070000000  0.5354540000000  0.5224910000000 1.0
C      1  0.4418590000000  0.5671390000000  0.4367600000000 1.0
C      1  0.4758870000000  0.5430720000000  0.4960060000000 1.0
C      1  0.4918520000000  0.4825030000000  0.4506400000000 1.0
C      1  0.4345210000000  0.4282160000000  0.5404590000000 1.0
C      1  0.5205270000000  0.4833570000000  0.5136260000000 1.0
C      1  0.5517490000000  0.5264160000000  0.4591590000000 1.0
C      1  0.4806010000000  0.5407260000000  0.5460840000000 1.0
C      1  0.5853030000000  0.5033420000000  0.5725790000000 1.0
C      1  0.3739220000000  0.5067050000000  0.4963050000000 1.0
C      1  0.4656870000000  0.5539850000000  0.4074870000000 1.0
C      1  0.4541940000000  0.5264820000000  0.5878420000000 1.0
C      1  0.4820460000000  0.3991640000000  0.5340500000000 1.0
C      1  0.4204290000000  0.4949830000000  0.4860220000000 1.0
C      1  0.4600360000000  0.4418850000000  0.4140020000000 1.0
C      1  0.4999850000000  0.4428740000000  0.4685920000000 1.0
C      1  0.5626320000000  0.4363550000000  0.5001910000000 1.0
C      1  0.3841830000000  0.5333300000000  0.5005610000000 1.0
C      1  0.5447090000000  0.4328530000000  0.5682970000000 1.0
C      1  0.5658380000000  0.5285420000000  0.5718800000000 1.0
C      1  0.4970010000000  0.4569560000000  0.4996560000000 1.0
C      1  0.4871390000000  0.4840310000000  0.4167190000000 1.0
C      1  0.4530230000000  0.4710890000000  0.5824650000000 1.0
C      1  0.5357570000000  0.6200020000000  0.5280800000000 1.0
C      1  0.4399140000000  0.4519080000000  0.5160240000000 1.0
C      1  0.4678610000000  0.5653350000000  0.5601690000000 1.0
C      1  0.5289490000000  0.4399200000000  0.4771830000000 1.0
C      1  0.4660820000000  0.5009170000000  0.4569250000000 1.0
C      1  0.4532520000000  0.3937780000000  0.4542680000000 1.0
C      1  0.5535070000000  0.5187490000000  0.5240210000000 1.0
C      1  0.5573450000000  0.4745670000000  0.4462160000000 1.0
C      1  0.4814190000000  0.4400910000000  0.5680850000000 1.0
C      1  0.3898380000000  0.4920170000000  0.4713280000000 1.0
C      1  0.5903590000000  0.4532920000000  0.4530390000000 1.0
C      1  0.4530350000000  0.4226230000000  0.4631430000000 1.0
C      1  0.5635480000000  0.4203580000000  0.4734230000000 1.0
C      1  0.5601090000000  0.4115060000000  0.5460290000000 1.0
C      1  0.4519680000000  0.4008710000000  0.5320020000000 1.0
C      1  0.4819020000000  0.5739520000000  0.4175420000000 1.0
C      1  0.5055630000000  0.6122180000000  0.5356190000000 1.0
C      1  0.5205480000000  0.4523070000000  0.4117020000000 1.0
C      1  0.4998640000000  0.4670190000000  0.5757080000000 1.0
C      1  0.4976560000000  0.5818320000000  0.4404550000000 1.0
C      1  0.4467730000000  0.5048790000000  0.5279640000000 1.0
C      1  0.4830210000000  0.5708820000000  0.4682680000000 1.0
C      1  0.4580550000000  0.5483360000000  0.4467230000000 1.0
C      1  0.5487120000000  0.5951120000000  0.5167600000000 1.0
C      1  0.5274600000000  0.4537180000000  0.5848390000000 1.0
C      1  0.4509750000000  0.6089840000000  0.5101940000000 1.0
C      1  0.5228550000000  0.4248310000000  0.5468940000000 1.0
C      1  0.5296920000000  0.4326610000000  0.5084590000000 1.0
C      1  0.5051810000000  0.5305320000000  0.5001990000000 1.0
C      1  0.4864940000000  0.5752030000000  0.5006120000000 1.0
C      1  0.5362080000000  0.3995800000000  0.5297660000000 1.0
C      1  0.4425610000000  0.4361700000000  0.4344090000000 1.0
C      1  0.5317170000000  0.3927670000000  0.5041700000000 1.0
C      1  0.4119270000000  0.4921580000000  0.4475730000000 1.0
C      1  0.4269470000000  0.5466020000000  0.5315620000000 1.0
END
