TITL C-2778428-5639-611 0.0026131774726723 125000 -422.700804742082 0 0 73 (C1) n - 1
REM
REM in /home/nfs/bkarasulu/CARBON/AIRSS/Generating-Clusters/REBO/Only-C1/SD-CG/HFTN-CG
REM
REM
REM
REM
REM
REM ./C.cell (11c1c37f851c82e70ff6c80c92926a4b)
REM
REM compiler GCC version 9.2.1 20190827 (Red Hat 9.2.1-1)
REM options -cpp -mtune=generic -march=x86-64 -g -O0 -fpre-include=/usr/include/finclude/math-vector-fortran.h
REM seed -2099948798 2119143846 658306758 1419688985 -374889490 1011164548 307337699 -1775149165 1442419769 -725681414 -179991345 1977447951 -1594303635 -1673463999 -868807422 -36366888 -246694934 1235526118 1423489558 -1035807423 -445364957 -897668684 1887465581 -847107651 801770520 607145660 45635993 -1102906872 235962306 -1699527192 -483852634 -921535411 15872017
REM
CELL 1.54180   50.00000   50.00000   50.00000   90.00000   90.00000   90.00000
LATT -1
SFAC C  
C      1  0.4624500000000  0.4684290000000  0.4814980000000 1.0
C      1  0.4817350000000  0.4923200000000  0.4834950000000 1.0
C      1  0.5062610000000  0.4216620000000  0.5124160000000 1.0
C      1  0.4566180000000  0.4568770000000  0.5191820000000 1.0
C      1  0.5197050000000  0.5532200000000  0.4714890000000 1.0
C      1  0.4379810000000  0.5553400000000  0.5246910000000 1.0
C      1  0.5428100000000  0.5163740000000  0.5699610000000 1.0
C      1  0.5121660000000  0.4235340000000  0.5400250000000 1.0
C      1  0.5143360000000  0.5868050000000  0.5403920000000 1.0
C      1  0.4938510000000  0.4681080000000  0.4347660000000 1.0
C      1  0.4595830000000  0.4337920000000  0.5007640000000 1.0
C      1  0.4971880000000  0.4248580000000  0.4383300000000 1.0
C      1  0.4665330000000  0.5765410000000  0.4855820000000 1.0
C      1  0.5194400000000  0.4505960000000  0.4391110000000 1.0
C      1  0.4313630000000  0.4694290000000  0.4740750000000 1.0
C      1  0.4362210000000  0.4829750000000  0.5555920000000 1.0
C      1  0.5171880000000  0.5961370000000  0.5093370000000 1.0
C      1  0.5176850000000  0.4291380000000  0.4654640000000 1.0
C      1  0.5433240000000  0.5376910000000  0.4687500000000 1.0
C      1  0.4932190000000  0.4859290000000  0.5404530000000 1.0
C      1  0.4768710000000  0.5353190000000  0.4944860000000 1.0
C      1  0.4619310000000  0.4638930000000  0.5520470000000 1.0
C      1  0.4646820000000  0.4282710000000  0.4489160000000 1.0
C      1  0.4907470000000  0.5142570000000  0.5580150000000 1.0
C      1  0.5185670000000  0.6030870000000  0.4823250000000 1.0
C      1  0.4218100000000  0.4956130000000  0.4728850000000 1.0
C      1  0.4402090000000  0.5110870000000  0.5538330000000 1.0
C      1  0.5438360000000  0.4976930000000  0.4257950000000 1.0
C      1  0.4623660000000  0.5204390000000  0.5670800000000 1.0
C      1  0.5347530000000  0.4590800000000  0.5034240000000 1.0
C      1  0.5426080000000  0.4686140000000  0.4373210000000 1.0
C      1  0.4409700000000  0.5149730000000  0.4580820000000 1.0
C      1  0.5239400000000  0.4354590000000  0.4943680000000 1.0
C      1  0.5406760000000  0.4640860000000  0.5553630000000 1.0
C      1  0.4634030000000  0.5142270000000  0.5112130000000 1.0
C      1  0.4475600000000  0.4399390000000  0.4718230000000 1.0
C      1  0.5227440000000  0.4720440000000  0.5297770000000 1.0
C      1  0.5221590000000  0.5006440000000  0.5175490000000 1.0
C      1  0.5686420000000  0.4549800000000  0.5455890000000 1.0
C      1  0.4275400000000  0.4650060000000  0.5321730000000 1.0
C      1  0.5472530000000  0.5161630000000  0.4508840000000 1.0
C      1  0.4711690000000  0.4537300000000  0.4294520000000 1.0
C      1  0.4819070000000  0.4160730000000  0.4981550000000 1.0
C      1  0.5538570000000  0.4748510000000  0.4891860000000 1.0
C      1  0.5448380000000  0.4897990000000  0.5723990000000 1.0
C      1  0.5522590000000  0.5493320000000  0.5217210000000 1.0
C      1  0.5830290000000  0.4683410000000  0.5266490000000 1.0
C      1  0.5761780000000  0.4845570000000  0.5045100000000 1.0
C      1  0.5126590000000  0.5204450000000  0.5344430000000 1.0
C      1  0.4879440000000  0.4125810000000  0.4683140000000 1.0
C      1  0.5129580000000  0.5001980000000  0.4725830000000 1.0
C      1  0.5074560000000  0.5659720000000  0.5164070000000 1.0
C      1  0.5196160000000  0.5893690000000  0.4339550000000 1.0
C      1  0.4731440000000  0.5136980000000  0.4583070000000 1.0
C      1  0.5807760000000  0.5123530000000  0.5005120000000 1.0
C      1  0.4494230000000  0.5364010000000  0.4810230000000 1.0
C      1  0.4835750000000  0.5685940000000  0.4646830000000 1.0
C      1  0.5122800000000  0.5823890000000  0.4598460000000 1.0
C      1  0.5303460000000  0.5083860000000  0.4923450000000 1.0
C      1  0.4507160000000  0.5713660000000  0.5069310000000 1.0
C      1  0.4816000000000  0.5431720000000  0.4555770000000 1.0
C      1  0.4366630000000  0.5235600000000  0.5262050000000 1.0
C      1  0.5140240000000  0.4452820000000  0.5580960000000 1.0
C      1  0.4956110000000  0.4931330000000  0.4463130000000 1.0
C      1  0.5151490000000  0.5324020000000  0.5713840000000 1.0
C      1  0.5553440000000  0.5302810000000  0.4973690000000 1.0
C      1  0.4272560000000  0.5173780000000  0.4951310000000 1.0
C      1  0.5502780000000  0.4854300000000  0.4629010000000 1.0
C      1  0.4905120000000  0.4606480000000  0.5598430000000 1.0
C      1  0.4744050000000  0.4848350000000  0.5159420000000 1.0
C      1  0.5631210000000  0.5734350000000  0.5214420000000 1.0
C      1  0.5366000000000  0.5391420000000  0.5451410000000 1.0
C      1  0.5023810000000  0.5482330000000  0.4949110000000 1.0
END
