TITL C-2778431-5191-796 -0.00223858045670214 125000 -872.087014240857 0 0 150 (C1) n - 1
REM
REM in /home/nfs/bkarasulu/CARBON/AIRSS/Generating-Clusters/REBO/Only-C1/SD-CG/HFTN-CG
REM
REM
REM
REM
REM
REM ./C.cell (11c1c37f851c82e70ff6c80c92926a4b)
REM
REM compiler GCC version 9.2.1 20190827 (Red Hat 9.2.1-1)
REM options -cpp -mtune=generic -march=x86-64 -g -O0 -fpre-include=/usr/include/finclude/math-vector-fortran.h
REM seed -971720155 -35444439 -572015007 -32442857 -1141914329 -1604703217 492434670 -843957712 128367168 -1945970087 -2131704911 -1309088369 1126035891 839031569 -1004208743 -35187305 396128828 2114243944 637881993 438233232 -87066707 1314837798 2104352903 -617942343 2143138925 1038531672 1105124882 -165549738 1804101089 -42526420 -1552922750 -1542567662 -481625691
REM
CELL 1.54180   50.00000   50.00000   50.00000   90.00000   90.00000   90.00000
LATT -1
SFAC C  
C      1  0.4919900000000  0.4930340000000  0.5741670000000 1.0
C      1  0.5757950000000  0.5423830000000  0.5278160000000 1.0
C      1  0.4694470000000  0.4544300000000  0.5148880000000 1.0
C      1  0.5893680000000  0.5078730000000  0.5413230000000 1.0
C      1  0.5266310000000  0.5909290000000  0.5437740000000 1.0
C      1  0.5208420000000  0.4054220000000  0.5162350000000 1.0
C      1  0.5836360000000  0.5203630000000  0.4663500000000 1.0
C      1  0.4564120000000  0.4610080000000  0.5572140000000 1.0
C      1  0.5974500000000  0.4905710000000  0.4678870000000 1.0
C      1  0.4134760000000  0.5462840000000  0.5271980000000 1.0
C      1  0.5297380000000  0.4179550000000  0.4673400000000 1.0
C      1  0.5192510000000  0.4225080000000  0.4405950000000 1.0
C      1  0.5203420000000  0.5591070000000  0.4497850000000 1.0
C      1  0.5248770000000  0.5920440000000  0.4877450000000 1.0
C      1  0.4877450000000  0.5241320000000  0.5663800000000 1.0
C      1  0.5572860000000  0.5663910000000  0.4631710000000 1.0
C      1  0.5705440000000  0.4498210000000  0.4502210000000 1.0
C      1  0.4734920000000  0.5249910000000  0.4063100000000 1.0
C      1  0.4347990000000  0.4773800000000  0.5752590000000 1.0
C      1  0.5332510000000  0.4570720000000  0.5788470000000 1.0
C      1  0.4075900000000  0.4497130000000  0.5071320000000 1.0
C      1  0.5414460000000  0.5475880000000  0.4846850000000 1.0
C      1  0.4196570000000  0.4703890000000  0.5455310000000 1.0
C      1  0.6015650000000  0.4860710000000  0.4964570000000 1.0
C      1  0.4682410000000  0.5861380000000  0.4876640000000 1.0
C      1  0.5985060000000  0.5102880000000  0.5121570000000 1.0
C      1  0.4363320000000  0.5799920000000  0.4860070000000 1.0
C      1  0.4655670000000  0.4818960000000  0.5900030000000 1.0
C      1  0.5600550000000  0.5132410000000  0.5222350000000 1.0
C      1  0.5208510000000  0.5036410000000  0.5890080000000 1.0
C      1  0.5531630000000  0.5380900000000  0.4142170000000 1.0
C      1  0.5515740000000  0.4902420000000  0.5952350000000 1.0
C      1  0.4586920000000  0.5237080000000  0.5359960000000 1.0
C      1  0.5069220000000  0.5706740000000  0.5711440000000 1.0
C      1  0.4344200000000  0.5551340000000  0.5046490000000 1.0
C      1  0.4745170000000  0.5793530000000  0.4343260000000 1.0
C      1  0.5345050000000  0.4726610000000  0.5484180000000 1.0
C      1  0.5521050000000  0.4321250000000  0.4971530000000 1.0
C      1  0.5108670000000  0.5857690000000  0.4640830000000 1.0
C      1  0.5165630000000  0.4714630000000  0.5971090000000 1.0
C      1  0.4406880000000  0.4690980000000  0.5184270000000 1.0
C      1  0.5445390000000  0.4711890000000  0.5163590000000 1.0
C      1  0.5770290000000  0.5306510000000  0.4376540000000 1.0
C      1  0.5641810000000  0.5590210000000  0.4384190000000 1.0
C      1  0.4501970000000  0.4188880000000  0.4380880000000 1.0
C      1  0.4959690000000  0.5173440000000  0.5116080000000 1.0
C      1  0.4381050000000  0.5141060000000  0.5601680000000 1.0
C      1  0.5134750000000  0.5777930000000  0.5150730000000 1.0
C      1  0.4853800000000  0.4450240000000  0.4144500000000 1.0
C      1  0.5002820000000  0.5367150000000  0.4335470000000 1.0
C      1  0.4614700000000  0.5514440000000  0.5190030000000 1.0
C      1  0.4553020000000  0.5501710000000  0.5583750000000 1.0
C      1  0.4663820000000  0.5280640000000  0.4730060000000 1.0
C      1  0.4835320000000  0.5900410000000  0.4599340000000 1.0
C      1  0.4813050000000  0.4541280000000  0.4619930000000 1.0
C      1  0.5515530000000  0.4315820000000  0.5544360000000 1.0
C      1  0.4213680000000  0.5281780000000  0.4926990000000 1.0
C      1  0.4519590000000  0.4456320000000  0.4481280000000 1.0
C      1  0.4038140000000  0.4941970000000  0.5341210000000 1.0
C      1  0.5039840000000  0.5234540000000  0.4035720000000 1.0
C      1  0.5484180000000  0.4853840000000  0.4097630000000 1.0
C      1  0.5165740000000  0.5165730000000  0.4845490000000 1.0
C      1  0.4835150000000  0.4489550000000  0.3747760000000 1.0
C      1  0.4085310000000  0.5272630000000  0.4647570000000 1.0
C      1  0.4873690000000  0.4419560000000  0.4894590000000 1.0
C      1  0.5543960000000  0.4941310000000  0.4402840000000 1.0
C      1  0.4816910000000  0.5556810000000  0.4806980000000 1.0
C      1  0.4240430000000  0.4880100000000  0.4457770000000 1.0
C      1  0.5856870000000  0.4378640000000  0.4971830000000 1.0
C      1  0.4150180000000  0.4356570000000  0.5262490000000 1.0
C      1  0.4693930000000  0.4295030000000  0.5363770000000 1.0
C      1  0.4190000000000  0.4755090000000  0.4927840000000 1.0
C      1  0.5319680000000  0.4636380000000  0.4024190000000 1.0
C      1  0.5392510000000  0.4286720000000  0.5267580000000 1.0
C      1  0.4564890000000  0.5353200000000  0.5886570000000 1.0
C      1  0.5150690000000  0.5007810000000  0.4248590000000 1.0
C      1  0.5180540000000  0.4416750000000  0.4174690000000 1.0
C      1  0.5509880000000  0.5006280000000  0.5494740000000 1.0
C      1  0.4381870000000  0.5023090000000  0.4966730000000 1.0
C      1  0.4501520000000  0.5564850000000  0.4680170000000 1.0
C      1  0.3866360000000  0.5068590000000  0.4675100000000 1.0
C      1  0.4526230000000  0.5298680000000  0.4319010000000 1.0
C      1  0.5146210000000  0.4057520000000  0.4881010000000 1.0
C      1  0.4806290000000  0.4510070000000  0.5695800000000 1.0
C      1  0.4885080000000  0.4294950000000  0.4415050000000 1.0
C      1  0.5693110000000  0.4550840000000  0.5569480000000 1.0
C      1  0.4923170000000  0.4773270000000  0.5199500000000 1.0
C      1  0.4216760000000  0.5533960000000  0.5527870000000 1.0
C      1  0.4152870000000  0.6004960000000  0.4820630000000 1.0
C      1  0.5444600000000  0.5443640000000  0.5417950000000 1.0
C      1  0.4383160000000  0.4386420000000  0.5440320000000 1.0
C      1  0.5720550000000  0.5679160000000  0.4997620000000 1.0
C      1  0.5114160000000  0.4484940000000  0.5265790000000 1.0
C      1  0.4893240000000  0.4832330000000  0.4495990000000 1.0
C      1  0.4479340000000  0.4742390000000  0.4532600000000 1.0
C      1  0.5830070000000  0.5346960000000  0.5597060000000 1.0
C      1  0.5159590000000  0.4772800000000  0.4995130000000 1.0
C      1  0.4049990000000  0.5176710000000  0.5208940000000 1.0
C      1  0.5871160000000  0.5376460000000  0.4954700000000 1.0
C      1  0.5729470000000  0.4664040000000  0.5301460000000 1.0
C      1  0.4727440000000  0.4032790000000  0.5155180000000 1.0
C      1  0.4894830000000  0.4615930000000  0.5985850000000 1.0
C      1  0.4905070000000  0.5511950000000  0.5522220000000 1.0
C      1  0.4819990000000  0.4091350000000  0.4855070000000 1.0
C      1  0.4817740000000  0.5912480000000  0.5147860000000 1.0
C      1  0.5037100000000  0.4631300000000  0.5535330000000 1.0
C      1  0.4994210000000  0.5632280000000  0.5978290000000 1.0
C      1  0.5589380000000  0.4980610000000  0.4739950000000 1.0
C      1  0.5397200000000  0.4494470000000  0.4616710000000 1.0
C      1  0.5095700000000  0.5482110000000  0.4777370000000 1.0
C      1  0.5523240000000  0.4701840000000  0.4848620000000 1.0
C      1  0.5806180000000  0.4760280000000  0.4488530000000 1.0
C      1  0.4595050000000  0.4851980000000  0.4761470000000 1.0
C      1  0.4704830000000  0.5089290000000  0.4972660000000 1.0
C      1  0.5242870000000  0.5015750000000  0.4548600000000 1.0
C      1  0.5162600000000  0.4732420000000  0.4681910000000 1.0
C      1  0.4981580000000  0.4024020000000  0.5329450000000 1.0
C      1  0.4961420000000  0.4241100000000  0.5573780000000 1.0
C      1  0.5929380000000  0.4618950000000  0.5100370000000 1.0
C      1  0.5293820000000  0.5598370000000  0.4188650000000 1.0
C      1  0.4478550000000  0.4167340000000  0.4092450000000 1.0
C      1  0.5370240000000  0.5153180000000  0.4031770000000 1.0
C      1  0.5254980000000  0.4283940000000  0.5711100000000 1.0
C      1  0.4266810000000  0.5174170000000  0.4430390000000 1.0
C      1  0.4961790000000  0.5671970000000  0.4193260000000 1.0
C      1  0.4430040000000  0.5055370000000  0.5918980000000 1.0
C      1  0.4954790000000  0.5492640000000  0.5209870000000 1.0
C      1  0.5610800000000  0.5449040000000  0.5776570000000 1.0
C      1  0.4971680000000  0.4757790000000  0.4178250000000 1.0
C      1  0.5039690000000  0.4657300000000  0.3859760000000 1.0
C      1  0.5389180000000  0.5675560000000  0.5649730000000 1.0
C      1  0.5651170000000  0.4803120000000  0.5725560000000 1.0
C      1  0.4932750000000  0.5906500000000  0.5470700000000 1.0
C      1  0.4857090000000  0.5352990000000  0.5984740000000 1.0
C      1  0.4534270000000  0.4909970000000  0.5412060000000 1.0
C      1  0.4636170000000  0.5780790000000  0.5401170000000 1.0
C      1  0.4713800000000  0.4049740000000  0.4560410000000 1.0
C      1  0.4924780000000  0.5015170000000  0.5411740000000 1.0
C      1  0.5727080000000  0.4287520000000  0.4705400000000 1.0
C      1  0.4237930000000  0.5379560000000  0.5796930000000 1.0
C      1  0.4796980000000  0.5154650000000  0.4471920000000 1.0
C      1  0.5423130000000  0.5596500000000  0.5144730000000 1.0
C      1  0.4658420000000  0.4328690000000  0.3939760000000 1.0
C      1  0.5473470000000  0.5165250000000  0.4953840000000 1.0
C      1  0.4932250000000  0.5169860000000  0.6212140000000 1.0
C      1  0.4035400000000  0.4825410000000  0.4663960000000 1.0
C      1  0.4520860000000  0.5615880000000  0.4377220000000 1.0
C      1  0.5529570000000  0.5882540000000  0.4846160000000 1.0
C      1  0.5372780000000  0.5229120000000  0.5676580000000 1.0
C      1  0.5204320000000  0.4444530000000  0.4956420000000 1.0
END
