TITL C-2778424-3986-1108 0.00147406531478981 125000 -792.386869079987 0 0 136 (C1) n - 1
REM
REM in /home/nfs/bkarasulu/CARBON/AIRSS/Generating-Clusters/REBO/Only-C1/SD-CG/HFTN-CG
REM
REM
REM
REM
REM
REM ./C.cell (11c1c37f851c82e70ff6c80c92926a4b)
REM
REM compiler GCC version 9.2.1 20190827 (Red Hat 9.2.1-1)
REM options -cpp -mtune=generic -march=x86-64 -g -O0 -fpre-include=/usr/include/finclude/math-vector-fortran.h
REM seed 1253721398 -330838376 918094212 69246435 -1323123202 -1080732856 1810406389 2043856556 1910254522 5078015 -786080538 221436396 -331238294 -722693769 1387762473 912862267 -301131856 1230725777 -641195534 -314395084 1970639997 45541813 230792032 -1754595107 1452063723 6161191 1184296940 -404551964 1922916583 -1976720565 -5247386 265158088 1915063846
REM
CELL 1.54180   50.00000   50.00000   50.00000   90.00000   90.00000   90.00000
LATT -1
SFAC C  
C      1  0.4022500000000  0.4885700000000  0.5061830000000 1.0
C      1  0.4372360000000  0.4648650000000  0.5106450000000 1.0
C      1  0.5208120000000  0.5621760000000  0.5111060000000 1.0
C      1  0.5799440000000  0.4531850000000  0.4900710000000 1.0
C      1  0.5584300000000  0.5968390000000  0.5001750000000 1.0
C      1  0.5050010000000  0.4510880000000  0.4209330000000 1.0
C      1  0.4028440000000  0.4765960000000  0.4742680000000 1.0
C      1  0.5122610000000  0.5669440000000  0.4420320000000 1.0
C      1  0.5516000000000  0.5675060000000  0.4972580000000 1.0
C      1  0.4833610000000  0.4135710000000  0.5387370000000 1.0
C      1  0.5841430000000  0.4591790000000  0.5185300000000 1.0
C      1  0.4927730000000  0.4936350000000  0.4484740000000 1.0
C      1  0.4476000000000  0.5701200000000  0.4582860000000 1.0
C      1  0.4114250000000  0.4839290000000  0.5360110000000 1.0
C      1  0.4321500000000  0.5283450000000  0.5116010000000 1.0
C      1  0.4666670000000  0.4308690000000  0.5621560000000 1.0
C      1  0.5295440000000  0.4902700000000  0.4336510000000 1.0
C      1  0.4921950000000  0.5356170000000  0.4662320000000 1.0
C      1  0.5074560000000  0.4157390000000  0.4583180000000 1.0
C      1  0.5861970000000  0.5427380000000  0.5634350000000 1.0
C      1  0.5531700000000  0.5134380000000  0.4646330000000 1.0
C      1  0.4443930000000  0.5063840000000  0.5429820000000 1.0
C      1  0.5251280000000  0.4342280000000  0.4277080000000 1.0
C      1  0.5649700000000  0.4477810000000  0.5368850000000 1.0
C      1  0.5590440000000  0.4649100000000  0.5600180000000 1.0
C      1  0.4865380000000  0.4603640000000  0.4440850000000 1.0
C      1  0.5113830000000  0.5421090000000  0.5915310000000 1.0
C      1  0.5342460000000  0.4879430000000  0.4071720000000 1.0
C      1  0.5398460000000  0.5566170000000  0.4325060000000 1.0
C      1  0.5483480000000  0.4764550000000  0.5146470000000 1.0
C      1  0.5422260000000  0.4884630000000  0.4717760000000 1.0
C      1  0.4453400000000  0.5077840000000  0.4802530000000 1.0
C      1  0.5310790000000  0.5939260000000  0.5189760000000 1.0
C      1  0.4793410000000  0.4221070000000  0.4402260000000 1.0
C      1  0.4395350000000  0.5391110000000  0.4810600000000 1.0
C      1  0.5642040000000  0.4942710000000  0.5564970000000 1.0
C      1  0.5349350000000  0.5297110000000  0.4234120000000 1.0
C      1  0.5246990000000  0.5582490000000  0.4692400000000 1.0
C      1  0.4612190000000  0.4708140000000  0.4238490000000 1.0
C      1  0.5718550000000  0.5084780000000  0.4427740000000 1.0
C      1  0.4602010000000  0.5820420000000  0.5196850000000 1.0
C      1  0.4639340000000  0.4023320000000  0.5174940000000 1.0
C      1  0.4394320000000  0.4183010000000  0.5167320000000 1.0
C      1  0.3816990000000  0.5319490000000  0.5224560000000 1.0
C      1  0.5273610000000  0.4766180000000  0.5386180000000 1.0
C      1  0.4409300000000  0.4962820000000  0.5120770000000 1.0
C      1  0.5435790000000  0.5341570000000  0.5941170000000 1.0
C      1  0.4808610000000  0.4952190000000  0.5032820000000 1.0
C      1  0.4790020000000  0.4470310000000  0.5347330000000 1.0
C      1  0.4718430000000  0.5903320000000  0.4602730000000 1.0
C      1  0.4828030000000  0.4432730000000  0.4735960000000 1.0
C      1  0.5128500000000  0.4565840000000  0.4738670000000 1.0
C      1  0.4976920000000  0.5020470000000  0.5310020000000 1.0
C      1  0.5933340000000  0.5347180000000  0.5308590000000 1.0
C      1  0.4510390000000  0.4412610000000  0.4455390000000 1.0
C      1  0.5885640000000  0.4861700000000  0.4483650000000 1.0
C      1  0.5383130000000  0.4303260000000  0.4585220000000 1.0
C      1  0.4490370000000  0.4697980000000  0.5862660000000 1.0
C      1  0.4555360000000  0.4420260000000  0.5839090000000 1.0
C      1  0.5097410000000  0.4692800000000  0.5116540000000 1.0
C      1  0.4538550000000  0.4692890000000  0.4649770000000 1.0
C      1  0.5134960000000  0.5126230000000  0.5790380000000 1.0
C      1  0.4819220000000  0.5159690000000  0.4171180000000 1.0
C      1  0.4907680000000  0.4949810000000  0.4029260000000 1.0
C      1  0.5342970000000  0.4624260000000  0.5752320000000 1.0
C      1  0.4938740000000  0.4815060000000  0.4770590000000 1.0
C      1  0.4612070000000  0.4834960000000  0.5596160000000 1.0
C      1  0.4632660000000  0.4963740000000  0.4543710000000 1.0
C      1  0.4475250000000  0.4972630000000  0.4252660000000 1.0
C      1  0.4557020000000  0.5333870000000  0.5434020000000 1.0
C      1  0.5912430000000  0.5327080000000  0.4967970000000 1.0
C      1  0.4810120000000  0.6008430000000  0.5228540000000 1.0
C      1  0.4698860000000  0.5332820000000  0.4405040000000 1.0
C      1  0.5085600000000  0.5803560000000  0.5597980000000 1.0
C      1  0.5127070000000  0.4527000000000  0.5550200000000 1.0
C      1  0.5562820000000  0.5005440000000  0.5072060000000 1.0
C      1  0.4883300000000  0.4755150000000  0.5471660000000 1.0
C      1  0.5700420000000  0.5533420000000  0.4798040000000 1.0
C      1  0.5119110000000  0.5174940000000  0.4446240000000 1.0
C      1  0.4334100000000  0.4664440000000  0.5499260000000 1.0
C      1  0.4995430000000  0.5620420000000  0.4876690000000 1.0
C      1  0.4359630000000  0.4207060000000  0.4684650000000 1.0
C      1  0.4805570000000  0.5653080000000  0.4421180000000 1.0
C      1  0.5934890000000  0.4866160000000  0.5207880000000 1.0
C      1  0.4636320000000  0.5424630000000  0.5123210000000 1.0
C      1  0.4248100000000  0.4867560000000  0.5870760000000 1.0
C      1  0.4848090000000  0.5265880000000  0.4981730000000 1.0
C      1  0.4936030000000  0.5597010000000  0.5782150000000 1.0
C      1  0.4926620000000  0.4442880000000  0.5060130000000 1.0
C      1  0.5849930000000  0.5047160000000  0.5408130000000 1.0
C      1  0.5732310000000  0.5360010000000  0.5872050000000 1.0
C      1  0.5147010000000  0.4269320000000  0.5388250000000 1.0
C      1  0.5028040000000  0.4038840000000  0.4842480000000 1.0
C      1  0.5277990000000  0.5202030000000  0.5275630000000 1.0
C      1  0.4001480000000  0.5364050000000  0.4753220000000 1.0
C      1  0.4245090000000  0.4622430000000  0.4521000000000 1.0
C      1  0.5172510000000  0.5204080000000  0.4989010000000 1.0
C      1  0.5080640000000  0.5525530000000  0.5402650000000 1.0
C      1  0.4181200000000  0.5008630000000  0.5627250000000 1.0
C      1  0.5387880000000  0.4856570000000  0.3814620000000 1.0
C      1  0.5356970000000  0.5333500000000  0.4762670000000 1.0
C      1  0.5548930000000  0.4303890000000  0.4883210000000 1.0
C      1  0.4861520000000  0.5895940000000  0.4836430000000 1.0
C      1  0.5959640000000  0.4990080000000  0.4945990000000 1.0
C      1  0.4236140000000  0.4260240000000  0.4929440000000 1.0
C      1  0.5052190000000  0.5999430000000  0.5353610000000 1.0
C      1  0.4372270000000  0.5242060000000  0.4432860000000 1.0
C      1  0.5832700000000  0.5650130000000  0.5401260000000 1.0
C      1  0.5379150000000  0.5703800000000  0.5598640000000 1.0
C      1  0.5499500000000  0.5444850000000  0.5319190000000 1.0
C      1  0.5596920000000  0.5164780000000  0.4186170000000 1.0
C      1  0.4669600000000  0.4145780000000  0.4702190000000 1.0
C      1  0.4235970000000  0.4960250000000  0.4570570000000 1.0
C      1  0.4753070000000  0.3954240000000  0.4925200000000 1.0
C      1  0.5147520000000  0.4201930000000  0.5061060000000 1.0
C      1  0.5552390000000  0.5780640000000  0.5353340000000 1.0
C      1  0.4216700000000  0.5483770000000  0.4556230000000 1.0
C      1  0.5407900000000  0.5410900000000  0.5644910000000 1.0
C      1  0.5258500000000  0.4845260000000  0.5895160000000 1.0
C      1  0.5372890000000  0.4558130000000  0.4937600000000 1.0
C      1  0.5622020000000  0.5571740000000  0.4520620000000 1.0
C      1  0.5329080000000  0.5032710000000  0.5544180000000 1.0
C      1  0.5619200000000  0.5264970000000  0.5080770000000 1.0
C      1  0.4980310000000  0.5267730000000  0.5522650000000 1.0
C      1  0.4688070000000  0.5531080000000  0.5675390000000 1.0
C      1  0.4394120000000  0.4417590000000  0.5342440000000 1.0
C      1  0.4544380000000  0.5670040000000  0.5423990000000 1.0
C      1  0.5442710000000  0.4278410000000  0.5211760000000 1.0
C      1  0.4537160000000  0.5677890000000  0.4918520000000 1.0
C      1  0.5201160000000  0.4918710000000  0.4909870000000 1.0
C      1  0.4623160000000  0.4682350000000  0.4939710000000 1.0
C      1  0.4997920000000  0.4692270000000  0.3994760000000 1.0
C      1  0.5901140000000  0.4772520000000  0.4752920000000 1.0
C      1  0.5365570000000  0.4638480000000  0.4519010000000 1.0
C      1  0.4007710000000  0.5213000000000  0.5045600000000 1.0
C      1  0.4116740000000  0.4545440000000  0.4958580000000 1.0
END
