TITL C-2778432-5617-1004 -3.46664527232587e-06 125000 -613.154022584717 0 0 106 (C1) n - 1
REM
REM in /home/nfs/bkarasulu/CARBON/AIRSS/Generating-Clusters/REBO/Only-C1/SD-CG/HFTN-CG
REM
REM
REM
REM
REM
REM ./C.cell (11c1c37f851c82e70ff6c80c92926a4b)
REM
REM compiler GCC version 9.2.1 20190827 (Red Hat 9.2.1-1)
REM options -cpp -mtune=generic -march=x86-64 -g -O0 -fpre-include=/usr/include/finclude/math-vector-fortran.h
REM seed 1348405938 1303588833 -8647811 1370055939 -1313705314 261836782 -897866097 -1946649020 1248727123 1660751643 -1512335256 -376366150 1127305220 291040032 -1451642662 1323109343 9536453 -728253520 -1597211272 -2099787225 152594841 -925005789 -1362222180 -1961829099 1527448086 430236475 -1221207394 1644874955 1558595491 1031394267 -1619242728 398059973 339713630
REM
CELL 1.54180   50.00000   50.00000   50.00000   90.00000   90.00000   90.00000
LATT -1
SFAC C  
C      1  0.5421590000000  0.5749610000000  0.4774290000000 1.0
C      1  0.5684970000000  0.4640120000000  0.5469640000000 1.0
C      1  0.5692520000000  0.4442950000000  0.4912150000000 1.0
C      1  0.4563450000000  0.5042270000000  0.4959480000000 1.0
C      1  0.5866290000000  0.4678300000000  0.5182940000000 1.0
C      1  0.4733790000000  0.5285400000000  0.4680100000000 1.0
C      1  0.4695470000000  0.5116640000000  0.5387170000000 1.0
C      1  0.4921030000000  0.5332520000000  0.5842020000000 1.0
C      1  0.5321220000000  0.4287300000000  0.5424840000000 1.0
C      1  0.4256250000000  0.5350150000000  0.4797560000000 1.0
C      1  0.4405030000000  0.5296940000000  0.5397370000000 1.0
C      1  0.5890240000000  0.4719000000000  0.4863450000000 1.0
C      1  0.5407490000000  0.5127120000000  0.5125550000000 1.0
C      1  0.4530200000000  0.5705520000000  0.5336790000000 1.0
C      1  0.4237870000000  0.4767150000000  0.4497450000000 1.0
C      1  0.5617360000000  0.4348510000000  0.5418420000000 1.0
C      1  0.4568210000000  0.4393840000000  0.4219930000000 1.0
C      1  0.5006300000000  0.4542640000000  0.4698290000000 1.0
C      1  0.5202940000000  0.4904600000000  0.5269940000000 1.0
C      1  0.4872040000000  0.4933950000000  0.4293170000000 1.0
C      1  0.5549070000000  0.4421980000000  0.4641690000000 1.0
C      1  0.5109920000000  0.5217600000000  0.5040640000000 1.0
C      1  0.4762600000000  0.4715760000000  0.5069180000000 1.0
C      1  0.4712970000000  0.5510590000000  0.5740020000000 1.0
C      1  0.4677930000000  0.4562570000000  0.4612800000000 1.0
C      1  0.4369660000000  0.4992490000000  0.4394430000000 1.0
C      1  0.4435410000000  0.5380170000000  0.5719820000000 1.0
C      1  0.4389520000000  0.4507230000000  0.4452390000000 1.0
C      1  0.4949160000000  0.4938970000000  0.4603250000000 1.0
C      1  0.5063390000000  0.5905360000000  0.5149920000000 1.0
C      1  0.5150310000000  0.4482900000000  0.5544320000000 1.0
C      1  0.5574330000000  0.4299930000000  0.5118760000000 1.0
C      1  0.5206940000000  0.5333210000000  0.5716250000000 1.0
C      1  0.4410910000000  0.5491370000000  0.4318980000000 1.0
C      1  0.4833170000000  0.4360640000000  0.4284240000000 1.0
C      1  0.5241660000000  0.4801400000000  0.4367870000000 1.0
C      1  0.5765120000000  0.4634200000000  0.4573060000000 1.0
C      1  0.4687580000000  0.5345190000000  0.4995370000000 1.0
C      1  0.4945930000000  0.4166570000000  0.4981960000000 1.0
C      1  0.5691450000000  0.5208430000000  0.5621770000000 1.0
C      1  0.4700930000000  0.4182580000000  0.5219750000000 1.0
C      1  0.4743630000000  0.5676350000000  0.5508860000000 1.0
C      1  0.4785460000000  0.4635410000000  0.5599780000000 1.0
C      1  0.4686100000000  0.5854500000000  0.4698820000000 1.0
C      1  0.5282830000000  0.4348430000000  0.4646640000000 1.0
C      1  0.5441420000000  0.4923490000000  0.5902810000000 1.0
C      1  0.5108230000000  0.4528060000000  0.5023550000000 1.0
C      1  0.4242060000000  0.5034580000000  0.4877960000000 1.0
C      1  0.5322980000000  0.5265450000000  0.4592830000000 1.0
C      1  0.5089130000000  0.5680930000000  0.4824670000000 1.0
C      1  0.4730830000000  0.4830290000000  0.4773330000000 1.0
C      1  0.5578750000000  0.4849860000000  0.5149130000000 1.0
C      1  0.5853460000000  0.5042810000000  0.4764680000000 1.0
C      1  0.5242830000000  0.4243710000000  0.5109290000000 1.0
C      1  0.5470670000000  0.5800940000000  0.5679800000000 1.0
C      1  0.5062200000000  0.5208420000000  0.4722770000000 1.0
C      1  0.5341940000000  0.4987320000000  0.4194910000000 1.0
C      1  0.5651580000000  0.5310880000000  0.5087650000000 1.0
C      1  0.5004080000000  0.5658530000000  0.5367530000000 1.0
C      1  0.4747270000000  0.5571780000000  0.4519930000000 1.0
C      1  0.4937140000000  0.5235670000000  0.4145200000000 1.0
C      1  0.4940490000000  0.4582570000000  0.5317340000000 1.0
C      1  0.5514600000000  0.5024360000000  0.4553110000000 1.0
C      1  0.4553530000000  0.4937120000000  0.4191430000000 1.0
C      1  0.4893550000000  0.4971030000000  0.5236340000000 1.0
C      1  0.4824050000000  0.5053650000000  0.5881540000000 1.0
C      1  0.5356410000000  0.5771030000000  0.5106370000000 1.0
C      1  0.5160830000000  0.5015080000000  0.5633030000000 1.0
C      1  0.4894420000000  0.5928170000000  0.4886330000000 1.0
C      1  0.4177160000000  0.5065900000000  0.5337440000000 1.0
C      1  0.5801540000000  0.5281230000000  0.5327470000000 1.0
C      1  0.4433460000000  0.5265780000000  0.4529070000000 1.0
C      1  0.4164420000000  0.4784120000000  0.4773070000000 1.0
C      1  0.4901590000000  0.4133570000000  0.4445980000000 1.0
C      1  0.4448060000000  0.4374930000000  0.4760120000000 1.0
C      1  0.4983330000000  0.4619520000000  0.4365170000000 1.0
C      1  0.5257080000000  0.4671180000000  0.5799120000000 1.0
C      1  0.4616280000000  0.5126230000000  0.5686120000000 1.0
C      1  0.4984000000000  0.5503840000000  0.4322680000000 1.0
C      1  0.5733900000000  0.5291920000000  0.4811130000000 1.0
C      1  0.5481720000000  0.5177690000000  0.5800780000000 1.0
C      1  0.4195260000000  0.5337470000000  0.5132300000000 1.0
C      1  0.4352760000000  0.4584400000000  0.5179710000000 1.0
C      1  0.5550050000000  0.5503040000000  0.4617970000000 1.0
C      1  0.5246610000000  0.5243310000000  0.4172190000000 1.0
C      1  0.5268740000000  0.4867780000000  0.4697600000000 1.0
C      1  0.4451820000000  0.5541890000000  0.5085730000000 1.0
C      1  0.5306250000000  0.4771540000000  0.4973500000000 1.0
C      1  0.5320810000000  0.5469050000000  0.4943750000000 1.0
C      1  0.5405690000000  0.4803450000000  0.5522970000000 1.0
C      1  0.4702690000000  0.4404310000000  0.4976040000000 1.0
C      1  0.5694730000000  0.4867490000000  0.4432140000000 1.0
C      1  0.4515560000000  0.4660530000000  0.5630590000000 1.0
C      1  0.4958190000000  0.4793200000000  0.5788950000000 1.0
C      1  0.5763640000000  0.4961640000000  0.5417150000000 1.0
C      1  0.4672030000000  0.5132110000000  0.4010620000000 1.0
C      1  0.4333250000000  0.4813310000000  0.5506750000000 1.0
C      1  0.4484150000000  0.4364880000000  0.5307860000000 1.0
C      1  0.5478790000000  0.5730590000000  0.5371740000000 1.0
C      1  0.5056300000000  0.4147360000000  0.4684690000000 1.0
C      1  0.4952720000000  0.5505630000000  0.5085500000000 1.0
C      1  0.4423950000000  0.4890710000000  0.5200360000000 1.0
C      1  0.5321960000000  0.5501270000000  0.4362810000000 1.0
C      1  0.5244500000000  0.5577110000000  0.5555330000000 1.0
C      1  0.4490370000000  0.5593120000000  0.4751430000000 1.0
C      1  0.4243940000000  0.4544830000000  0.4921490000000 1.0
END
