TITL C-2778431-5191-1431 0.00130272969088537 125000 -430.631721740727 0 0 75 (C1) n - 1
REM
REM in /home/nfs/bkarasulu/CARBON/AIRSS/Generating-Clusters/REBO/Only-C1/SD-CG/HFTN-CG
REM
REM
REM
REM
REM
REM ./C.cell (11c1c37f851c82e70ff6c80c92926a4b)
REM
REM compiler GCC version 9.2.1 20190827 (Red Hat 9.2.1-1)
REM options -cpp -mtune=generic -march=x86-64 -g -O0 -fpre-include=/usr/include/finclude/math-vector-fortran.h
REM seed -1349426830 882561624 -1808339762 1896814169 -1995085631 -1594119796 -1502973005 -938472926 1809714118 -533481054 -962434134 1071217939 -154819709 -813515777 -1870294846 2067246080 1167492369 -8148253 -829011998 2032829671 -2133692911 -572627215 -185631690 1837161892 598099005 729237514 -1236904535 1544772799 -1748107006 -1427618067 -516493043 1412789929 183887970
REM
CELL 1.54180   50.00000   50.00000   50.00000   90.00000   90.00000   90.00000
LATT -1
SFAC C  
C      1  0.5131430000000  0.5431820000000  0.5098110000000 1.0
C      1  0.5550830000000  0.4760680000000  0.4921320000000 1.0
C      1  0.4620550000000  0.5267880000000  0.4567920000000 1.0
C      1  0.4316440000000  0.5259790000000  0.5019470000000 1.0
C      1  0.4840060000000  0.5334370000000  0.5170970000000 1.0
C      1  0.4188100000000  0.4999990000000  0.5103390000000 1.0
C      1  0.5434070000000  0.4470450000000  0.4611260000000 1.0
C      1  0.5525530000000  0.4487560000000  0.5018980000000 1.0
C      1  0.5826630000000  0.5199210000000  0.4919910000000 1.0
C      1  0.5224330000000  0.5686630000000  0.4381970000000 1.0
C      1  0.4956950000000  0.4826580000000  0.4690390000000 1.0
C      1  0.4276260000000  0.4499490000000  0.5134570000000 1.0
C      1  0.4664890000000  0.4997040000000  0.4731970000000 1.0
C      1  0.4851820000000  0.4532760000000  0.4645430000000 1.0
C      1  0.5272510000000  0.5432450000000  0.4292840000000 1.0
C      1  0.4475040000000  0.4804500000000  0.5299520000000 1.0
C      1  0.4937110000000  0.4515990000000  0.5215590000000 1.0
C      1  0.4876610000000  0.5196660000000  0.5462620000000 1.0
C      1  0.5200830000000  0.4491640000000  0.5508210000000 1.0
C      1  0.4985680000000  0.4865010000000  0.5027510000000 1.0
C      1  0.5685560000000  0.4986160000000  0.4724050000000 1.0
C      1  0.5488790000000  0.4471300000000  0.5349370000000 1.0
C      1  0.4981250000000  0.4298460000000  0.4785600000000 1.0
C      1  0.4378870000000  0.5266540000000  0.4421270000000 1.0
C      1  0.4773880000000  0.4719710000000  0.5693550000000 1.0
C      1  0.5202530000000  0.5812820000000  0.4633420000000 1.0
C      1  0.5254120000000  0.5254900000000  0.4015780000000 1.0
C      1  0.4380860000000  0.4529760000000  0.5442920000000 1.0
C      1  0.5060330000000  0.4595740000000  0.5783720000000 1.0
C      1  0.5178730000000  0.5102330000000  0.4880650000000 1.0
C      1  0.5256250000000  0.5546480000000  0.5386100000000 1.0
C      1  0.5523550000000  0.4724180000000  0.5539190000000 1.0
C      1  0.5397090000000  0.5237870000000  0.5186370000000 1.0
C      1  0.4448190000000  0.4765760000000  0.4749050000000 1.0
C      1  0.4573560000000  0.4533880000000  0.4633930000000 1.0
C      1  0.4794910000000  0.5757540000000  0.5381850000000 1.0
C      1  0.5356340000000  0.5269600000000  0.5513890000000 1.0
C      1  0.4257880000000  0.4748860000000  0.4969230000000 1.0
C      1  0.4667450000000  0.4557420000000  0.5166450000000 1.0
C      1  0.4740820000000  0.4948570000000  0.5180350000000 1.0
C      1  0.5698220000000  0.5294540000000  0.5114840000000 1.0
C      1  0.5456450000000  0.4767140000000  0.4599300000000 1.0
C      1  0.4632520000000  0.5179480000000  0.4990650000000 1.0
C      1  0.5249890000000  0.5229180000000  0.4511080000000 1.0
C      1  0.5202280000000  0.4977110000000  0.4205460000000 1.0
C      1  0.5005670000000  0.4243830000000  0.5395320000000 1.0
C      1  0.4929180000000  0.5566830000000  0.4858610000000 1.0
C      1  0.5186570000000  0.4721960000000  0.5256490000000 1.0
C      1  0.4996050000000  0.5304680000000  0.4700670000000 1.0
C      1  0.4731120000000  0.4142240000000  0.4947120000000 1.0
C      1  0.4529330000000  0.4318520000000  0.5042500000000 1.0
C      1  0.5296020000000  0.4315520000000  0.4830030000000 1.0
C      1  0.5117320000000  0.5808210000000  0.4967770000000 1.0
C      1  0.5201370000000  0.4907120000000  0.4505110000000 1.0
C      1  0.5097940000000  0.5820920000000  0.5279480000000 1.0
C      1  0.5359330000000  0.4223830000000  0.5152460000000 1.0
C      1  0.5421250000000  0.5740170000000  0.4847570000000 1.0
C      1  0.5384280000000  0.5283990000000  0.3780250000000 1.0
C      1  0.4868410000000  0.4338670000000  0.5668580000000 1.0
C      1  0.4640670000000  0.5507580000000  0.4763020000000 1.0
C      1  0.4331900000000  0.5090830000000  0.5380310000000 1.0
C      1  0.5468390000000  0.5227650000000  0.4744940000000 1.0
C      1  0.4945520000000  0.5272950000000  0.4128990000000 1.0
C      1  0.5202550000000  0.6059680000000  0.5387870000000 1.0
C      1  0.4429950000000  0.5519720000000  0.4935190000000 1.0
C      1  0.5314710000000  0.4768410000000  0.5777420000000 1.0
C      1  0.4582810000000  0.4473800000000  0.5637570000000 1.0
C      1  0.4873740000000  0.5283030000000  0.4386860000000 1.0
C      1  0.5040070000000  0.4151450000000  0.5088840000000 1.0
C      1  0.5433050000000  0.5030910000000  0.5633270000000 1.0
C      1  0.4780930000000  0.4933420000000  0.5519770000000 1.0
C      1  0.5559810000000  0.5513670000000  0.4811760000000 1.0
C      1  0.4441470000000  0.5349330000000  0.5436220000000 1.0
C      1  0.4664620000000  0.5516920000000  0.5355590000000 1.0
C      1  0.5370010000000  0.4928360000000  0.5100410000000 1.0
END
