TITL C-2778437-8639-1309 -0.00195556386918177 125000 -1141.26641421497 0 0 197 (C1) n - 1
REM
REM in /home/nfs/bkarasulu/CARBON/AIRSS/Generating-Clusters/REBO/Only-C1/SD-CG/HFTN-CG
REM
REM
REM
REM
REM
REM ./C.cell (11c1c37f851c82e70ff6c80c92926a4b)
REM
REM compiler GCC version 9.2.1 20190827 (Red Hat 9.2.1-1)
REM options -cpp -mtune=generic -march=x86-64 -g -O0 -fpre-include=/usr/include/finclude/math-vector-fortran.h
REM seed 2032558932 1257289092 -1334724807 963377150 -1548614236 -2124225299 1322008880 -46016785 1797505642 790541196 -1263091800 1437764986 -1556837207 -1884410261 2024906241 -72854878 1623735760 -1747245015 -1230769482 -357004453 -1759743509 871146985 -1675055470 91253181 -87842621 -1787672731 -2131760670 -435661051 2088308436 2127194943 125890570 -769016035 -90266507
REM
CELL 1.54180   50.00000   50.00000   50.00000   90.00000   90.00000   90.00000
LATT -1
SFAC C  
C      1  0.6059050000000  0.4531160000000  0.4972610000000 1.0
C      1  0.5136830000000  0.3899590000000  0.4937240000000 1.0
C      1  0.4322500000000  0.4967590000000  0.4500930000000 1.0
C      1  0.5653320000000  0.4367050000000  0.5258970000000 1.0
C      1  0.4570770000000  0.4523550000000  0.5839490000000 1.0
C      1  0.4965910000000  0.5171050000000  0.5686630000000 1.0
C      1  0.4444070000000  0.4628530000000  0.5187490000000 1.0
C      1  0.5109870000000  0.4599930000000  0.5256790000000 1.0
C      1  0.5535980000000  0.5419190000000  0.4733140000000 1.0
C      1  0.6110940000000  0.4929550000000  0.5284430000000 1.0
C      1  0.4723970000000  0.4307950000000  0.5188590000000 1.0
C      1  0.5677010000000  0.4072100000000  0.5305530000000 1.0
C      1  0.5095990000000  0.4262810000000  0.5328290000000 1.0
C      1  0.4767160000000  0.5212940000000  0.6279200000000 1.0
C      1  0.3928460000000  0.5649610000000  0.4913960000000 1.0
C      1  0.4320140000000  0.4768360000000  0.4126820000000 1.0
C      1  0.6166290000000  0.5093850000000  0.5052610000000 1.0
C      1  0.5484580000000  0.5115740000000  0.3933770000000 1.0
C      1  0.5971950000000  0.4994420000000  0.5555760000000 1.0
C      1  0.4342580000000  0.5370550000000  0.4314560000000 1.0
C      1  0.5273330000000  0.4530770000000  0.4740150000000 1.0
C      1  0.5524550000000  0.5335230000000  0.4421470000000 1.0
C      1  0.4095750000000  0.4508940000000  0.5432100000000 1.0
C      1  0.6042270000000  0.4656650000000  0.5235870000000 1.0
C      1  0.4626540000000  0.4436750000000  0.4889320000000 1.0
C      1  0.5225120000000  0.4828850000000  0.5405240000000 1.0
C      1  0.4940740000000  0.6148760000000  0.5131890000000 1.0
C      1  0.5141530000000  0.5487030000000  0.4031380000000 1.0
C      1  0.5654150000000  0.4092030000000  0.4970650000000 1.0
C      1  0.4889670000000  0.5047680000000  0.4364970000000 1.0
C      1  0.4493940000000  0.3882710000000  0.4805380000000 1.0
C      1  0.5419910000000  0.5691270000000  0.4758340000000 1.0
C      1  0.4644980000000  0.6097260000000  0.5059520000000 1.0
C      1  0.5465350000000  0.4346500000000  0.4249240000000 1.0
C      1  0.5828180000000  0.4566110000000  0.5383760000000 1.0
C      1  0.5565090000000  0.5920520000000  0.4581900000000 1.0
C      1  0.5286610000000  0.5193930000000  0.4706690000000 1.0
C      1  0.4282010000000  0.4070500000000  0.4984180000000 1.0
C      1  0.5329990000000  0.4660820000000  0.6003260000000 1.0
C      1  0.4579410000000  0.4009920000000  0.5109860000000 1.0
C      1  0.5448180000000  0.4350680000000  0.5668950000000 1.0
C      1  0.4601040000000  0.5999360000000  0.4735540000000 1.0
C      1  0.5899600000000  0.5952990000000  0.4991610000000 1.0
C      1  0.4362680000000  0.5118080000000  0.5333360000000 1.0
C      1  0.5381690000000  0.4440710000000  0.5144160000000 1.0
C      1  0.5606560000000  0.4801670000000  0.5904410000000 1.0
C      1  0.5721380000000  0.4262010000000  0.4433820000000 1.0
C      1  0.4305570000000  0.5102600000000  0.4126310000000 1.0
C      1  0.4731410000000  0.3984680000000  0.4503430000000 1.0
C      1  0.4033610000000  0.5366160000000  0.5051220000000 1.0
C      1  0.4356050000000  0.5941720000000  0.4948280000000 1.0
C      1  0.4257900000000  0.5228450000000  0.5846140000000 1.0
C      1  0.5128690000000  0.5157740000000  0.4064730000000 1.0
C      1  0.4580690000000  0.4961240000000  0.4041790000000 1.0
C      1  0.4864990000000  0.4461250000000  0.4647710000000 1.0
C      1  0.4081830000000  0.5194490000000  0.4422490000000 1.0
C      1  0.5323850000000  0.4790890000000  0.4415850000000 1.0
C      1  0.5563570000000  0.4048070000000  0.5562160000000 1.0
C      1  0.5252170000000  0.6002790000000  0.5143380000000 1.0
C      1  0.4766280000000  0.5574380000000  0.5848040000000 1.0
C      1  0.4457490000000  0.5430860000000  0.5825550000000 1.0
C      1  0.5295070000000  0.5637810000000  0.5796420000000 1.0
C      1  0.5792600000000  0.5604320000000  0.5397600000000 1.0
C      1  0.6013930000000  0.5160730000000  0.4537990000000 1.0
C      1  0.4325280000000  0.4372630000000  0.4860560000000 1.0
C      1  0.4985640000000  0.5059190000000  0.5108020000000 1.0
C      1  0.4420930000000  0.5946940000000  0.5274040000000 1.0
C      1  0.5706640000000  0.4923000000000  0.4784080000000 1.0
C      1  0.4104820000000  0.4993070000000  0.5454680000000 1.0
C      1  0.4818550000000  0.5783550000000  0.4788450000000 1.0
C      1  0.4437140000000  0.4950680000000  0.5079520000000 1.0
C      1  0.4636200000000  0.4987580000000  0.6060860000000 1.0
C      1  0.4831310000000  0.4253120000000  0.4366590000000 1.0
C      1  0.4676710000000  0.4047130000000  0.5591150000000 1.0
C      1  0.5745540000000  0.5079170000000  0.5345940000000 1.0
C      1  0.4889440000000  0.5044140000000  0.5405930000000 1.0
C      1  0.5191180000000  0.4238080000000  0.4720350000000 1.0
C      1  0.3755210000000  0.5512790000000  0.5159290000000 1.0
C      1  0.5499990000000  0.6004210000000  0.5358840000000 1.0
C      1  0.6035140000000  0.4393300000000  0.4658970000000 1.0
C      1  0.4908870000000  0.4459920000000  0.5810100000000 1.0
C      1  0.4692370000000  0.5855130000000  0.5415040000000 1.0
C      1  0.5057940000000  0.4579050000000  0.4409000000000 1.0
C      1  0.4785110000000  0.5756770000000  0.4288530000000 1.0
C      1  0.5390060000000  0.4889560000000  0.5681960000000 1.0
C      1  0.4089330000000  0.5554390000000  0.5470230000000 1.0
C      1  0.5717930000000  0.5677700000000  0.4392050000000 1.0
C      1  0.4653100000000  0.4487850000000  0.4275850000000 1.0
C      1  0.4704490000000  0.5712510000000  0.4003580000000 1.0
C      1  0.4814940000000  0.5862910000000  0.5718520000000 1.0
C      1  0.5145330000000  0.5089560000000  0.5957740000000 1.0
C      1  0.4254720000000  0.4529100000000  0.4254480000000 1.0
C      1  0.5108690000000  0.6209820000000  0.4841610000000 1.0
C      1  0.4320290000000  0.5332610000000  0.5096790000000 1.0
C      1  0.5110190000000  0.4834530000000  0.6045140000000 1.0
C      1  0.4755650000000  0.5501950000000  0.4637540000000 1.0
C      1  0.4355560000000  0.4978550000000  0.5944360000000 1.0
C      1  0.5924490000000  0.4710220000000  0.4724100000000 1.0
C      1  0.4488580000000  0.5159050000000  0.4858240000000 1.0
C      1  0.4953610000000  0.6049730000000  0.5457070000000 1.0
C      1  0.4411930000000  0.3997050000000  0.4495540000000 1.0
C      1  0.4802080000000  0.5110670000000  0.3980800000000 1.0
C      1  0.4801140000000  0.4725830000000  0.5993800000000 1.0
C      1  0.4037800000000  0.4800950000000  0.4450310000000 1.0
C      1  0.5375300000000  0.5098860000000  0.4297800000000 1.0
C      1  0.5054660000000  0.5264270000000  0.4468010000000 1.0
C      1  0.4722000000000  0.5653460000000  0.5175070000000 1.0
C      1  0.4235340000000  0.5296120000000  0.4709240000000 1.0
C      1  0.5022240000000  0.5765750000000  0.5060580000000 1.0
C      1  0.5437590000000  0.5894650000000  0.5621980000000 1.0
C      1  0.5517420000000  0.5544620000000  0.5110820000000 1.0
C      1  0.5388360000000  0.5387020000000  0.3868200000000 1.0
C      1  0.5200030000000  0.4402550000000  0.5883730000000 1.0
C      1  0.5169840000000  0.5387940000000  0.5853050000000 1.0
C      1  0.4899090000000  0.4156680000000  0.4746130000000 1.0
C      1  0.4338620000000  0.5668500000000  0.5415980000000 1.0
C      1  0.5969650000000  0.4874850000000  0.4461140000000 1.0
C      1  0.5081510000000  0.5396780000000  0.4843550000000 1.0
C      1  0.4220300000000  0.4480970000000  0.4590380000000 1.0
C      1  0.4859260000000  0.4399270000000  0.5491700000000 1.0
C      1  0.4227700000000  0.5598230000000  0.4789950000000 1.0
C      1  0.5557900000000  0.4557530000000  0.4808400000000 1.0
C      1  0.4668960000000  0.5383220000000  0.4370700000000 1.0
C      1  0.5924900000000  0.4521870000000  0.4373570000000 1.0
C      1  0.4634380000000  0.4753630000000  0.4792750000000 1.0
C      1  0.4454260000000  0.5627900000000  0.5036050000000 1.0
C      1  0.5407940000000  0.4756030000000  0.5040650000000 1.0
C      1  0.4566670000000  0.5489760000000  0.5516360000000 1.0
C      1  0.4126860000000  0.4733860000000  0.5600380000000 1.0
C      1  0.5133130000000  0.5925290000000  0.5713360000000 1.0
C      1  0.5478830000000  0.5226000000000  0.5087050000000 1.0
C      1  0.4592230000000  0.5062250000000  0.4428230000000 1.0
C      1  0.4820100000000  0.5410670000000  0.4092310000000 1.0
C      1  0.4161500000000  0.4773160000000  0.5055740000000 1.0
C      1  0.5329520000000  0.4108940000000  0.4455330000000 1.0
C      1  0.5289930000000  0.5046220000000  0.5078010000000 1.0
C      1  0.5119630000000  0.5367340000000  0.5374750000000 1.0
C      1  0.4636940000000  0.4899150000000  0.5673080000000 1.0
C      1  0.4162720000000  0.4333260000000  0.5148150000000 1.0
C      1  0.5602370000000  0.5328400000000  0.5463950000000 1.0
C      1  0.5109540000000  0.4753640000000  0.4765020000000 1.0
C      1  0.4781400000000  0.4645160000000  0.5190570000000 1.0
C      1  0.5279230000000  0.4852360000000  0.4003440000000 1.0
C      1  0.5069350000000  0.5585030000000  0.4351350000000 1.0
C      1  0.4778350000000  0.4617000000000  0.4067670000000 1.0
C      1  0.3786970000000  0.5036000000000  0.4904010000000 1.0
C      1  0.5678830000000  0.4059490000000  0.4637260000000 1.0
C      1  0.5465840000000  0.3856180000000  0.5785530000000 1.0
C      1  0.4997260000000  0.4805500000000  0.4187860000000 1.0
C      1  0.4296420000000  0.4755910000000  0.4751800000000 1.0
C      1  0.5041080000000  0.3997930000000  0.5244530000000 1.0
C      1  0.5838270000000  0.5357880000000  0.4348720000000 1.0
C      1  0.4832530000000  0.3839540000000  0.4797470000000 1.0
C      1  0.5209530000000  0.5518170000000  0.5114300000000 1.0
C      1  0.4034590000000  0.5264800000000  0.5622670000000 1.0
C      1  0.5778240000000  0.4367980000000  0.4870130000000 1.0
C      1  0.5491830000000  0.4647890000000  0.4173780000000 1.0
C      1  0.5133510000000  0.4289190000000  0.4271530000000 1.0
C      1  0.5389900000000  0.3894710000000  0.4708790000000 1.0
C      1  0.4793230000000  0.5272580000000  0.5961680000000 1.0
C      1  0.6112620000000  0.5184940000000  0.4796160000000 1.0
C      1  0.5553290000000  0.4848640000000  0.5320730000000 1.0
C      1  0.4764790000000  0.5277020000000  0.4856520000000 1.0
C      1  0.4847310000000  0.5363660000000  0.5169260000000 1.0
C      1  0.5605720000000  0.5826730000000  0.5087300000000 1.0
C      1  0.5317950000000  0.5154000000000  0.5478370000000 1.0
C      1  0.5228050000000  0.6002320000000  0.4598320000000 1.0
C      1  0.5711120000000  0.5098870000000  0.4163410000000 1.0
C      1  0.4516340000000  0.4268540000000  0.5640920000000 1.0
C      1  0.5915730000000  0.5576760000000  0.5124030000000 1.0
C      1  0.4893400000000  0.4878630000000  0.4877110000000 1.0
C      1  0.4286020000000  0.4226510000000  0.4387190000000 1.0
C      1  0.3915750000000  0.4970760000000  0.5183010000000 1.0
C      1  0.4363880000000  0.5629510000000  0.4499110000000 1.0
C      1  0.3832870000000  0.5258770000000  0.5347610000000 1.0
C      1  0.4562960000000  0.4652300000000  0.4475810000000 1.0
C      1  0.5467400000000  0.4946750000000  0.4655760000000 1.0
C      1  0.5339850000000  0.4168260000000  0.4993340000000 1.0
C      1  0.4892940000000  0.5526890000000  0.5531550000000 1.0
C      1  0.4308250000000  0.4727870000000  0.5818210000000 1.0
C      1  0.5777310000000  0.4780700000000  0.4212750000000 1.0
C      1  0.4589100000000  0.5165180000000  0.5518010000000 1.0
C      1  0.5585180000000  0.5600970000000  0.5650360000000 1.0
C      1  0.4384260000000  0.4368360000000  0.5396060000000 1.0
C      1  0.4832540000000  0.4726770000000  0.5515050000000 1.0
C      1  0.4576040000000  0.5818990000000  0.4473400000000 1.0
C      1  0.5769010000000  0.5104650000000  0.5016080000000 1.0
C      1  0.3923350000000  0.5158940000000  0.4708240000000 1.0
C      1  0.4774410000000  0.3940910000000  0.5338600000000 1.0
C      1  0.5425670000000  0.6075040000000  0.4859180000000 1.0
C      1  0.5549260000000  0.4607300000000  0.5561220000000 1.0
C      1  0.5866850000000  0.4883190000000  0.5802390000000 1.0
C      1  0.5399040000000  0.5629580000000  0.4366890000000 1.0
C      1  0.5791800000000  0.5403530000000  0.4919130000000 1.0
C      1  0.5830860000000  0.5931880000000  0.5312120000000 1.0
C      1  0.5104290000000  0.5692910000000  0.4673260000000 1.0
C      1  0.5343980000000  0.4105990000000  0.5886740000000 1.0
END
