TITL C-2778429-3646-1308 -0.00326694616658431 125000 -625.521948498548 0 0 108 (C1) n - 1
REM
REM in /home/nfs/bkarasulu/CARBON/AIRSS/Generating-Clusters/REBO/Only-C1/SD-CG/HFTN-CG
REM
REM
REM
REM
REM
REM ./C.cell (11c1c37f851c82e70ff6c80c92926a4b)
REM
REM compiler GCC version 9.2.1 20190827 (Red Hat 9.2.1-1)
REM options -cpp -mtune=generic -march=x86-64 -g -O0 -fpre-include=/usr/include/finclude/math-vector-fortran.h
REM seed 1208011651 -685045259 2006670987 918784569 1149924901 1517024517 968715794 -947912628 1500069001 -902961435 -93493180 2028083902 743407473 -1238192817 -1454030767 -717080522 745877085 2031422317 154126446 -1491360985 -1782397170 -1169744085 1126348145 -1172189783 -1071563393 1513994549 -1427365590 -339855080 596264677 1679546548 2102029010 830938005 -1066257276
REM
CELL 1.54180   50.00000   50.00000   50.00000   90.00000   90.00000   90.00000
LATT -1
SFAC C  
C      1  0.5084220000000  0.4313580000000  0.5303060000000 1.0
C      1  0.4361710000000  0.4860640000000  0.4910450000000 1.0
C      1  0.4908380000000  0.5022950000000  0.4128740000000 1.0
C      1  0.4190500000000  0.4991570000000  0.4675590000000 1.0
C      1  0.5507900000000  0.5152490000000  0.5717230000000 1.0
C      1  0.4436770000000  0.5503570000000  0.5135600000000 1.0
C      1  0.5690550000000  0.4502360000000  0.5035910000000 1.0
C      1  0.4292120000000  0.5218040000000  0.4475870000000 1.0
C      1  0.5002400000000  0.5402560000000  0.4309850000000 1.0
C      1  0.4218440000000  0.4638330000000  0.4989510000000 1.0
C      1  0.5205660000000  0.4734180000000  0.4611970000000 1.0
C      1  0.5369190000000  0.5218750000000  0.4880420000000 1.0
C      1  0.5271890000000  0.4862370000000  0.4150340000000 1.0
C      1  0.4777260000000  0.5076110000000  0.5304960000000 1.0
C      1  0.4377750000000  0.4355100000000  0.5215510000000 1.0
C      1  0.5316000000000  0.5193700000000  0.5982140000000 1.0
C      1  0.4851990000000  0.4912630000000  0.4656990000000 1.0
C      1  0.5517240000000  0.4753320000000  0.5740780000000 1.0
C      1  0.4888190000000  0.5644000000000  0.4427630000000 1.0
C      1  0.4498240000000  0.4322870000000  0.4943750000000 1.0
C      1  0.4813870000000  0.5393480000000  0.5200730000000 1.0
C      1  0.5100930000000  0.5843910000000  0.4449700000000 1.0
C      1  0.5126300000000  0.5561810000000  0.5588220000000 1.0
C      1  0.5189710000000  0.4397900000000  0.5678980000000 1.0
C      1  0.4866170000000  0.5819120000000  0.4899100000000 1.0
C      1  0.5351610000000  0.4721240000000  0.5097580000000 1.0
C      1  0.4556520000000  0.4312850000000  0.5477180000000 1.0
C      1  0.5319490000000  0.4932940000000  0.4845490000000 1.0
C      1  0.5511980000000  0.5909970000000  0.4721240000000 1.0
C      1  0.5660360000000  0.4909790000000  0.4532920000000 1.0
C      1  0.4582320000000  0.5092110000000  0.5887900000000 1.0
C      1  0.5027340000000  0.5302740000000  0.5875380000000 1.0
C      1  0.4282000000000  0.4684040000000  0.4563040000000 1.0
C      1  0.5845010000000  0.4631600000000  0.5298620000000 1.0
C      1  0.5571610000000  0.5713910000000  0.5451700000000 1.0
C      1  0.4422800000000  0.5551480000000  0.4852640000000 1.0
C      1  0.4959140000000  0.4649170000000  0.5111100000000 1.0
C      1  0.5724000000000  0.4961780000000  0.5640280000000 1.0
C      1  0.4778880000000  0.5214000000000  0.4932710000000 1.0
C      1  0.4094070000000  0.5152630000000  0.4955300000000 1.0
C      1  0.4284350000000  0.5239990000000  0.5216150000000 1.0
C      1  0.4407620000000  0.4918480000000  0.4349400000000 1.0
C      1  0.4115410000000  0.4943930000000  0.5223560000000 1.0
C      1  0.4558920000000  0.4927110000000  0.5087080000000 1.0
C      1  0.4594070000000  0.5263950000000  0.4422020000000 1.0
C      1  0.5589020000000  0.4448960000000  0.5356530000000 1.0
C      1  0.4921300000000  0.6080750000000  0.4930420000000 1.0
C      1  0.5063350000000  0.6122300000000  0.4481160000000 1.0
C      1  0.4807860000000  0.4187680000000  0.5459110000000 1.0
C      1  0.4940510000000  0.4949060000000  0.4966770000000 1.0
C      1  0.4961690000000  0.4592620000000  0.4795750000000 1.0
C      1  0.4541510000000  0.5306870000000  0.5665190000000 1.0
C      1  0.4350260000000  0.4823330000000  0.5541100000000 1.0
C      1  0.5344880000000  0.5711830000000  0.5603400000000 1.0
C      1  0.5228170000000  0.4295770000000  0.4802430000000 1.0
C      1  0.5113000000000  0.5019530000000  0.5242150000000 1.0
C      1  0.4193590000000  0.4624980000000  0.5313150000000 1.0
C      1  0.5902330000000  0.4857500000000  0.5451560000000 1.0
C      1  0.5622080000000  0.5541360000000  0.5247620000000 1.0
C      1  0.5181890000000  0.5146880000000  0.5613800000000 1.0
C      1  0.4999690000000  0.6242460000000  0.4721290000000 1.0
C      1  0.4967240000000  0.5521600000000  0.4798220000000 1.0
C      1  0.4978830000000  0.5031270000000  0.4443230000000 1.0
C      1  0.5592940000000  0.4430380000000  0.4728630000000 1.0
C      1  0.5870120000000  0.4997310000000  0.4399870000000 1.0
C      1  0.4724630000000  0.4543900000000  0.4573310000000 1.0
C      1  0.4948300000000  0.4165780000000  0.4721790000000 1.0
C      1  0.4872050000000  0.4089930000000  0.5173880000000 1.0
C      1  0.5516890000000  0.5322550000000  0.5122490000000 1.0
C      1  0.4759830000000  0.5301420000000  0.4640860000000 1.0
C      1  0.5765380000000  0.5220220000000  0.4826550000000 1.0
C      1  0.4686690000000  0.4696600000000  0.5223940000000 1.0
C      1  0.5359580000000  0.5725770000000  0.4576450000000 1.0
C      1  0.4462080000000  0.5100520000000  0.5432840000000 1.0
C      1  0.4223440000000  0.5381580000000  0.4739780000000 1.0
C      1  0.5706420000000  0.5369890000000  0.4608540000000 1.0
C      1  0.5246860000000  0.5459950000000  0.4718150000000 1.0
C      1  0.5022350000000  0.4552930000000  0.4405820000000 1.0
C      1  0.5273820000000  0.4410840000000  0.5057030000000 1.0
C      1  0.5400470000000  0.4600370000000  0.4273320000000 1.0
C      1  0.5446260000000  0.4484830000000  0.5593890000000 1.0
C      1  0.4530500000000  0.4827900000000  0.5803080000000 1.0
C      1  0.5371130000000  0.4956630000000  0.4450980000000 1.0
C      1  0.5286840000000  0.4892160000000  0.5923840000000 1.0
C      1  0.5372490000000  0.4387480000000  0.4505520000000 1.0
C      1  0.4723610000000  0.4622450000000  0.5823960000000 1.0
C      1  0.5452420000000  0.5013010000000  0.5211820000000 1.0
C      1  0.5080770000000  0.5328510000000  0.5363020000000 1.0
C      1  0.4970410000000  0.4705780000000  0.4128930000000 1.0
C      1  0.5160670000000  0.4639920000000  0.5361880000000 1.0
C      1  0.4566310000000  0.4609920000000  0.5456430000000 1.0
C      1  0.5210490000000  0.4807860000000  0.5599950000000 1.0
C      1  0.4684390000000  0.4736360000000  0.4311090000000 1.0
C      1  0.5682560000000  0.4741980000000  0.4799390000000 1.0
C      1  0.4659530000000  0.5682890000000  0.4680080000000 1.0
C      1  0.5192770000000  0.5192940000000  0.4113370000000 1.0
C      1  0.4627620000000  0.5104960000000  0.4167110000000 1.0
C      1  0.5525350000000  0.5496240000000  0.4433910000000 1.0
C      1  0.4823170000000  0.5493600000000  0.5680760000000 1.0
C      1  0.5071260000000  0.4238530000000  0.4447270000000 1.0
C      1  0.5692130000000  0.5000120000000  0.4969900000000 1.0
C      1  0.5223730000000  0.5231770000000  0.4508140000000 1.0
C      1  0.4802980000000  0.5154190000000  0.6037680000000 1.0
C      1  0.4458230000000  0.4491900000000  0.4705020000000 1.0
C      1  0.4944150000000  0.4476270000000  0.5765880000000 1.0
C      1  0.4612700000000  0.5529390000000  0.5415010000000 1.0
C      1  0.4749860000000  0.4158380000000  0.4928200000000 1.0
C      1  0.5427750000000  0.5390260000000  0.4203440000000 1.0
END
