TITL C-2778432-5617-962 -0.00322726455090794 125000 -990.257902105444 0 0 170 (C1) n - 1
REM
REM in /home/nfs/bkarasulu/CARBON/AIRSS/Generating-Clusters/REBO/Only-C1/SD-CG/HFTN-CG
REM
REM
REM
REM
REM
REM ./C.cell (11c1c37f851c82e70ff6c80c92926a4b)
REM
REM compiler GCC version 9.2.1 20190827 (Red Hat 9.2.1-1)
REM options -cpp -mtune=generic -march=x86-64 -g -O0 -fpre-include=/usr/include/finclude/math-vector-fortran.h
REM seed -1016495277 523862168 943501869 427610654 1985510061 -1947550385 301992269 -360518933 -817910421 1064486890 -1460539979 -33551778 749569271 -75431542 -410595079 -259868611 -1813983078 -321484039 -1690002779 763183549 1220879014 1064650386 1723770847 1961023674 82499453 1534735069 905128922 -481025960 -1072942411 1468476683 -143346440 963465166 -2124267836
REM
CELL 1.54180   50.00000   50.00000   50.00000   90.00000   90.00000   90.00000
LATT -1
SFAC C  
C      1  0.4886180000000  0.4964230000000  0.6065430000000 1.0
C      1  0.5126510000000  0.5080460000000  0.4688110000000 1.0
C      1  0.5184170000000  0.5567980000000  0.5355200000000 1.0
C      1  0.4665540000000  0.5221250000000  0.6023330000000 1.0
C      1  0.4985270000000  0.4712770000000  0.5146540000000 1.0
C      1  0.4838910000000  0.6073890000000  0.4403810000000 1.0
C      1  0.5433600000000  0.4209840000000  0.5651130000000 1.0
C      1  0.5266540000000  0.5945320000000  0.5256210000000 1.0
C      1  0.3509660000000  0.5054660000000  0.4486370000000 1.0
C      1  0.5907570000000  0.5530210000000  0.4868950000000 1.0
C      1  0.4826280000000  0.5873530000000  0.5085690000000 1.0
C      1  0.4903750000000  0.3593180000000  0.4382230000000 1.0
C      1  0.4991300000000  0.4551140000000  0.4781810000000 1.0
C      1  0.4236770000000  0.4543020000000  0.5363400000000 1.0
C      1  0.3951960000000  0.5470710000000  0.4988470000000 1.0
C      1  0.6064870000000  0.4823070000000  0.5218560000000 1.0
C      1  0.5808560000000  0.4406100000000  0.4985070000000 1.0
C      1  0.5177060000000  0.5703200000000  0.4182290000000 1.0
C      1  0.4232460000000  0.4378310000000  0.4976550000000 1.0
C      1  0.5588760000000  0.5185970000000  0.4992470000000 1.0
C      1  0.6128880000000  0.5320210000000  0.5241450000000 1.0
C      1  0.4449740000000  0.4719600000000  0.4924320000000 1.0
C      1  0.4808670000000  0.5632200000000  0.5811580000000 1.0
C      1  0.4833850000000  0.4597460000000  0.5718250000000 1.0
C      1  0.4763420000000  0.4358990000000  0.5503940000000 1.0
C      1  0.5525780000000  0.4507450000000  0.5708670000000 1.0
C      1  0.4773760000000  0.5806500000000  0.5566520000000 1.0
C      1  0.5211770000000  0.4744400000000  0.5399370000000 1.0
C      1  0.4458940000000  0.5937680000000  0.5358430000000 1.0
C      1  0.4137660000000  0.4863830000000  0.5806300000000 1.0
C      1  0.4897020000000  0.5293070000000  0.5621970000000 1.0
C      1  0.5278970000000  0.5622220000000  0.5615920000000 1.0
C      1  0.5399240000000  0.4380630000000  0.5352520000000 1.0
C      1  0.4721090000000  0.5045980000000  0.4051940000000 1.0
C      1  0.4390470000000  0.5686480000000  0.4435950000000 1.0
C      1  0.4606700000000  0.5436260000000  0.5856630000000 1.0
C      1  0.4847410000000  0.4264060000000  0.4398540000000 1.0
C      1  0.4342600000000  0.4257160000000  0.5341100000000 1.0
C      1  0.3905500000000  0.5001250000000  0.4833880000000 1.0
C      1  0.3924850000000  0.5172580000000  0.5074120000000 1.0
C      1  0.5419200000000  0.5831420000000  0.4962770000000 1.0
C      1  0.5134970000000  0.4172640000000  0.5686490000000 1.0
C      1  0.5344350000000  0.4724140000000  0.4459760000000 1.0
C      1  0.5634760000000  0.3983550000000  0.4755160000000 1.0
C      1  0.4418490000000  0.4958920000000  0.5121870000000 1.0
C      1  0.5591160000000  0.4104730000000  0.5373280000000 1.0
C      1  0.4513540000000  0.4534820000000  0.4583430000000 1.0
C      1  0.5369020000000  0.5180620000000  0.5644070000000 1.0
C      1  0.4609010000000  0.5080380000000  0.4865170000000 1.0
C      1  0.5733970000000  0.5742010000000  0.5072250000000 1.0
C      1  0.4534230000000  0.4024540000000  0.4783480000000 1.0
C      1  0.4120030000000  0.4799570000000  0.4794030000000 1.0
C      1  0.5764730000000  0.5137160000000  0.4534940000000 1.0
C      1  0.4175140000000  0.5100550000000  0.5253810000000 1.0
C      1  0.5647850000000  0.4550950000000  0.4691590000000 1.0
C      1  0.5027480000000  0.4774810000000  0.4574420000000 1.0
C      1  0.5131410000000  0.5125530000000  0.5489480000000 1.0
C      1  0.4106810000000  0.4842550000000  0.5467510000000 1.0
C      1  0.5433430000000  0.4827180000000  0.4006850000000 1.0
C      1  0.4472210000000  0.4340200000000  0.4802260000000 1.0
C      1  0.4136260000000  0.4703600000000  0.4502710000000 1.0
C      1  0.5596370000000  0.5087020000000  0.5322820000000 1.0
C      1  0.5794560000000  0.4370420000000  0.5306880000000 1.0
C      1  0.4786700000000  0.5550650000000  0.4044520000000 1.0
C      1  0.4907620000000  0.4775860000000  0.4023300000000 1.0
C      1  0.5008270000000  0.3780400000000  0.4532920000000 1.0
C      1  0.5347630000000  0.4948200000000  0.5204700000000 1.0
C      1  0.5889740000000  0.5568400000000  0.4597650000000 1.0
C      1  0.5876160000000  0.5011320000000  0.4775910000000 1.0
C      1  0.4732780000000  0.5374920000000  0.5105360000000 1.0
C      1  0.4728570000000  0.4577800000000  0.4990370000000 1.0
C      1  0.5119400000000  0.5582600000000  0.4807830000000 1.0
C      1  0.5166440000000  0.4929590000000  0.3922280000000 1.0
C      1  0.4873080000000  0.5679650000000  0.4349140000000 1.0
C      1  0.4389010000000  0.4809630000000  0.5914850000000 1.0
C      1  0.4583880000000  0.4122160000000  0.4487320000000 1.0
C      1  0.5354180000000  0.3993040000000  0.5177030000000 1.0
C      1  0.5564560000000  0.5905100000000  0.5321510000000 1.0
C      1  0.4219090000000  0.4564380000000  0.4315880000000 1.0
C      1  0.3779050000000  0.5307530000000  0.5330800000000 1.0
C      1  0.5119310000000  0.3979290000000  0.4693000000000 1.0
C      1  0.5242040000000  0.4624550000000  0.4982680000000 1.0
C      1  0.4551920000000  0.5845200000000  0.5116230000000 1.0
C      1  0.5743070000000  0.4573200000000  0.5531730000000 1.0
C      1  0.5479550000000  0.5526280000000  0.5809520000000 1.0
C      1  0.5298330000000  0.4686890000000  0.5707650000000 1.0
C      1  0.5879280000000  0.5533550000000  0.5299830000000 1.0
C      1  0.6024170000000  0.4551900000000  0.4556500000000 1.0
C      1  0.4125800000000  0.5605770000000  0.5170620000000 1.0
C      1  0.4643000000000  0.5408150000000  0.4777910000000 1.0
C      1  0.4663120000000  0.4174600000000  0.5844050000000 1.0
C      1  0.4673500000000  0.5629220000000  0.4580350000000 1.0
C      1  0.4758330000000  0.4251810000000  0.5012030000000 1.0
C      1  0.4842660000000  0.5275700000000  0.3928080000000 1.0
C      1  0.4991210000000  0.4200770000000  0.5435800000000 1.0
C      1  0.5331530000000  0.5446290000000  0.4019300000000 1.0
C      1  0.4654020000000  0.5089530000000  0.4362630000000 1.0
C      1  0.4582100000000  0.4788120000000  0.5686310000000 1.0
C      1  0.5776480000000  0.4537720000000  0.4393800000000 1.0
C      1  0.4026710000000  0.5474380000000  0.4694680000000 1.0
C      1  0.4487600000000  0.4386460000000  0.4290840000000 1.0
C      1  0.4932890000000  0.4304470000000  0.5860200000000 1.0
C      1  0.5393650000000  0.5586310000000  0.4643560000000 1.0
C      1  0.4083860000000  0.4574880000000  0.4995860000000 1.0
C      1  0.4738430000000  0.4944850000000  0.5356740000000 1.0
C      1  0.3971760000000  0.5364310000000  0.5539390000000 1.0
C      1  0.4404540000000  0.5180290000000  0.4536900000000 1.0
C      1  0.4779020000000  0.4512180000000  0.4195710000000 1.0
C      1  0.4225400000000  0.5459180000000  0.4452250000000 1.0
C      1  0.5034990000000  0.6063150000000  0.4667440000000 1.0
C      1  0.6020540000000  0.4596920000000  0.4828520000000 1.0
C      1  0.4505450000000  0.4212390000000  0.5583850000000 1.0
C      1  0.4051220000000  0.5126770000000  0.5662190000000 1.0
C      1  0.5275510000000  0.3908240000000  0.4914100000000 1.0
C      1  0.5747240000000  0.4749330000000  0.5175670000000 1.0
C      1  0.5468300000000  0.5474720000000  0.4329680000000 1.0
C      1  0.5325970000000  0.5900030000000  0.4667700000000 1.0
C      1  0.5789670000000  0.5494900000000  0.4358490000000 1.0
C      1  0.5020180000000  0.5410280000000  0.4259860000000 1.0
C      1  0.5120430000000  0.5215380000000  0.3887720000000 1.0
C      1  0.4926320000000  0.5454120000000  0.5346970000000 1.0
C      1  0.5581690000000  0.4208620000000  0.4882720000000 1.0
C      1  0.5663830000000  0.4811610000000  0.4873350000000 1.0
C      1  0.4319440000000  0.5352100000000  0.4821010000000 1.0
C      1  0.4650960000000  0.5112610000000  0.5626950000000 1.0
C      1  0.4550170000000  0.4938220000000  0.6111010000000 1.0
C      1  0.4832920000000  0.4991930000000  0.5063560000000 1.0
C      1  0.5159400000000  0.5955240000000  0.4372980000000 1.0
C      1  0.5234380000000  0.4991370000000  0.4311280000000 1.0
C      1  0.4408760000000  0.5597420000000  0.5039690000000 1.0
C      1  0.4983890000000  0.5824230000000  0.4859890000000 1.0
C      1  0.5483780000000  0.4574690000000  0.5162590000000 1.0
C      1  0.5057840000000  0.4164500000000  0.5130540000000 1.0
C      1  0.6015190000000  0.5370890000000  0.5562000000000 1.0
C      1  0.6053910000000  0.5236000000000  0.4950310000000 1.0
C      1  0.5611510000000  0.4643170000000  0.4163070000000 1.0
C      1  0.5203720000000  0.5046080000000  0.6109470000000 1.0
C      1  0.4958420000000  0.4842450000000  0.5565820000000 1.0
C      1  0.5320620000000  0.5275950000000  0.5966930000000 1.0
C      1  0.5450360000000  0.5148360000000  0.4099600000000 1.0
C      1  0.3705600000000  0.5028220000000  0.4658390000000 1.0
C      1  0.5618910000000  0.4903460000000  0.4365040000000 1.0
C      1  0.5144150000000  0.4795320000000  0.5916140000000 1.0
C      1  0.4443980000000  0.5701050000000  0.5575950000000 1.0
C      1  0.4968240000000  0.5165940000000  0.4390820000000 1.0
C      1  0.4460610000000  0.5365810000000  0.5569790000000 1.0
C      1  0.5977610000000  0.5072570000000  0.5660920000000 1.0
C      1  0.5283240000000  0.4306500000000  0.4943830000000 1.0
C      1  0.4480080000000  0.4862320000000  0.4633940000000 1.0
C      1  0.5084320000000  0.5482220000000  0.5833760000000 1.0
C      1  0.5610780000000  0.5397430000000  0.5229280000000 1.0
C      1  0.4970260000000  0.5904250000000  0.5338310000000 1.0
C      1  0.4823460000000  0.4797290000000  0.4353020000000 1.0
C      1  0.5374960000000  0.5218230000000  0.4496320000000 1.0
C      1  0.5382480000000  0.5576060000000  0.5162140000000 1.0
C      1  0.5777140000000  0.4892940000000  0.5486160000000 1.0
C      1  0.5061690000000  0.4269790000000  0.4614520000000 1.0
C      1  0.6139280000000  0.5034260000000  0.5395610000000 1.0
C      1  0.5104200000000  0.5147050000000  0.5165950000000 1.0
C      1  0.4479580000000  0.4748940000000  0.5369850000000 1.0
C      1  0.4585730000000  0.5942340000000  0.4424330000000 1.0
C      1  0.5592220000000  0.5328210000000  0.4719720000000 1.0
C      1  0.5373890000000  0.4966450000000  0.4874190000000 1.0
C      1  0.4427470000000  0.5332220000000  0.5255260000000 1.0
C      1  0.6139390000000  0.4900920000000  0.4923020000000 1.0
C      1  0.5732490000000  0.5195460000000  0.4219470000000 1.0
C      1  0.4146060000000  0.5581310000000  0.5456900000000 1.0
C      1  0.4477600000000  0.4096430000000  0.5113960000000 1.0
C      1  0.5007800000000  0.5314490000000  0.4904620000000 1.0
C      1  0.5349750000000  0.4449580000000  0.4640330000000 1.0
END
