TITL C-2778427-5640-1108 0.0676113978080369 125000 -335.791335433085 0 0 60 (C1) n - 1
REM
REM in /home/nfs/bkarasulu/CARBON/AIRSS/Generating-Clusters/REBO/Only-C1/SD-CG/HFTN-CG
REM
REM
REM
REM
REM
REM ./C.cell (11c1c37f851c82e70ff6c80c92926a4b)
REM
REM compiler GCC version 9.2.1 20190827 (Red Hat 9.2.1-1)
REM options -cpp -mtune=generic -march=x86-64 -g -O0 -fpre-include=/usr/include/finclude/math-vector-fortran.h
REM seed 1304673228 866458273 1094767921 1992890468 1526491524 1612462684 -829984581 -132590005 1719168555 460237307 -1307728152 1190814684 1702398131 -792079682 878674851 -206171789 -1935777637 -1767541526 -208609125 -568370916 112883727 412057359 132449485 -1971450733 -1478263735 -429434965 929879733 -1332221757 -1793744004 -1688643204 941404075 517823326 -1073018496
REM
CELL 1.54180   50.00000   50.00000   50.00000   90.00000   90.00000   90.00000
LATT -1
SFAC C  
C      1  0.5252570000000  0.4448430000000  0.5412840000000 1.0
C      1  0.5658020000000  0.5142150000000  0.4676480000000 1.0
C      1  0.4778780000000  0.5281100000000  0.4759040000000 1.0
C      1  0.4876740000000  0.4687090000000  0.5722020000000 1.0
C      1  0.4949280000000  0.5580900000000  0.5450650000000 1.0
C      1  0.4751410000000  0.5598460000000  0.5176620000000 1.0
C      1  0.4358050000000  0.5277510000000  0.5475120000000 1.0
C      1  0.5549760000000  0.5658130000000  0.4774570000000 1.0
C      1  0.5412140000000  0.4424660000000  0.4917210000000 1.0
C      1  0.5457990000000  0.5191080000000  0.5335270000000 1.0
C      1  0.5159120000000  0.4825060000000  0.4769130000000 1.0
C      1  0.5250730000000  0.5411780000000  0.5042610000000 1.0
C      1  0.5188600000000  0.5113720000000  0.4485660000000 1.0
C      1  0.4485810000000  0.5543520000000  0.4691600000000 1.0
C      1  0.5019050000000  0.4192540000000  0.5169660000000 1.0
C      1  0.4634310000000  0.4590880000000  0.4687300000000 1.0
C      1  0.4372880000000  0.5315020000000  0.4542520000000 1.0
C      1  0.4754190000000  0.5374180000000  0.4444540000000 1.0
C      1  0.4928910000000  0.4431190000000  0.4709750000000 1.0
C      1  0.4569740000000  0.4464580000000  0.5102970000000 1.0
C      1  0.4050420000000  0.4975100000000  0.4977390000000 1.0
C      1  0.4925410000000  0.4846230000000  0.4620730000000 1.0
C      1  0.4442500000000  0.4727880000000  0.5166210000000 1.0
C      1  0.4787650000000  0.4699830000000  0.4966390000000 1.0
C      1  0.4841550000000  0.4919090000000  0.5868340000000 1.0
C      1  0.4385590000000  0.4734390000000  0.4675290000000 1.0
C      1  0.5185970000000  0.4780040000000  0.5050500000000 1.0
C      1  0.5451180000000  0.5212760000000  0.4937540000000 1.0
C      1  0.4687700000000  0.4973530000000  0.4790010000000 1.0
C      1  0.5453160000000  0.4942750000000  0.5099770000000 1.0
C      1  0.4597790000000  0.4861140000000  0.5365190000000 1.0
C      1  0.5019280000000  0.5717950000000  0.4708330000000 1.0
C      1  0.4981180000000  0.5315910000000  0.5630450000000 1.0
C      1  0.5442280000000  0.4322880000000  0.5177470000000 1.0
C      1  0.5426530000000  0.4951430000000  0.4598200000000 1.0
C      1  0.5065380000000  0.5657130000000  0.5151900000000 1.0
C      1  0.5581540000000  0.4517410000000  0.5391330000000 1.0
C      1  0.5449950000000  0.4628930000000  0.4582130000000 1.0
C      1  0.5071030000000  0.4655090000000  0.5280610000000 1.0
C      1  0.5545650000000  0.4708250000000  0.4892230000000 1.0
C      1  0.5203220000000  0.5359600000000  0.5376170000000 1.0
C      1  0.4748750000000  0.5708770000000  0.4660990000000 1.0
C      1  0.4842450000000  0.4713390000000  0.5437330000000 1.0
C      1  0.5726040000000  0.5401250000000  0.4878890000000 1.0
C      1  0.4632430000000  0.5478310000000  0.4965590000000 1.0
C      1  0.4774720000000  0.5149000000000  0.5712290000000 1.0
C      1  0.5748260000000  0.5297680000000  0.5188910000000 1.0
C      1  0.4769050000000  0.5134480000000  0.4229360000000 1.0
C      1  0.4267000000000  0.4813770000000  0.4953650000000 1.0
C      1  0.5736610000000  0.4744050000000  0.5407770000000 1.0
C      1  0.4392750000000  0.5055580000000  0.4661530000000 1.0
C      1  0.5086200000000  0.5307270000000  0.4654230000000 1.0
C      1  0.5152210000000  0.4309790000000  0.5630010000000 1.0
C      1  0.4969530000000  0.4957490000000  0.4337330000000 1.0
C      1  0.4488850000000  0.5308580000000  0.4253040000000 1.0
C      1  0.4872820000000  0.4371550000000  0.5026390000000 1.0
C      1  0.5747410000000  0.5015990000000  0.5359810000000 1.0
C      1  0.4560930000000  0.5101770000000  0.5515790000000 1.0
C      1  0.5210520000000  0.4432380000000  0.4661480000000 1.0
C      1  0.5270430000000  0.5639580000000  0.4813920000000 1.0
END
