TITL C-2778422-5617-974 -0.000144966568247392 125000 -1103.5650363945 0 0 188 (C1) n - 1
REM
REM in /home/nfs/bkarasulu/CARBON/AIRSS/Generating-Clusters/REBO/Only-C1/SD-CG/HFTN-CG
REM
REM
REM
REM
REM
REM ./C.cell (11c1c37f851c82e70ff6c80c92926a4b)
REM
REM compiler GCC version 9.2.1 20190827 (Red Hat 9.2.1-1)
REM options -cpp -mtune=generic -march=x86-64 -g -O0 -fpre-include=/usr/include/finclude/math-vector-fortran.h
REM seed -1510376135 -542618036 1943064856 1457933449 -947892928 1458938305 789777049 -538985445 -115432317 1839708845 746988716 -557880578 372688220 2126310167 -84453217 1908813139 -378912220 -1932050464 479715976 1767425073 1513327328 -1909133489 1958071661 1743875028 -1705085557 -160371193 1795351703 -1193775037 216731605 903231080 328987862 740029671 839732220
REM
CELL 1.54180   50.00000   50.00000   50.00000   90.00000   90.00000   90.00000
LATT -1
SFAC C  
C      1  0.4864530000000  0.4981980000000  0.4955740000000 1.0
C      1  0.5164200000000  0.4730090000000  0.5037390000000 1.0
C      1  0.5057520000000  0.5793220000000  0.5692790000000 1.0
C      1  0.5430940000000  0.5213310000000  0.5182640000000 1.0
C      1  0.4735160000000  0.5444580000000  0.3998900000000 1.0
C      1  0.4418620000000  0.4095940000000  0.4639910000000 1.0
C      1  0.4597080000000  0.3886720000000  0.4923840000000 1.0
C      1  0.5027420000000  0.4136270000000  0.5318480000000 1.0
C      1  0.5360150000000  0.4457240000000  0.4650900000000 1.0
C      1  0.5936440000000  0.4317150000000  0.5227180000000 1.0
C      1  0.4257540000000  0.5360180000000  0.4154820000000 1.0
C      1  0.4339380000000  0.4724740000000  0.5818910000000 1.0
C      1  0.4536330000000  0.5914250000000  0.4678920000000 1.0
C      1  0.5230280000000  0.5631980000000  0.4133330000000 1.0
C      1  0.4731870000000  0.4744680000000  0.5068210000000 1.0
C      1  0.4954070000000  0.5723190000000  0.4672950000000 1.0
C      1  0.4780930000000  0.4058620000000  0.5540340000000 1.0
C      1  0.4381170000000  0.5313380000000  0.5476540000000 1.0
C      1  0.4056660000000  0.4563190000000  0.5071540000000 1.0
C      1  0.5640500000000  0.5152590000000  0.4180340000000 1.0
C      1  0.6006520000000  0.4599890000000  0.5188060000000 1.0
C      1  0.5734650000000  0.3909470000000  0.5038030000000 1.0
C      1  0.4855080000000  0.5865770000000  0.4405220000000 1.0
C      1  0.5165550000000  0.5018660000000  0.5210120000000 1.0
C      1  0.4619940000000  0.4589390000000  0.5496050000000 1.0
C      1  0.5657870000000  0.5441860000000  0.4364420000000 1.0
C      1  0.5341790000000  0.4881510000000  0.6212240000000 1.0
C      1  0.4810520000000  0.3922240000000  0.4745920000000 1.0
C      1  0.4728920000000  0.5963120000000  0.4958210000000 1.0
C      1  0.4028430000000  0.5047520000000  0.5554300000000 1.0
C      1  0.5187700000000  0.6116350000000  0.5017340000000 1.0
C      1  0.4864890000000  0.5461360000000  0.4779180000000 1.0
C      1  0.4880720000000  0.4782990000000  0.5605930000000 1.0
C      1  0.6154440000000  0.5057200000000  0.4724650000000 1.0
C      1  0.4639410000000  0.5660240000000  0.5037370000000 1.0
C      1  0.4394750000000  0.4670430000000  0.5253920000000 1.0
C      1  0.5256870000000  0.5525100000000  0.5761040000000 1.0
C      1  0.5199880000000  0.5670560000000  0.4456930000000 1.0
C      1  0.6033170000000  0.5332370000000  0.5219490000000 1.0
C      1  0.4035310000000  0.4816670000000  0.4910230000000 1.0
C      1  0.4882650000000  0.4505370000000  0.4056130000000 1.0
C      1  0.4320010000000  0.4592020000000  0.4225980000000 1.0
C      1  0.5075400000000  0.4675160000000  0.5350230000000 1.0
C      1  0.5249490000000  0.5934970000000  0.5459470000000 1.0
C      1  0.4708980000000  0.4385170000000  0.4625640000000 1.0
C      1  0.3940020000000  0.5430180000000  0.4826970000000 1.0
C      1  0.4258120000000  0.4330660000000  0.5433570000000 1.0
C      1  0.4942110000000  0.6042320000000  0.5483920000000 1.0
C      1  0.4435070000000  0.5271320000000  0.4779120000000 1.0
C      1  0.4090810000000  0.4808010000000  0.5329660000000 1.0
C      1  0.5446880000000  0.5897150000000  0.4517800000000 1.0
C      1  0.5695120000000  0.5218300000000  0.4835880000000 1.0
C      1  0.5139180000000  0.5005280000000  0.3976480000000 1.0
C      1  0.4430420000000  0.4173030000000  0.4974340000000 1.0
C      1  0.4404540000000  0.5089710000000  0.4138370000000 1.0
C      1  0.4836780000000  0.4245570000000  0.5091980000000 1.0
C      1  0.3924660000000  0.5186240000000  0.4589980000000 1.0
C      1  0.5580010000000  0.5164530000000  0.5550510000000 1.0
C      1  0.6087630000000  0.5003300000000  0.4490330000000 1.0
C      1  0.5119420000000  0.5059480000000  0.4807040000000 1.0
C      1  0.4904260000000  0.4208640000000  0.4807110000000 1.0
C      1  0.5257440000000  0.4698060000000  0.5705420000000 1.0
C      1  0.5728380000000  0.4464580000000  0.4498990000000 1.0
C      1  0.4919490000000  0.5664210000000  0.4172950000000 1.0
C      1  0.4935780000000  0.5326820000000  0.5889420000000 1.0
C      1  0.5028800000000  0.5292680000000  0.4078420000000 1.0
C      1  0.4599880000000  0.4432060000000  0.5122800000000 1.0
C      1  0.5550480000000  0.4629710000000  0.5838460000000 1.0
C      1  0.4871550000000  0.4876970000000  0.6001340000000 1.0
C      1  0.4106410000000  0.5720670000000  0.4889130000000 1.0
C      1  0.4371200000000  0.5529090000000  0.4984960000000 1.0
C      1  0.4553210000000  0.5584100000000  0.5709860000000 1.0
C      1  0.5548740000000  0.5482810000000  0.5638200000000 1.0
C      1  0.4615460000000  0.4915470000000  0.5885440000000 1.0
C      1  0.4173180000000  0.5569040000000  0.5591160000000 1.0
C      1  0.4841320000000  0.5592860000000  0.5807090000000 1.0
C      1  0.5320350000000  0.5559060000000  0.4748370000000 1.0
C      1  0.4076730000000  0.5350250000000  0.4365350000000 1.0
C      1  0.4703540000000  0.5327480000000  0.5542210000000 1.0
C      1  0.4728570000000  0.5490120000000  0.4394260000000 1.0
C      1  0.5393380000000  0.5253150000000  0.4471960000000 1.0
C      1  0.5646150000000  0.5500440000000  0.4689570000000 1.0
C      1  0.5683990000000  0.4659500000000  0.4301400000000 1.0
C      1  0.4864040000000  0.4823170000000  0.3961550000000 1.0
C      1  0.5454070000000  0.4673470000000  0.4131150000000 1.0
C      1  0.5457710000000  0.3960440000000  0.5032260000000 1.0
C      1  0.4891750000000  0.5210280000000  0.5282250000000 1.0
C      1  0.4692250000000  0.5104380000000  0.3984170000000 1.0
C      1  0.5366800000000  0.5234460000000  0.4790380000000 1.0
C      1  0.5414210000000  0.4620700000000  0.6126380000000 1.0
C      1  0.5201270000000  0.5939710000000  0.4746940000000 1.0
C      1  0.4092650000000  0.4751770000000  0.4422820000000 1.0
C      1  0.5000800000000  0.4616230000000  0.5882590000000 1.0
C      1  0.5278250000000  0.4183060000000  0.4251050000000 1.0
C      1  0.4421070000000  0.4483900000000  0.4724560000000 1.0
C      1  0.5220170000000  0.5333940000000  0.6030340000000 1.0
C      1  0.4435020000000  0.4728140000000  0.4916660000000 1.0
C      1  0.4537720000000  0.4490360000000  0.4093300000000 1.0
C      1  0.5562220000000  0.4775660000000  0.5467020000000 1.0
C      1  0.5773070000000  0.4285350000000  0.5468520000000 1.0
C      1  0.5906230000000  0.5640010000000  0.5194670000000 1.0
C      1  0.5971610000000  0.5120700000000  0.4985870000000 1.0
C      1  0.4450380000000  0.5582750000000  0.4124560000000 1.0
C      1  0.5360570000000  0.4473770000000  0.5146680000000 1.0
C      1  0.4713410000000  0.5789130000000  0.5318040000000 1.0
C      1  0.4908070000000  0.4420410000000  0.5442540000000 1.0
C      1  0.4791170000000  0.4329020000000  0.5745470000000 1.0
C      1  0.5168000000000  0.5412280000000  0.5277430000000 1.0
C      1  0.5796520000000  0.4940150000000  0.4365850000000 1.0
C      1  0.5958530000000  0.4742380000000  0.5435250000000 1.0
C      1  0.4484360000000  0.4170900000000  0.5555220000000 1.0
C      1  0.5302410000000  0.4474310000000  0.5474170000000 1.0
C      1  0.5395670000000  0.3925170000000  0.4490420000000 1.0
C      1  0.4755700000000  0.6107710000000  0.4384780000000 1.0
C      1  0.4930280000000  0.6077710000000  0.5145860000000 1.0
C      1  0.3983130000000  0.5328640000000  0.5440390000000 1.0
C      1  0.4225640000000  0.5427290000000  0.5223130000000 1.0
C      1  0.5085010000000  0.4733990000000  0.4735630000000 1.0
C      1  0.5757770000000  0.4935120000000  0.4705070000000 1.0
C      1  0.4924320000000  0.5215200000000  0.4608730000000 1.0
C      1  0.5696740000000  0.5156020000000  0.5946640000000 1.0
C      1  0.5193330000000  0.4238410000000  0.4771740000000 1.0
C      1  0.4263760000000  0.5049670000000  0.5752870000000 1.0
C      1  0.4652150000000  0.4973210000000  0.5294360000000 1.0
C      1  0.5567180000000  0.4683330000000  0.4990560000000 1.0
C      1  0.4722770000000  0.5349010000000  0.5042700000000 1.0
C      1  0.4900420000000  0.5084000000000  0.5660990000000 1.0
C      1  0.3969880000000  0.4900550000000  0.4639760000000 1.0
C      1  0.5956080000000  0.4781990000000  0.4936380000000 1.0
C      1  0.5857930000000  0.5029830000000  0.5403130000000 1.0
C      1  0.4453890000000  0.5136780000000  0.5073890000000 1.0
C      1  0.4874630000000  0.3876180000000  0.4457280000000 1.0
C      1  0.4150260000000  0.5049870000000  0.5095600000000 1.0
C      1  0.5182350000000  0.4469930000000  0.4166800000000 1.0
C      1  0.5695500000000  0.4912470000000  0.5754480000000 1.0
C      1  0.5357440000000  0.4277680000000  0.5738950000000 1.0
C      1  0.4320150000000  0.5359420000000  0.5817780000000 1.0
C      1  0.4461870000000  0.5839030000000  0.4348570000000 1.0
C      1  0.4567280000000  0.4837950000000  0.4622810000000 1.0
C      1  0.4660810000000  0.5206080000000  0.4308950000000 1.0
C      1  0.5247680000000  0.4403780000000  0.5972980000000 1.0
C      1  0.5496220000000  0.6090990000000  0.4964590000000 1.0
C      1  0.5346850000000  0.5325750000000  0.4146540000000 1.0
C      1  0.4530460000000  0.4967060000000  0.5571080000000 1.0
C      1  0.5819390000000  0.5374760000000  0.5787980000000 1.0
C      1  0.3946700000000  0.5300650000000  0.5104370000000 1.0
C      1  0.5725560000000  0.5876460000000  0.5089370000000 1.0
C      1  0.4209490000000  0.4332440000000  0.5148340000000 1.0
C      1  0.5477700000000  0.4775320000000  0.4677870000000 1.0
C      1  0.4482050000000  0.4438590000000  0.5768670000000 1.0
C      1  0.4821780000000  0.4668530000000  0.4554300000000 1.0
C      1  0.4421000000000  0.5944960000000  0.5210180000000 1.0
C      1  0.5465610000000  0.5148730000000  0.6113020000000 1.0
C      1  0.4167050000000  0.4574050000000  0.5567290000000 1.0
C      1  0.5044270000000  0.5717140000000  0.5282290000000 1.0
C      1  0.5305540000000  0.4941100000000  0.4460700000000 1.0
C      1  0.5043480000000  0.5100720000000  0.4352400000000 1.0
C      1  0.4215760000000  0.5453790000000  0.4627250000000 1.0
C      1  0.4888400000000  0.4830280000000  0.4289030000000 1.0
C      1  0.5619170000000  0.5828230000000  0.4778980000000 1.0
C      1  0.5773210000000  0.4549630000000  0.5611180000000 1.0
C      1  0.5532360000000  0.4226460000000  0.4470090000000 1.0
C      1  0.5989940000000  0.5287830000000  0.5555620000000 1.0
C      1  0.5404850000000  0.4941950000000  0.4051380000000 1.0
C      1  0.5083730000000  0.5033230000000  0.6116320000000 1.0
C      1  0.5525340000000  0.4148550000000  0.5507940000000 1.0
C      1  0.4204220000000  0.4313750000000  0.4635660000000 1.0
C      1  0.5692460000000  0.5369280000000  0.5204730000000 1.0
C      1  0.5942180000000  0.4086790000000  0.5064740000000 1.0
C      1  0.5340380000000  0.3994410000000  0.4783600000000 1.0
C      1  0.5624820000000  0.5630770000000  0.5385940000000 1.0
C      1  0.5300870000000  0.4978400000000  0.5564450000000 1.0
C      1  0.4419580000000  0.5786870000000  0.5503510000000 1.0
C      1  0.5200110000000  0.4629740000000  0.4434780000000 1.0
C      1  0.4331980000000  0.5924240000000  0.4938850000000 1.0
C      1  0.5340500000000  0.4148040000000  0.5248310000000 1.0
C      1  0.4669060000000  0.4117400000000  0.4427060000000 1.0
C      1  0.5787820000000  0.4543340000000  0.4768150000000 1.0
C      1  0.5537360000000  0.5711180000000  0.4253210000000 1.0
C      1  0.4496580000000  0.5605690000000  0.4572010000000 1.0
C      1  0.4619940000000  0.5129240000000  0.4608950000000 1.0
C      1  0.5611730000000  0.4925330000000  0.5187380000000 1.0
C      1  0.5238850000000  0.5720590000000  0.5004570000000 1.0
C      1  0.4700290000000  0.4233820000000  0.4151000000000 1.0
C      1  0.5119720000000  0.3905800000000  0.4327720000000 1.0
C      1  0.5166450000000  0.5275170000000  0.5567800000000 1.0
C      1  0.5427990000000  0.5821290000000  0.5247850000000 1.0
C      1  0.4384500000000  0.4873240000000  0.4364470000000 1.0
END
