TITL C-2778423-5760-1287 0.234072348051476 125000 -529.348304088238 0 0 91 (C1) n - 1
REM
REM in /home/nfs/bkarasulu/CARBON/AIRSS/Generating-Clusters/REBO/Only-C1/SD-CG/HFTN-CG
REM
REM
REM
REM
REM
REM ./C.cell (11c1c37f851c82e70ff6c80c92926a4b)
REM
REM compiler GCC version 9.2.1 20190827 (Red Hat 9.2.1-1)
REM options -cpp -mtune=generic -march=x86-64 -g -O0 -fpre-include=/usr/include/finclude/math-vector-fortran.h
REM seed -691197852 -1804315513 2083258916 -969018920 -90103346 -1474106016 -586061269 1542191340 -1118380109 -1707056112 -689242461 -136032494 289447410 -1713995910 -182190472 -416582557 1274056570 2098890650 -1194546707 193263925 -1183664081 874031444 1025194675 138955303 2074576624 1488081576 -1161795896 -1928574562 1992508788 -1291204850 -2071171913 -1105777604 1685790891
REM
CELL 1.54180   50.00000   50.00000   50.00000   90.00000   90.00000   90.00000
LATT -1
SFAC C  
C      1  0.4878880000000  0.4183130000000  0.4852330000000 1.0
C      1  0.5401320000000  0.4784790000000  0.4868580000000 1.0
C      1  0.4721200000000  0.4245910000000  0.4634450000000 1.0
C      1  0.4437690000000  0.4519240000000  0.4955900000000 1.0
C      1  0.5372940000000  0.5439830000000  0.4698280000000 1.0
C      1  0.5515900000000  0.5428500000000  0.5568790000000 1.0
C      1  0.4720860000000  0.5188990000000  0.4295510000000 1.0
C      1  0.5107560000000  0.5057100000000  0.5110410000000 1.0
C      1  0.5457270000000  0.4472120000000  0.4324780000000 1.0
C      1  0.5376810000000  0.5124270000000  0.4828200000000 1.0
C      1  0.5404730000000  0.4561710000000  0.5498440000000 1.0
C      1  0.5325120000000  0.5680790000000  0.5199700000000 1.0
C      1  0.5090170000000  0.4746230000000  0.5087250000000 1.0
C      1  0.4933800000000  0.4446720000000  0.5026540000000 1.0
C      1  0.5545230000000  0.5580330000000  0.4958610000000 1.0
C      1  0.4373720000000  0.5409070000000  0.5264680000000 1.0
C      1  0.4802660000000  0.5780800000000  0.5143380000000 1.0
C      1  0.4538220000000  0.4638600000000  0.4393940000000 1.0
C      1  0.4566290000000  0.5609130000000  0.4550700000000 1.0
C      1  0.4401360000000  0.5420990000000  0.5607410000000 1.0
C      1  0.4998530000000  0.5311100000000  0.4299860000000 1.0
C      1  0.4349580000000  0.5159110000000  0.4838910000000 1.0
C      1  0.5614280000000  0.4346970000000  0.4554940000000 1.0
C      1  0.5058820000000  0.5244970000000  0.4841310000000 1.0
C      1  0.5169220000000  0.5301540000000  0.4095790000000 1.0
C      1  0.4881370000000  0.4492900000000  0.5597580000000 1.0
C      1  0.5348450000000  0.4169220000000  0.4793040000000 1.0
C      1  0.5585510000000  0.4761980000000  0.5406480000000 1.0
C      1  0.5160840000000  0.5117080000000  0.5655740000000 1.0
C      1  0.4256770000000  0.4780030000000  0.5333230000000 1.0
C      1  0.4664910000000  0.4699880000000  0.5634750000000 1.0
C      1  0.4930770000000  0.5939450000000  0.4405040000000 1.0
C      1  0.5058930000000  0.5446210000000  0.4566000000000 1.0
C      1  0.5138980000000  0.4101950000000  0.4967060000000 1.0
C      1  0.4417840000000  0.5652240000000  0.4792350000000 1.0
C      1  0.4512660000000  0.4466830000000  0.4681350000000 1.0
C      1  0.5164560000000  0.4199360000000  0.5237500000000 1.0
C      1  0.4255950000000  0.5104160000000  0.5362420000000 1.0
C      1  0.4475980000000  0.4633640000000  0.5429570000000 1.0
C      1  0.4304360000000  0.5222610000000  0.4566360000000 1.0
C      1  0.4510090000000  0.5363010000000  0.4428520000000 1.0
C      1  0.4685750000000  0.5565260000000  0.5651980000000 1.0
C      1  0.5622630000000  0.4938100000000  0.4574180000000 1.0
C      1  0.4892390000000  0.5203970000000  0.5327600000000 1.0
C      1  0.4742530000000  0.5730950000000  0.5374540000000 1.0
C      1  0.4571080000000  0.4935110000000  0.4129510000000 1.0
C      1  0.4988740000000  0.4783500000000  0.4557640000000 1.0
C      1  0.4624750000000  0.5152950000000  0.4914480000000 1.0
C      1  0.4441660000000  0.5082620000000  0.5650640000000 1.0
C      1  0.5651930000000  0.4745300000000  0.5082040000000 1.0
C      1  0.5337250000000  0.5292120000000  0.3894900000000 1.0
C      1  0.4363590000000  0.4718890000000  0.4121710000000 1.0
C      1  0.5628670000000  0.4276540000000  0.4865090000000 1.0
C      1  0.5744710000000  0.4981820000000  0.4853860000000 1.0
C      1  0.5289270000000  0.5182440000000  0.5350970000000 1.0
C      1  0.5897190000000  0.5130520000000  0.5441990000000 1.0
C      1  0.4768500000000  0.4876210000000  0.4396530000000 1.0
C      1  0.4869660000000  0.4312500000000  0.5325930000000 1.0
C      1  0.4818330000000  0.4447250000000  0.4425000000000 1.0
C      1  0.4770060000000  0.5014270000000  0.5713400000000 1.0
C      1  0.4581690000000  0.4455500000000  0.5214600000000 1.0
C      1  0.5614080000000  0.5251840000000  0.5297360000000 1.0
C      1  0.5234930000000  0.4634970000000  0.5711090000000 1.0
C      1  0.5059670000000  0.4835980000000  0.5747050000000 1.0
C      1  0.4975980000000  0.4691530000000  0.5384860000000 1.0
C      1  0.5634490000000  0.5271950000000  0.4992840000000 1.0
C      1  0.5319440000000  0.5617890000000  0.5510310000000 1.0
C      1  0.5231530000000  0.5687280000000  0.4884060000000 1.0
C      1  0.4190440000000  0.5028140000000  0.5034250000000 1.0
C      1  0.5672290000000  0.4972020000000  0.5575500000000 1.0
C      1  0.4918250000000  0.5322250000000  0.5707510000000 1.0
C      1  0.4942890000000  0.5690830000000  0.4866640000000 1.0
C      1  0.5482950000000  0.5156670000000  0.5697310000000 1.0
C      1  0.4806860000000  0.5413400000000  0.4986970000000 1.0
C      1  0.4888090000000  0.5830630000000  0.5730900000000 1.0
C      1  0.5399430000000  0.4354000000000  0.5300140000000 1.0
C      1  0.5336400000000  0.4495130000000  0.4702370000000 1.0
C      1  0.4887050000000  0.4711430000000  0.4830530000000 1.0
C      1  0.5610810000000  0.4422820000000  0.5105310000000 1.0
C      1  0.4221280000000  0.4713690000000  0.5032030000000 1.0
C      1  0.5737570000000  0.4867250000000  0.4320260000000 1.0
C      1  0.4623740000000  0.5246240000000  0.5420550000000 1.0
C      1  0.4717600000000  0.4905380000000  0.5011280000000 1.0
C      1  0.4497200000000  0.5517600000000  0.5017220000000 1.0
C      1  0.5080450000000  0.5613310000000  0.5661750000000 1.0
C      1  0.5611310000000  0.4662580000000  0.4178860000000 1.0
C      1  0.5143190000000  0.4522090000000  0.4425210000000 1.0
C      1  0.5101400000000  0.5437960000000  0.5228010000000 1.0
C      1  0.4853750000000  0.5698580000000  0.4570600000000 1.0
C      1  0.5301070000000  0.4863530000000  0.4557820000000 1.0
C      1  0.4785350000000  0.4904750000000  0.5289160000000 1.0
END
