TITL C-2778436-5916-239 0.000932927753786403 125000 -484.20673191808 0 0 86 (C1) n - 1
REM
REM in /home/nfs/bkarasulu/CARBON/AIRSS/Generating-Clusters/REBO/Only-C1/SD-CG/HFTN-CG
REM
REM
REM
REM
REM
REM ./C.cell (11c1c37f851c82e70ff6c80c92926a4b)
REM
REM compiler GCC version 9.2.1 20190827 (Red Hat 9.2.1-1)
REM options -cpp -mtune=generic -march=x86-64 -g -O0 -fpre-include=/usr/include/finclude/math-vector-fortran.h
REM seed -452872675 -2013979449 -728721575 -1897009125 1644517879 853661511 1437878561 -672860447 -930470288 -1063828965 -694642587 697716961 -1586447777 -1704008303 1110221951 -655995228 1637851083 -936101596 -1250434883 -1277396670 2054450965 -2061743110 -1140886596 930588778 1949767070 -269765428 361560645 -538594276 1103410072 -1489708872 -795439899 -1806064990 -813639255
REM
CELL 1.54180   50.00000   50.00000   50.00000   90.00000   90.00000   90.00000
LATT -1
SFAC C  
C      1  0.4769030000000  0.4614200000000  0.4084460000000 1.0
C      1  0.5218280000000  0.4726380000000  0.5016240000000 1.0
C      1  0.6355450000000  0.5067420000000  0.3966770000000 1.0
C      1  0.4638760000000  0.5025760000000  0.4195970000000 1.0
C      1  0.4850800000000  0.6138830000000  0.5662490000000 1.0
C      1  0.4328140000000  0.4682710000000  0.5451850000000 1.0
C      1  0.4724260000000  0.4433350000000  0.5051590000000 1.0
C      1  0.3705320000000  0.5072010000000  0.5397000000000 1.0
C      1  0.4775720000000  0.5787670000000  0.5240090000000 1.0
C      1  0.5241090000000  0.4897100000000  0.5484730000000 1.0
C      1  0.5510310000000  0.5214400000000  0.5190020000000 1.0
C      1  0.4419980000000  0.4825980000000  0.5682060000000 1.0
C      1  0.4850560000000  0.5080060000000  0.5151190000000 1.0
C      1  0.5187600000000  0.5494190000000  0.4848950000000 1.0
C      1  0.5044740000000  0.4597760000000  0.4789380000000 1.0
C      1  0.5394120000000  0.5448510000000  0.5409130000000 1.0
C      1  0.4166410000000  0.4823290000000  0.5269900000000 1.0
C      1  0.5696870000000  0.4519730000000  0.5121550000000 1.0
C      1  0.5569980000000  0.5800770000000  0.4786680000000 1.0
C      1  0.5538880000000  0.4487550000000  0.5386410000000 1.0
C      1  0.4743740000000  0.5153750000000  0.4777180000000 1.0
C      1  0.5782180000000  0.5137710000000  0.4772220000000 1.0
C      1  0.5249150000000  0.4317540000000  0.5327920000000 1.0
C      1  0.4694450000000  0.4938540000000  0.4519550000000 1.0
C      1  0.4715470000000  0.5403350000000  0.4923950000000 1.0
C      1  0.5749580000000  0.5064880000000  0.4499590000000 1.0
C      1  0.4780050000000  0.4747390000000  0.5100000000000 1.0
C      1  0.5958680000000  0.5065760000000  0.4315700000000 1.0
C      1  0.5039090000000  0.4860260000000  0.5709350000000 1.0
C      1  0.5651300000000  0.4705220000000  0.5597250000000 1.0
C      1  0.5384770000000  0.5710140000000  0.4987560000000 1.0
C      1  0.5573240000000  0.5221860000000  0.5584120000000 1.0
C      1  0.4794310000000  0.4877560000000  0.5396660000000 1.0
C      1  0.4520020000000  0.5576770000000  0.5223640000000 1.0
C      1  0.4656420000000  0.4962500000000  0.5661710000000 1.0
C      1  0.4879870000000  0.5105170000000  0.5838900000000 1.0
C      1  0.4413700000000  0.4562160000000  0.5001690000000 1.0
C      1  0.5520210000000  0.4950910000000  0.5594790000000 1.0
C      1  0.4978130000000  0.4201290000000  0.5417920000000 1.0
C      1  0.5279090000000  0.4215170000000  0.5023690000000 1.0
C      1  0.5630220000000  0.5059790000000  0.4995010000000 1.0
C      1  0.4721310000000  0.5258270000000  0.4392880000000 1.0
C      1  0.4888490000000  0.4012800000000  0.5221880000000 1.0
C      1  0.5484040000000  0.4981720000000  0.4430900000000 1.0
C      1  0.4861450000000  0.5876600000000  0.4951940000000 1.0
C      1  0.4591800000000  0.4905670000000  0.4902350000000 1.0
C      1  0.4449350000000  0.4236200000000  0.4559770000000 1.0
C      1  0.5447100000000  0.4490040000000  0.4609410000000 1.0
C      1  0.5065340000000  0.4783310000000  0.4530390000000 1.0
C      1  0.4512680000000  0.4468550000000  0.5317100000000 1.0
C      1  0.4836960000000  0.5450330000000  0.5242090000000 1.0
C      1  0.4394990000000  0.5481040000000  0.4966740000000 1.0
C      1  0.5047220000000  0.5078430000000  0.4644630000000 1.0
C      1  0.3929480000000  0.4951090000000  0.5335210000000 1.0
C      1  0.4136210000000  0.5096270000000  0.4845880000000 1.0
C      1  0.5201600000000  0.4323080000000  0.4735810000000 1.0
C      1  0.3938350000000  0.5537340000000  0.4818600000000 1.0
C      1  0.5248900000000  0.4646290000000  0.5316600000000 1.0
C      1  0.4842780000000  0.5102550000000  0.6115750000000 1.0
C      1  0.4786600000000  0.5482610000000  0.4516900000000 1.0
C      1  0.5208110000000  0.5124030000000  0.5278290000000 1.0
C      1  0.4287330000000  0.4865820000000  0.4982430000000 1.0
C      1  0.5263320000000  0.5201440000000  0.4443920000000 1.0
C      1  0.5044620000000  0.5302260000000  0.3936720000000 1.0
C      1  0.5062980000000  0.5371940000000  0.5432930000000 1.0
C      1  0.5365870000000  0.4729270000000  0.4478770000000 1.0
C      1  0.4779090000000  0.4391260000000  0.5496380000000 1.0
C      1  0.5550280000000  0.5642730000000  0.4557380000000 1.0
C      1  0.4153480000000  0.5378260000000  0.4868400000000 1.0
C      1  0.4903110000000  0.4691490000000  0.4287400000000 1.0
C      1  0.4869130000000  0.4630390000000  0.5606510000000 1.0
C      1  0.4976220000000  0.5589150000000  0.5868640000000 1.0
C      1  0.4728910000000  0.4667700000000  0.4711570000000 1.0
C      1  0.4793600000000  0.4141830000000  0.4997110000000 1.0
C      1  0.5418700000000  0.5713080000000  0.5257020000000 1.0
C      1  0.5078930000000  0.4136800000000  0.4567180000000 1.0
C      1  0.4973160000000  0.5368700000000  0.5722430000000 1.0
C      1  0.4516780000000  0.4435070000000  0.4711330000000 1.0
C      1  0.5533740000000  0.4780340000000  0.4983370000000 1.0
C      1  0.6158660000000  0.5066600000000  0.4139840000000 1.0
C      1  0.5144020000000  0.5256440000000  0.4167250000000 1.0
C      1  0.5353770000000  0.5452250000000  0.4581550000000 1.0
C      1  0.5096180000000  0.5194760000000  0.4961600000000 1.0
C      1  0.4908650000000  0.5620130000000  0.4782610000000 1.0
C      1  0.4816240000000  0.5977200000000  0.5468060000000 1.0
C      1  0.5650500000000  0.4533530000000  0.4801640000000 1.0
END
