TITL C-2778424-3986-711 0.00659385194366819 125000 -878.441495919763 0 0 153 (C1) n - 1
REM
REM in /home/nfs/bkarasulu/CARBON/AIRSS/Generating-Clusters/REBO/Only-C1/SD-CG/HFTN-CG
REM
REM
REM
REM
REM
REM ./C.cell (11c1c37f851c82e70ff6c80c92926a4b)
REM
REM compiler GCC version 9.2.1 20190827 (Red Hat 9.2.1-1)
REM options -cpp -mtune=generic -march=x86-64 -g -O0 -fpre-include=/usr/include/finclude/math-vector-fortran.h
REM seed -928620725 827174195 856630785 1462990386 1633709667 -456991981 -1647245969 222227356 -133147377 -1487116566 630948030 869177693 -53576155 1593140787 -1172528013 1268013390 -1028051869 401725489 875746656 -1918799578 1110947803 -696003897 1846769407 -1978824127 -1184640847 1765812272 -1976590323 1048815542 1415827268 -1475086014 2106864359 -857503817 -621862262
REM
CELL 1.54180   50.00000   50.00000   50.00000   90.00000   90.00000   90.00000
LATT -1
SFAC C  
C      1  0.5026310000000  0.4421410000000  0.3842890000000 1.0
C      1  0.4247300000000  0.5269040000000  0.4394770000000 1.0
C      1  0.4150250000000  0.5424190000000  0.5360310000000 1.0
C      1  0.5860170000000  0.5371380000000  0.4873360000000 1.0
C      1  0.4391750000000  0.4863770000000  0.5258610000000 1.0
C      1  0.5967790000000  0.5110800000000  0.4690990000000 1.0
C      1  0.5754370000000  0.4487390000000  0.4315220000000 1.0
C      1  0.4695660000000  0.4204040000000  0.4496980000000 1.0
C      1  0.5249570000000  0.5167550000000  0.4574820000000 1.0
C      1  0.5158200000000  0.5102380000000  0.5011340000000 1.0
C      1  0.5154630000000  0.6091880000000  0.5190100000000 1.0
C      1  0.4135470000000  0.4619460000000  0.5076810000000 1.0
C      1  0.4438520000000  0.4968170000000  0.4724280000000 1.0
C      1  0.4690980000000  0.5101450000000  0.3976230000000 1.0
C      1  0.5584010000000  0.4166150000000  0.5165100000000 1.0
C      1  0.4777260000000  0.5782650000000  0.4705890000000 1.0
C      1  0.5176070000000  0.4680310000000  0.4614180000000 1.0
C      1  0.4738750000000  0.4875270000000  0.5937960000000 1.0
C      1  0.4903560000000  0.5031400000000  0.4230520000000 1.0
C      1  0.4184540000000  0.4411950000000  0.5323750000000 1.0
C      1  0.4613850000000  0.5963340000000  0.5138610000000 1.0
C      1  0.5830600000000  0.4448170000000  0.5466730000000 1.0
C      1  0.4231500000000  0.4598450000000  0.4750530000000 1.0
C      1  0.4638410000000  0.4897760000000  0.5447690000000 1.0
C      1  0.4474080000000  0.5767620000000  0.4697490000000 1.0
C      1  0.5226890000000  0.4621980000000  0.5012430000000 1.0
C      1  0.5141060000000  0.4123930000000  0.5613930000000 1.0
C      1  0.5695560000000  0.5653230000000  0.4773430000000 1.0
C      1  0.5319630000000  0.4002630000000  0.5147520000000 1.0
C      1  0.4391090000000  0.5852700000000  0.4965120000000 1.0
C      1  0.5215610000000  0.4321710000000  0.4911980000000 1.0
C      1  0.5063790000000  0.5759670000000  0.4533400000000 1.0
C      1  0.4361770000000  0.4137400000000  0.5228800000000 1.0
C      1  0.5707710000000  0.5077010000000  0.4479460000000 1.0
C      1  0.4532910000000  0.5529930000000  0.5147630000000 1.0
C      1  0.5642840000000  0.5464880000000  0.5640590000000 1.0
C      1  0.5033400000000  0.4978330000000  0.6075200000000 1.0
C      1  0.5434600000000  0.5155330000000  0.4285970000000 1.0
C      1  0.5874500000000  0.5036730000000  0.5576710000000 1.0
C      1  0.5072570000000  0.4663110000000  0.5948540000000 1.0
C      1  0.5695050000000  0.4230830000000  0.4855070000000 1.0
C      1  0.4325040000000  0.5517040000000  0.5567460000000 1.0
C      1  0.5401840000000  0.5614970000000  0.5701820000000 1.0
C      1  0.4953850000000  0.6188880000000  0.4732260000000 1.0
C      1  0.5168980000000  0.5606800000000  0.4800820000000 1.0
C      1  0.4761490000000  0.4534080000000  0.5902280000000 1.0
C      1  0.4106510000000  0.5127730000000  0.5359230000000 1.0
C      1  0.5528520000000  0.4956040000000  0.4988320000000 1.0
C      1  0.4344210000000  0.4973240000000  0.4336400000000 1.0
C      1  0.4010110000000  0.4922630000000  0.5174400000000 1.0
C      1  0.5852140000000  0.4532410000000  0.4892940000000 1.0
C      1  0.4045590000000  0.5270720000000  0.4606620000000 1.0
C      1  0.4656170000000  0.4947770000000  0.4451440000000 1.0
C      1  0.4723640000000  0.5532340000000  0.4902270000000 1.0
C      1  0.5345440000000  0.5533200000000  0.5310060000000 1.0
C      1  0.4484440000000  0.5510730000000  0.5813250000000 1.0
C      1  0.4944700000000  0.4770930000000  0.4983780000000 1.0
C      1  0.5080810000000  0.6078630000000  0.4542140000000 1.0
C      1  0.4491880000000  0.5231600000000  0.5287980000000 1.0
C      1  0.5461360000000  0.4123900000000  0.5630010000000 1.0
C      1  0.4956200000000  0.5619270000000  0.4080640000000 1.0
C      1  0.5652590000000  0.4234250000000  0.5462000000000 1.0
C      1  0.4669930000000  0.5564380000000  0.4257040000000 1.0
C      1  0.4113400000000  0.5429050000000  0.4836940000000 1.0
C      1  0.4860360000000  0.4003960000000  0.4996840000000 1.0
C      1  0.4901240000000  0.4863980000000  0.5291690000000 1.0
C      1  0.5073280000000  0.5586390000000  0.5269310000000 1.0
C      1  0.4498720000000  0.5361420000000  0.4754480000000 1.0
C      1  0.5241470000000  0.5200080000000  0.5967480000000 1.0
C      1  0.4431220000000  0.5524290000000  0.4462720000000 1.0
C      1  0.5718750000000  0.4804030000000  0.4287630000000 1.0
C      1  0.4520540000000  0.4069570000000  0.4658930000000 1.0
C      1  0.4205820000000  0.5608610000000  0.5089470000000 1.0
C      1  0.5571260000000  0.4490340000000  0.5166600000000 1.0
C      1  0.4915120000000  0.4378500000000  0.4958040000000 1.0
C      1  0.5131820000000  0.5450160000000  0.5808430000000 1.0
C      1  0.5930940000000  0.4984440000000  0.5271710000000 1.0
C      1  0.4889550000000  0.5493800000000  0.4449380000000 1.0
C      1  0.4885490000000  0.5328700000000  0.3967200000000 1.0
C      1  0.5383240000000  0.5420380000000  0.4700770000000 1.0
C      1  0.5437010000000  0.5262970000000  0.5363370000000 1.0
C      1  0.5431240000000  0.4873120000000  0.4119380000000 1.0
C      1  0.5359510000000  0.4637560000000  0.4329070000000 1.0
C      1  0.5571960000000  0.4718150000000  0.4582730000000 1.0
C      1  0.5891140000000  0.5260740000000  0.5165790000000 1.0
C      1  0.4465610000000  0.4930410000000  0.4030810000000 1.0
C      1  0.5514370000000  0.5621040000000  0.4484030000000 1.0
C      1  0.4587820000000  0.5187080000000  0.5607990000000 1.0
C      1  0.4199890000000  0.4716470000000  0.5457580000000 1.0
C      1  0.4860910000000  0.4704860000000  0.4203090000000 1.0
C      1  0.5509440000000  0.4582410000000  0.4852740000000 1.0
C      1  0.5476200000000  0.4848660000000  0.5736040000000 1.0
C      1  0.5132020000000  0.5283830000000  0.4197420000000 1.0
C      1  0.4848600000000  0.5397910000000  0.5355340000000 1.0
C      1  0.5596070000000  0.5836480000000  0.4978160000000 1.0
C      1  0.4755530000000  0.5882930000000  0.5437380000000 1.0
C      1  0.5096980000000  0.4387610000000  0.5403580000000 1.0
C      1  0.4765220000000  0.5186400000000  0.5098390000000 1.0
C      1  0.5206020000000  0.4762040000000  0.5667420000000 1.0
C      1  0.4896890000000  0.6048820000000  0.5003110000000 1.0
C      1  0.4734780000000  0.4339680000000  0.5247060000000 1.0
C      1  0.4476490000000  0.4340970000000  0.5470400000000 1.0
C      1  0.4968930000000  0.4122130000000  0.4501300000000 1.0
C      1  0.5288890000000  0.4360340000000  0.4603880000000 1.0
C      1  0.4544710000000  0.4656750000000  0.4202470000000 1.0
C      1  0.5182990000000  0.4684130000000  0.5343090000000 1.0
C      1  0.5605000000000  0.4306970000000  0.4562540000000 1.0
C      1  0.5647520000000  0.4849810000000  0.5518560000000 1.0
C      1  0.4964160000000  0.5128490000000  0.5470900000000 1.0
C      1  0.5501210000000  0.4796000000000  0.5258640000000 1.0
C      1  0.5729710000000  0.5224430000000  0.5776680000000 1.0
C      1  0.5234750000000  0.5601480000000  0.4280280000000 1.0
C      1  0.4291200000000  0.5011890000000  0.5609850000000 1.0
C      1  0.4616530000000  0.5596490000000  0.5446180000000 1.0
C      1  0.3939060000000  0.4906170000000  0.4884670000000 1.0
C      1  0.4312240000000  0.5236480000000  0.5000460000000 1.0
C      1  0.5497080000000  0.5087270000000  0.5894420000000 1.0
C      1  0.4729800000000  0.5137220000000  0.4697760000000 1.0
C      1  0.5722020000000  0.5404540000000  0.5346750000000 1.0
C      1  0.5147050000000  0.4295590000000  0.4306470000000 1.0
C      1  0.5794190000000  0.4855550000000  0.4800760000000 1.0
C      1  0.4796140000000  0.5414020000000  0.5752520000000 1.0
C      1  0.5014700000000  0.4404780000000  0.5734680000000 1.0
C      1  0.5274050000000  0.4928760000000  0.4762260000000 1.0
C      1  0.4814090000000  0.4135360000000  0.5507790000000 1.0
C      1  0.5465630000000  0.4322920000000  0.4249870000000 1.0
C      1  0.4661740000000  0.4509570000000  0.4488860000000 1.0
C      1  0.5393750000000  0.6064120000000  0.5051530000000 1.0
C      1  0.4420170000000  0.4444890000000  0.4987550000000 1.0
C      1  0.5874510000000  0.4664010000000  0.5207620000000 1.0
C      1  0.4543490000000  0.4127650000000  0.4967560000000 1.0
C      1  0.4579530000000  0.4941270000000  0.5010360000000 1.0
C      1  0.4127270000000  0.4997780000000  0.4696350000000 1.0
C      1  0.4501310000000  0.4475120000000  0.5729150000000 1.0
C      1  0.4861440000000  0.4597980000000  0.4702520000000 1.0
C      1  0.5540090000000  0.5770280000000  0.5276920000000 1.0
C      1  0.5397630000000  0.4051590000000  0.4830800000000 1.0
C      1  0.5089270000000  0.5948530000000  0.5463050000000 1.0
C      1  0.5593590000000  0.5203060000000  0.4774180000000 1.0
C      1  0.4987850000000  0.4992600000000  0.5738490000000 1.0
C      1  0.4515050000000  0.4796760000000  0.5733820000000 1.0
C      1  0.5008780000000  0.4478210000000  0.4113890000000 1.0
C      1  0.5061570000000  0.4107680000000  0.5212030000000 1.0
C      1  0.4954590000000  0.5687920000000  0.5637210000000 1.0
C      1  0.5380260000000  0.5853960000000  0.5541780000000 1.0
C      1  0.5229790000000  0.5088840000000  0.5290230000000 1.0
C      1  0.5069590000000  0.3995450000000  0.4740460000000 1.0
C      1  0.4962320000000  0.5251810000000  0.4557800000000 1.0
C      1  0.5030630000000  0.5747000000000  0.5039400000000 1.0
C      1  0.4992660000000  0.5362700000000  0.4939460000000 1.0
C      1  0.5594220000000  0.5445770000000  0.4219210000000 1.0
C      1  0.4357200000000  0.4662710000000  0.4484920000000 1.0
C      1  0.4656120000000  0.4630450000000  0.5079450000000 1.0
END
