TITL C-2778431-5191-1082 -0.000840436101500219 125000 -409.264128629326 0 0 71 (C1) n - 1
REM
REM in /home/nfs/bkarasulu/CARBON/AIRSS/Generating-Clusters/REBO/Only-C1/SD-CG/HFTN-CG
REM
REM
REM
REM
REM
REM ./C.cell (11c1c37f851c82e70ff6c80c92926a4b)
REM
REM compiler GCC version 9.2.1 20190827 (Red Hat 9.2.1-1)
REM options -cpp -mtune=generic -march=x86-64 -g -O0 -fpre-include=/usr/include/finclude/math-vector-fortran.h
REM seed 1121755158 -344323870 1699400347 -2017859654 599625541 -397267005 -152846855 2113606069 2081949498 -100878407 1807924009 -866024964 1291680333 1085632201 288620954 -415138974 -1075258667 -1948162859 -553041750 -584520505 -2147459671 1373226555 -2126324494 659115292 -1419005564 199855132 -1338251084 -1211549484 -705869350 575912902 -1552409898 -490205798 1929664868
REM
CELL 1.54180   50.00000   50.00000   50.00000   90.00000   90.00000   90.00000
LATT -1
SFAC C  
C      1  0.5695970000000  0.4883310000000  0.5365290000000 1.0
C      1  0.4963960000000  0.4894750000000  0.5847260000000 1.0
C      1  0.4761540000000  0.4573850000000  0.4784280000000 1.0
C      1  0.4957850000000  0.4481170000000  0.4624850000000 1.0
C      1  0.4368230000000  0.5430420000000  0.5481980000000 1.0
C      1  0.4754320000000  0.4651070000000  0.5115730000000 1.0
C      1  0.5004730000000  0.5388390000000  0.5073760000000 1.0
C      1  0.4866180000000  0.5660590000000  0.4998870000000 1.0
C      1  0.5268390000000  0.4728440000000  0.5100760000000 1.0
C      1  0.5306390000000  0.5052800000000  0.4716460000000 1.0
C      1  0.5462890000000  0.4732740000000  0.4429130000000 1.0
C      1  0.5519150000000  0.4652420000000  0.4927640000000 1.0
C      1  0.5416930000000  0.5292430000000  0.5523350000000 1.0
C      1  0.5090820000000  0.4936170000000  0.5537860000000 1.0
C      1  0.4280400000000  0.5460810000000  0.4999900000000 1.0
C      1  0.4393700000000  0.5019790000000  0.4823100000000 1.0
C      1  0.4589980000000  0.5318920000000  0.5610910000000 1.0
C      1  0.4763030000000  0.5126150000000  0.5414190000000 1.0
C      1  0.5364120000000  0.4798680000000  0.5389060000000 1.0
C      1  0.4673730000000  0.5033730000000  0.4906240000000 1.0
C      1  0.5253680000000  0.5788440000000  0.4727910000000 1.0
C      1  0.5300440000000  0.5308960000000  0.5019170000000 1.0
C      1  0.5636320000000  0.4443460000000  0.5376510000000 1.0
C      1  0.5505200000000  0.5325290000000  0.4781150000000 1.0
C      1  0.5159250000000  0.5012810000000  0.5021300000000 1.0
C      1  0.5084420000000  0.4207760000000  0.5220840000000 1.0
C      1  0.4955960000000  0.5472950000000  0.5461610000000 1.0
C      1  0.5526830000000  0.5453360000000  0.5311300000000 1.0
C      1  0.5295390000000  0.5602540000000  0.5168530000000 1.0
C      1  0.4855520000000  0.5118500000000  0.5132340000000 1.0
C      1  0.4393930000000  0.5116730000000  0.4543400000000 1.0
C      1  0.4219870000000  0.4488630000000  0.4645020000000 1.0
C      1  0.4931440000000  0.4665050000000  0.5406640000000 1.0
C      1  0.4463510000000  0.4783620000000  0.5136270000000 1.0
C      1  0.4857960000000  0.4963540000000  0.4280370000000 1.0
C      1  0.4708530000000  0.5461940000000  0.4428180000000 1.0
C      1  0.5835080000000  0.5037070000000  0.5181940000000 1.0
C      1  0.5027780000000  0.5560240000000  0.4493850000000 1.0
C      1  0.4963000000000  0.5274680000000  0.4337150000000 1.0
C      1  0.4310720000000  0.5304900000000  0.5232770000000 1.0
C      1  0.5361530000000  0.5529700000000  0.4554470000000 1.0
C      1  0.4457790000000  0.5395440000000  0.4529150000000 1.0
C      1  0.5478750000000  0.4995510000000  0.4360240000000 1.0
C      1  0.4952610000000  0.5759750000000  0.4747810000000 1.0
C      1  0.5359140000000  0.5821330000000  0.4983820000000 1.0
C      1  0.4286510000000  0.4714780000000  0.4876130000000 1.0
C      1  0.5195760000000  0.4222610000000  0.4928070000000 1.0
C      1  0.5054770000000  0.4512180000000  0.5061050000000 1.0
C      1  0.5694540000000  0.5326920000000  0.5069040000000 1.0
C      1  0.4816880000000  0.4495310000000  0.5662770000000 1.0
C      1  0.5429950000000  0.4549770000000  0.4642780000000 1.0
C      1  0.3897050000000  0.4134030000000  0.4441450000000 1.0
C      1  0.5795550000000  0.5067780000000  0.4872810000000 1.0
C      1  0.4511730000000  0.4652700000000  0.4635580000000 1.0
C      1  0.5588590000000  0.4910520000000  0.4763720000000 1.0
C      1  0.4833540000000  0.5664830000000  0.5303590000000 1.0
C      1  0.4576320000000  0.4880040000000  0.4420190000000 1.0
C      1  0.4785590000000  0.5100750000000  0.5735600000000 1.0
C      1  0.4059450000000  0.4312420000000  0.4543860000000 1.0
C      1  0.5461830000000  0.5262520000000  0.4389750000000 1.0
C      1  0.5133900000000  0.4408800000000  0.5438380000000 1.0
C      1  0.4394900000000  0.5031540000000  0.5226880000000 1.0
C      1  0.5211220000000  0.4369390000000  0.4671570000000 1.0
C      1  0.5526690000000  0.5034690000000  0.5575210000000 1.0
C      1  0.5710780000000  0.4509890000000  0.5122330000000 1.0
C      1  0.5126310000000  0.5256750000000  0.5518790000000 1.0
C      1  0.4806910000000  0.4952060000000  0.4662450000000 1.0
C      1  0.5404030000000  0.4423300000000  0.5520060000000 1.0
C      1  0.4868210000000  0.4632420000000  0.5898030000000 1.0
C      1  0.5092070000000  0.5026900000000  0.4521850000000 1.0
C      1  0.4339970000000  0.5538270000000  0.4745700000000 1.0
END
