TITL C-2778428-5639-1440 0.00161469160411467 125000 -434.610791882718 0 0 74 (C1) n - 1
REM
REM in /home/nfs/bkarasulu/CARBON/AIRSS/Generating-Clusters/REBO/Only-C1/SD-CG/HFTN-CG
REM
REM
REM
REM
REM
REM ./C.cell (11c1c37f851c82e70ff6c80c92926a4b)
REM
REM compiler GCC version 9.2.1 20190827 (Red Hat 9.2.1-1)
REM options -cpp -mtune=generic -march=x86-64 -g -O0 -fpre-include=/usr/include/finclude/math-vector-fortran.h
REM seed -2077984560 -1848195033 1044355495 1040901741 -1484673259 1323382596 -1959072574 -212073089 111248555 1674703795 1807525505 -356330546 -1063273752 996915828 551237771 -421224852 1028425940 244924165 1554597957 1752140045 -788606342 -1742766559 -959668426 1082902340 -964971130 1132761322 -1899589787 -1587950550 279144106 -692196392 -127890060 -797030354 1656259020
REM
CELL 1.54180   50.00000   50.00000   50.00000   90.00000   90.00000   90.00000
LATT -1
SFAC C  
C      1  0.5039240000000  0.4562100000000  0.4372520000000 1.0
C      1  0.5784050000000  0.5174950000000  0.5256980000000 1.0
C      1  0.4544810000000  0.5489160000000  0.4617130000000 1.0
C      1  0.5003730000000  0.5527170000000  0.4760050000000 1.0
C      1  0.5778740000000  0.5075390000000  0.4710830000000 1.0
C      1  0.5061370000000  0.5157450000000  0.5710530000000 1.0
C      1  0.5582140000000  0.5527660000000  0.4861030000000 1.0
C      1  0.5931590000000  0.5003990000000  0.5005890000000 1.0
C      1  0.5133570000000  0.5971740000000  0.4895700000000 1.0
C      1  0.4814890000000  0.4419260000000  0.5152560000000 1.0
C      1  0.4600110000000  0.4424010000000  0.5391650000000 1.0
C      1  0.5499260000000  0.5450830000000  0.5291050000000 1.0
C      1  0.5473180000000  0.5185090000000  0.5120020000000 1.0
C      1  0.4377860000000  0.4424980000000  0.4762920000000 1.0
C      1  0.5044250000000  0.5292630000000  0.5305890000000 1.0
C      1  0.5058480000000  0.4848680000000  0.4644350000000 1.0
C      1  0.5551470000000  0.5166510000000  0.4545480000000 1.0
C      1  0.5555610000000  0.5195320000000  0.5508770000000 1.0
C      1  0.4965600000000  0.4874830000000  0.4257660000000 1.0
C      1  0.4635720000000  0.4699260000000  0.5075000000000 1.0
C      1  0.5565860000000  0.4558000000000  0.4670030000000 1.0
C      1  0.4620510000000  0.4107960000000  0.4995150000000 1.0
C      1  0.5031580000000  0.5366270000000  0.4999680000000 1.0
C      1  0.4867050000000  0.4285300000000  0.4844430000000 1.0
C      1  0.4598050000000  0.5431460000000  0.5207930000000 1.0
C      1  0.4569690000000  0.4819340000000  0.5356230000000 1.0
C      1  0.5561820000000  0.4681240000000  0.5331480000000 1.0
C      1  0.5229780000000  0.5841370000000  0.5130250000000 1.0
C      1  0.5102690000000  0.4424290000000  0.5330690000000 1.0
C      1  0.4761610000000  0.5207560000000  0.5605280000000 1.0
C      1  0.4889090000000  0.4892460000000  0.5583660000000 1.0
C      1  0.4648500000000  0.4449220000000  0.4679950000000 1.0
C      1  0.5103910000000  0.5554400000000  0.5734040000000 1.0
C      1  0.4291290000000  0.5180130000000  0.5490620000000 1.0
C      1  0.4297740000000  0.4804360000000  0.4454470000000 1.0
C      1  0.5563070000000  0.4670270000000  0.5052620000000 1.0
C      1  0.4596210000000  0.5391980000000  0.4372180000000 1.0
C      1  0.5102420000000  0.4987180000000  0.5348550000000 1.0
C      1  0.4696130000000  0.4648600000000  0.5580120000000 1.0
C      1  0.5458310000000  0.5663220000000  0.5098080000000 1.0
C      1  0.5448520000000  0.5422680000000  0.4622050000000 1.0
C      1  0.5067470000000  0.5173220000000  0.4388560000000 1.0
C      1  0.5239040000000  0.5137810000000  0.4995140000000 1.0
C      1  0.4777330000000  0.4680300000000  0.4546540000000 1.0
C      1  0.5167960000000  0.5424910000000  0.4550020000000 1.0
C      1  0.4753970000000  0.5701520000000  0.5154480000000 1.0
C      1  0.5388070000000  0.4922230000000  0.5473130000000 1.0
C      1  0.5325650000000  0.4681850000000  0.4509110000000 1.0
C      1  0.5114800000000  0.4861850000000  0.5038700000000 1.0
C      1  0.5195670000000  0.4381690000000  0.5047050000000 1.0
C      1  0.5764960000000  0.4762160000000  0.4833640000000 1.0
C      1  0.5279820000000  0.4595300000000  0.5470720000000 1.0
C      1  0.4334650000000  0.4783530000000  0.4934310000000 1.0
C      1  0.5319590000000  0.5217860000000  0.5732240000000 1.0
C      1  0.5321290000000  0.4996350000000  0.4479030000000 1.0
C      1  0.4637440000000  0.5638100000000  0.4876110000000 1.0
C      1  0.4544930000000  0.5311840000000  0.5460300000000 1.0
C      1  0.4969280000000  0.5811840000000  0.4741720000000 1.0
C      1  0.5005270000000  0.5747120000000  0.5294120000000 1.0
C      1  0.4843670000000  0.4860790000000  0.4896710000000 1.0
C      1  0.5378680000000  0.4332920000000  0.4695600000000 1.0
C      1  0.4285670000000  0.4910780000000  0.5407440000000 1.0
C      1  0.4339300000000  0.4419980000000  0.5256260000000 1.0
C      1  0.4743370000000  0.5123600000000  0.4337580000000 1.0
C      1  0.5108330000000  0.4354760000000  0.4635160000000 1.0
C      1  0.4224000000000  0.4685450000000  0.5210300000000 1.0
C      1  0.5059820000000  0.5521270000000  0.5469400000000 1.0
C      1  0.4370600000000  0.4263410000000  0.5008020000000 1.0
C      1  0.4586570000000  0.4918940000000  0.4511060000000 1.0
C      1  0.5298840000000  0.4631640000000  0.4959040000000 1.0
C      1  0.4540660000000  0.5301710000000  0.4898790000000 1.0
C      1  0.5805680000000  0.5319570000000  0.4946480000000 1.0
C      1  0.4209590000000  0.4658140000000  0.4674830000000 1.0
C      1  0.4558540000000  0.5009280000000  0.4834910000000 1.0
END
