TITL C-2778426-5645-391 0.00382757232625463 125000 -868.504660014797 0 0 150 (C1) n - 1
REM
REM in /home/nfs/bkarasulu/CARBON/AIRSS/Generating-Clusters/REBO/Only-C1/SD-CG/HFTN-CG
REM
REM
REM
REM
REM
REM ./C.cell (11c1c37f851c82e70ff6c80c92926a4b)
REM
REM compiler GCC version 9.2.1 20190827 (Red Hat 9.2.1-1)
REM options -cpp -mtune=generic -march=x86-64 -g -O0 -fpre-include=/usr/include/finclude/math-vector-fortran.h
REM seed 1045863029 305703642 -1699491789 398776221 1169979807 -1056983767 1843380407 -1629997815 -998511042 469281100 -850341714 1520507642 -1160560570 -1764390745 1692897852 -403908377 -1387854437 1218699195 -1305354120 -337287249 -762897569 -1501456848 1991962959 -1766284236 -193733039 1505022027 -885539720 574894156 -929450352 -1529318073 207147063 239618977 -1104631688
REM
CELL 1.54180   50.00000   50.00000   50.00000   90.00000   90.00000   90.00000
LATT -1
SFAC C  
C      1  0.5352220000000  0.5591520000000  0.5457370000000 1.0
C      1  0.5376440000000  0.4440660000000  0.4234790000000 1.0
C      1  0.5250690000000  0.4147620000000  0.5361630000000 1.0
C      1  0.4499200000000  0.4342880000000  0.4545920000000 1.0
C      1  0.5068450000000  0.5433670000000  0.5496040000000 1.0
C      1  0.4993360000000  0.4921950000000  0.6070850000000 1.0
C      1  0.5038710000000  0.5989420000000  0.4938660000000 1.0
C      1  0.4819240000000  0.5502470000000  0.5021500000000 1.0
C      1  0.5820000000000  0.5379810000000  0.5073600000000 1.0
C      1  0.5657120000000  0.4520470000000  0.4398980000000 1.0
C      1  0.4253290000000  0.4296140000000  0.4773470000000 1.0
C      1  0.4526030000000  0.5446080000000  0.5018600000000 1.0
C      1  0.4677890000000  0.4442120000000  0.5904500000000 1.0
C      1  0.4299900000000  0.4997540000000  0.4829480000000 1.0
C      1  0.5324470000000  0.5207540000000  0.4708610000000 1.0
C      1  0.4641630000000  0.5075640000000  0.5555610000000 1.0
C      1  0.4198080000000  0.4794600000000  0.4280880000000 1.0
C      1  0.4375140000000  0.5620280000000  0.4785330000000 1.0
C      1  0.4501710000000  0.4996050000000  0.5288540000000 1.0
C      1  0.3956570000000  0.5296820000000  0.4635320000000 1.0
C      1  0.5153510000000  0.4698470000000  0.4751580000000 1.0
C      1  0.5945260000000  0.4989070000000  0.5025000000000 1.0
C      1  0.5732090000000  0.5661830000000  0.5238300000000 1.0
C      1  0.5661890000000  0.5182700000000  0.5538970000000 1.0
C      1  0.5064790000000  0.5682450000000  0.4409020000000 1.0
C      1  0.4515030000000  0.5607480000000  0.5627730000000 1.0
C      1  0.4375540000000  0.5913160000000  0.5204200000000 1.0
C      1  0.3990200000000  0.4860750000000  0.5040370000000 1.0
C      1  0.5439950000000  0.4102870000000  0.4759200000000 1.0
C      1  0.5127940000000  0.5601530000000  0.4963730000000 1.0
C      1  0.5345300000000  0.5813310000000  0.4281940000000 1.0
C      1  0.5124070000000  0.4648060000000  0.5244670000000 1.0
C      1  0.4191460000000  0.5410080000000  0.5234410000000 1.0
C      1  0.4964390000000  0.4863720000000  0.5655340000000 1.0
C      1  0.5597750000000  0.4376050000000  0.4692750000000 1.0
C      1  0.5239090000000  0.4868410000000  0.5033810000000 1.0
C      1  0.4757270000000  0.4235510000000  0.4693620000000 1.0
C      1  0.4707180000000  0.4925520000000  0.6044510000000 1.0
C      1  0.4295010000000  0.4315470000000  0.5317910000000 1.0
C      1  0.4660970000000  0.5022130000000  0.4155590000000 1.0
C      1  0.4420720000000  0.5169770000000  0.4330400000000 1.0
C      1  0.4872000000000  0.5261940000000  0.4056340000000 1.0
C      1  0.5401170000000  0.4632810000000  0.4583110000000 1.0
C      1  0.4768220000000  0.4832550000000  0.4489220000000 1.0
C      1  0.4454220000000  0.4948230000000  0.4551880000000 1.0
C      1  0.5007400000000  0.4407660000000  0.5824950000000 1.0
C      1  0.3979420000000  0.5087080000000  0.4820210000000 1.0
C      1  0.4076310000000  0.4875510000000  0.5310700000000 1.0
C      1  0.4465810000000  0.4758410000000  0.4200690000000 1.0
C      1  0.5857060000000  0.5044760000000  0.4431680000000 1.0
C      1  0.5418410000000  0.5273550000000  0.4103260000000 1.0
C      1  0.4809430000000  0.5762680000000  0.5650700000000 1.0
C      1  0.5260100000000  0.4899800000000  0.4423670000000 1.0
C      1  0.4460570000000  0.4178030000000  0.5496130000000 1.0
C      1  0.5492800000000  0.4648160000000  0.5090660000000 1.0
C      1  0.5969160000000  0.4653730000000  0.4767870000000 1.0
C      1  0.5579060000000  0.5145850000000  0.5019150000000 1.0
C      1  0.5682980000000  0.5271460000000  0.4284100000000 1.0
C      1  0.5086650000000  0.4544330000000  0.4157220000000 1.0
C      1  0.4743550000000  0.4660690000000  0.5664610000000 1.0
C      1  0.5000220000000  0.5202350000000  0.5668730000000 1.0
C      1  0.5557810000000  0.4951400000000  0.4293060000000 1.0
C      1  0.5410960000000  0.4376690000000  0.5160880000000 1.0
C      1  0.5728390000000  0.4649880000000  0.5628040000000 1.0
C      1  0.5596340000000  0.5742580000000  0.4354840000000 1.0
C      1  0.5226700000000  0.5140640000000  0.5201450000000 1.0
C      1  0.4767360000000  0.4207330000000  0.5429580000000 1.0
C      1  0.5177970000000  0.5796120000000  0.4696790000000 1.0
C      1  0.4363840000000  0.5172840000000  0.5077240000000 1.0
C      1  0.4149810000000  0.5129550000000  0.5424650000000 1.0
C      1  0.4167430000000  0.5410760000000  0.4516780000000 1.0
C      1  0.4514830000000  0.4942510000000  0.5838700000000 1.0
C      1  0.5250480000000  0.4994850000000  0.5773760000000 1.0
C      1  0.4388670000000  0.5506700000000  0.4276760000000 1.0
C      1  0.4829430000000  0.5463160000000  0.5814270000000 1.0
C      1  0.5891290000000  0.5153050000000  0.5297550000000 1.0
C      1  0.4776760000000  0.5832890000000  0.4510860000000 1.0
C      1  0.5035280000000  0.4219900000000  0.5576570000000 1.0
C      1  0.4055750000000  0.4733660000000  0.4502630000000 1.0
C      1  0.5709570000000  0.4382880000000  0.5583290000000 1.0
C      1  0.5267450000000  0.5621180000000  0.5787920000000 1.0
C      1  0.4889480000000  0.4951390000000  0.5354910000000 1.0
C      1  0.4485190000000  0.5339710000000  0.4624540000000 1.0
C      1  0.5114610000000  0.5446960000000  0.5961410000000 1.0
C      1  0.4589250000000  0.4526880000000  0.4304370000000 1.0
C      1  0.5244100000000  0.5976400000000  0.5466130000000 1.0
C      1  0.4362610000000  0.4242990000000  0.5038230000000 1.0
C      1  0.4989460000000  0.5271260000000  0.5141290000000 1.0
C      1  0.4975760000000  0.4453580000000  0.4812910000000 1.0
C      1  0.5842460000000  0.5635990000000  0.5525660000000 1.0
C      1  0.5083540000000  0.3993580000000  0.5139750000000 1.0
C      1  0.5161240000000  0.5273480000000  0.4197240000000 1.0
C      1  0.5375570000000  0.5410680000000  0.4947580000000 1.0
C      1  0.5790010000000  0.5466340000000  0.4743540000000 1.0
C      1  0.4750450000000  0.5078190000000  0.5068690000000 1.0
C      1  0.4178650000000  0.4595980000000  0.5475930000000 1.0
C      1  0.5880000000000  0.5143660000000  0.4756700000000 1.0
C      1  0.5355790000000  0.4798290000000  0.3873690000000 1.0
C      1  0.5566290000000  0.4925430000000  0.5251060000000 1.0
C      1  0.4837920000000  0.6035210000000  0.4690290000000 1.0
C      1  0.5371070000000  0.5917390000000  0.4950950000000 1.0
C      1  0.5778560000000  0.4764240000000  0.4567430000000 1.0
C      1  0.5800270000000  0.5432930000000  0.5670120000000 1.0
C      1  0.5337810000000  0.4751630000000  0.5443310000000 1.0
C      1  0.5585200000000  0.5663540000000  0.4930080000000 1.0
C      1  0.4806320000000  0.5349320000000  0.4573760000000 1.0
C      1  0.4415400000000  0.4635440000000  0.4647090000000 1.0
C      1  0.4110550000000  0.4647100000000  0.4809470000000 1.0
C      1  0.4898990000000  0.5794090000000  0.5141830000000 1.0
C      1  0.4226110000000  0.5704310000000  0.5063130000000 1.0
C      1  0.4270850000000  0.5124620000000  0.5686230000000 1.0
C      1  0.4431090000000  0.4691100000000  0.5311910000000 1.0
C      1  0.4679670000000  0.4510040000000  0.5386820000000 1.0
C      1  0.5839600000000  0.4387570000000  0.4913510000000 1.0
C      1  0.4798440000000  0.4692220000000  0.5153620000000 1.0
C      1  0.5444080000000  0.5838820000000  0.5256870000000 1.0
C      1  0.5515770000000  0.4716980000000  0.4088500000000 1.0
C      1  0.5266530000000  0.4601770000000  0.5715190000000 1.0
C      1  0.5174920000000  0.3974730000000  0.4879930000000 1.0
C      1  0.4649940000000  0.4745400000000  0.4871140000000 1.0
C      1  0.4779890000000  0.5022560000000  0.4769040000000 1.0
C      1  0.4632920000000  0.4137050000000  0.4975950000000 1.0
C      1  0.5085020000000  0.4768700000000  0.3957870000000 1.0
C      1  0.5061590000000  0.4109910000000  0.4632790000000 1.0
C      1  0.5304760000000  0.4223240000000  0.4467660000000 1.0
C      1  0.4513370000000  0.5718410000000  0.4505950000000 1.0
C      1  0.5072740000000  0.5003320000000  0.4684080000000 1.0
C      1  0.5829700000000  0.4690280000000  0.5065430000000 1.0
C      1  0.4364990000000  0.4728040000000  0.5026330000000 1.0
C      1  0.4702630000000  0.5446510000000  0.4283550000000 1.0
C      1  0.5120870000000  0.5354840000000  0.4500090000000 1.0
C      1  0.4675450000000  0.5829610000000  0.5344570000000 1.0
C      1  0.5107510000000  0.5838020000000  0.5655480000000 1.0
C      1  0.5037910000000  0.4384700000000  0.5081220000000 1.0
C      1  0.4478700000000  0.5550790000000  0.5327400000000 1.0
C      1  0.4882510000000  0.4548520000000  0.4340220000000 1.0
C      1  0.5576300000000  0.4999920000000  0.4710190000000 1.0
C      1  0.4813580000000  0.4063590000000  0.5171610000000 1.0
C      1  0.4977700000000  0.4920910000000  0.4234360000000 1.0
C      1  0.4429350000000  0.4522210000000  0.5695310000000 1.0
C      1  0.5636640000000  0.4167370000000  0.5029890000000 1.0
C      1  0.5116530000000  0.4683470000000  0.5985120000000 1.0
C      1  0.5163970000000  0.5178730000000  0.6032640000000 1.0
C      1  0.4941160000000  0.5593440000000  0.4104460000000 1.0
C      1  0.5414810000000  0.5283660000000  0.5366950000000 1.0
C      1  0.5722170000000  0.5522650000000  0.4447400000000 1.0
C      1  0.5533870000000  0.4928730000000  0.5661810000000 1.0
C      1  0.5836910000000  0.4845240000000  0.5417360000000 1.0
C      1  0.5588790000000  0.4188370000000  0.5368940000000 1.0
C      1  0.4533950000000  0.5328220000000  0.5758270000000 1.0
END
