TITL C-2778427-5640-727 -0.002355139573509 125000 -509.230910554163 0 0 89 (C1) n - 1
REM
REM in /home/nfs/bkarasulu/CARBON/AIRSS/Generating-Clusters/REBO/Only-C1/SD-CG/HFTN-CG
REM
REM
REM
REM
REM
REM ./C.cell (11c1c37f851c82e70ff6c80c92926a4b)
REM
REM compiler GCC version 9.2.1 20190827 (Red Hat 9.2.1-1)
REM options -cpp -mtune=generic -march=x86-64 -g -O0 -fpre-include=/usr/include/finclude/math-vector-fortran.h
REM seed 774408065 -364053703 1698041249 -480944341 1674357917 -2033652911 2095495154 -631479652 -1780397312 321898644 -1688456401 -1127093958 953850411 -1634127554 436822736 1974433790 1517220875 1666198583 886759758 -1535396138 1312881797 -15582684 -640517009 2052993685 432729482 -190069735 1043628374 -1574181615 -1995395093 -882982995 -1015515191 -254681402 991744468
REM
CELL 1.54180   50.00000   50.00000   50.00000   90.00000   90.00000   90.00000
LATT -1
SFAC C  
C      1  0.5578930000000  0.5363720000000  0.4460900000000 1.0
C      1  0.4652040000000  0.5102600000000  0.4234260000000 1.0
C      1  0.5038990000000  0.5000210000000  0.3944030000000 1.0
C      1  0.5191160000000  0.5351520000000  0.5903450000000 1.0
C      1  0.5892300000000  0.5042910000000  0.5225460000000 1.0
C      1  0.5100230000000  0.4585980000000  0.5038540000000 1.0
C      1  0.4216330000000  0.4888860000000  0.4751020000000 1.0
C      1  0.5513530000000  0.5577460000000  0.4718850000000 1.0
C      1  0.4330200000000  0.4311430000000  0.5282370000000 1.0
C      1  0.4404300000000  0.4564500000000  0.5390440000000 1.0
C      1  0.5510650000000  0.5071620000000  0.5589330000000 1.0
C      1  0.5506030000000  0.4419020000000  0.5150700000000 1.0
C      1  0.5706520000000  0.5298840000000  0.4772180000000 1.0
C      1  0.5654930000000  0.5220620000000  0.5078610000000 1.0
C      1  0.5020330000000  0.5940690000000  0.5092830000000 1.0
C      1  0.4523560000000  0.5211330000000  0.5568380000000 1.0
C      1  0.5134110000000  0.4570390000000  0.4712960000000 1.0
C      1  0.4588360000000  0.4767150000000  0.4892070000000 1.0
C      1  0.5223140000000  0.4258860000000  0.4622440000000 1.0
C      1  0.4318680000000  0.4646440000000  0.4626110000000 1.0
C      1  0.5201870000000  0.5492810000000  0.5137200000000 1.0
C      1  0.5386160000000  0.5015590000000  0.4404150000000 1.0
C      1  0.4841170000000  0.4568630000000  0.4431220000000 1.0
C      1  0.5652740000000  0.5001610000000  0.4613970000000 1.0
C      1  0.4972860000000  0.5044630000000  0.4638480000000 1.0
C      1  0.4463420000000  0.5203950000000  0.5284590000000 1.0
C      1  0.5235960000000  0.5060610000000  0.5453510000000 1.0
C      1  0.4752610000000  0.4182570000000  0.5116730000000 1.0
C      1  0.4763560000000  0.5019440000000  0.3957580000000 1.0
C      1  0.5043540000000  0.5245870000000  0.4388490000000 1.0
C      1  0.5702140000000  0.4498320000000  0.5708230000000 1.0
C      1  0.5663140000000  0.4739640000000  0.4729760000000 1.0
C      1  0.5494700000000  0.4309570000000  0.4826160000000 1.0
C      1  0.4257280000000  0.5399970000000  0.4885320000000 1.0
C      1  0.4550230000000  0.5611290000000  0.4552620000000 1.0
C      1  0.4176540000000  0.4869720000000  0.5032730000000 1.0
C      1  0.5366800000000  0.4520030000000  0.4357590000000 1.0
C      1  0.5254680000000  0.5467630000000  0.4444020000000 1.0
C      1  0.5089050000000  0.4414880000000  0.4350710000000 1.0
C      1  0.4451130000000  0.5322480000000  0.4399080000000 1.0
C      1  0.4722190000000  0.5381340000000  0.5705550000000 1.0
C      1  0.5604740000000  0.4791360000000  0.5631980000000 1.0
C      1  0.4226550000000  0.5312530000000  0.5160360000000 1.0
C      1  0.4830130000000  0.5438510000000  0.4999430000000 1.0
C      1  0.4772870000000  0.5397750000000  0.4305170000000 1.0
C      1  0.5806990000000  0.5489420000000  0.5529360000000 1.0
C      1  0.5758350000000  0.4315260000000  0.5896560000000 1.0
C      1  0.4482250000000  0.4260050000000  0.5044560000000 1.0
C      1  0.5023670000000  0.4971220000000  0.5614410000000 1.0
C      1  0.5191780000000  0.4266280000000  0.4961860000000 1.0
C      1  0.4894190000000  0.5603720000000  0.4548540000000 1.0
C      1  0.5169850000000  0.5725580000000  0.4987070000000 1.0
C      1  0.4811920000000  0.4565270000000  0.4764480000000 1.0
C      1  0.4715460000000  0.5349690000000  0.4696980000000 1.0
C      1  0.5686600000000  0.4575520000000  0.5384750000000 1.0
C      1  0.4843370000000  0.5640590000000  0.5751560000000 1.0
C      1  0.5530710000000  0.4527710000000  0.4588830000000 1.0
C      1  0.5399010000000  0.5098600000000  0.4927630000000 1.0
C      1  0.5219390000000  0.4846970000000  0.4629560000000 1.0
C      1  0.4796050000000  0.4808540000000  0.5580540000000 1.0
C      1  0.4516540000000  0.4670840000000  0.4425210000000 1.0
C      1  0.4749790000000  0.5903450000000  0.5133210000000 1.0
C      1  0.5433500000000  0.5237150000000  0.5849350000000 1.0
C      1  0.4301860000000  0.5184750000000  0.4653600000000 1.0
C      1  0.4909310000000  0.4324160000000  0.5323010000000 1.0
C      1  0.5199110000000  0.5254230000000  0.5256750000000 1.0
C      1  0.3995890000000  0.5353130000000  0.5298710000000 1.0
C      1  0.5699450000000  0.5232790000000  0.5412750000000 1.0
C      1  0.4654850000000  0.5097300000000  0.5106110000000 1.0
C      1  0.5190060000000  0.5682200000000  0.4684120000000 1.0
C      1  0.4435360000000  0.4458860000000  0.4842880000000 1.0
C      1  0.5190990000000  0.5067150000000  0.4157250000000 1.0
C      1  0.4638760000000  0.5660250000000  0.5039320000000 1.0
C      1  0.5329800000000  0.5226850000000  0.4667140000000 1.0
C      1  0.4756840000000  0.4900090000000  0.4441450000000 1.0
C      1  0.4257960000000  0.4780690000000  0.5277490000000 1.0
C      1  0.4426400000000  0.5625810000000  0.4843990000000 1.0
C      1  0.5259690000000  0.4855960000000  0.4977060000000 1.0
C      1  0.5706990000000  0.4648510000000  0.4994910000000 1.0
C      1  0.4581160000000  0.4955040000000  0.5716790000000 1.0
C      1  0.4948940000000  0.5175990000000  0.5836200000000 1.0
C      1  0.4715500000000  0.4594140000000  0.5396880000000 1.0
C      1  0.4683050000000  0.5036250000000  0.5996340000000 1.0
C      1  0.5881520000000  0.4766070000000  0.5204370000000 1.0
C      1  0.4933770000000  0.5131700000000  0.4943720000000 1.0
C      1  0.5214970000000  0.4306190000000  0.5289770000000 1.0
C      1  0.4802460000000  0.4638110000000  0.5102820000000 1.0
C      1  0.4576540000000  0.5059150000000  0.4782430000000 1.0
C      1  0.5098990000000  0.5623910000000  0.5870160000000 1.0
END
