TITL C-2778423-5760-467 0.00133745284320767 125000 -289.701342451348 0 0 52 (C1) n - 1
REM
REM in /home/nfs/bkarasulu/CARBON/AIRSS/Generating-Clusters/REBO/Only-C1/SD-CG/HFTN-CG
REM
REM
REM
REM
REM
REM ./C.cell (11c1c37f851c82e70ff6c80c92926a4b)
REM
REM compiler GCC version 9.2.1 20190827 (Red Hat 9.2.1-1)
REM options -cpp -mtune=generic -march=x86-64 -g -O0 -fpre-include=/usr/include/finclude/math-vector-fortran.h
REM seed 1498789285 997249059 1713859411 1726008397 1170601011 917769838 -162007802 1004855318 711597525 -1770026172 -673649259 1692591566 -1987573130 -1702249948 218605621 -1187432331 1852447470 -168225043 -2101260036 639804620 459447777 905861963 -2050882582 223531064 2101953071 -245424259 -2004410791 1217569073 613818869 610736395 914622564 960628034 1368216525
REM
CELL 1.54180   50.00000   50.00000   50.00000   90.00000   90.00000   90.00000
LATT -1
SFAC C  
C      1  0.5468940000000  0.5317330000000  0.5078960000000 1.0
C      1  0.4907730000000  0.4616290000000  0.4317700000000 1.0
C      1  0.4372880000000  0.4850640000000  0.4715300000000 1.0
C      1  0.5098040000000  0.5036710000000  0.4359850000000 1.0
C      1  0.5296320000000  0.4956440000000  0.5239210000000 1.0
C      1  0.5764200000000  0.4992790000000  0.4874810000000 1.0
C      1  0.4789080000000  0.5525200000000  0.5353180000000 1.0
C      1  0.5405850000000  0.5386000000000  0.4499050000000 1.0
C      1  0.4775580000000  0.5136990000000  0.4905540000000 1.0
C      1  0.5152700000000  0.5676450000000  0.4783900000000 1.0
C      1  0.5162990000000  0.5212860000000  0.4962900000000 1.0
C      1  0.5070310000000  0.4824620000000  0.5046280000000 1.0
C      1  0.4831740000000  0.5071640000000  0.5672670000000 1.0
C      1  0.4955360000000  0.4544050000000  0.4947040000000 1.0
C      1  0.4447820000000  0.4848390000000  0.5218710000000 1.0
C      1  0.5601780000000  0.4795790000000  0.4683580000000 1.0
C      1  0.4687850000000  0.5461520000000  0.4478410000000 1.0
C      1  0.4791950000000  0.4936210000000  0.4333480000000 1.0
C      1  0.4688740000000  0.4828310000000  0.5682020000000 1.0
C      1  0.5102790000000  0.5042310000000  0.5741650000000 1.0
C      1  0.4974090000000  0.5324530000000  0.4720030000000 1.0
C      1  0.5582990000000  0.4826680000000  0.5320710000000 1.0
C      1  0.5649640000000  0.5086020000000  0.5109680000000 1.0
C      1  0.5376410000000  0.4958970000000  0.5557990000000 1.0
C      1  0.4671450000000  0.4848660000000  0.4884300000000 1.0
C      1  0.4817930000000  0.4585260000000  0.5481950000000 1.0
C      1  0.5204950000000  0.4742460000000  0.5741240000000 1.0
C      1  0.5182510000000  0.4560650000000  0.4490010000000 1.0
C      1  0.5015770000000  0.5616790000000  0.5154970000000 1.0
C      1  0.5415970000000  0.4544890000000  0.5224060000000 1.0
C      1  0.4326450000000  0.5032630000000  0.4967250000000 1.0
C      1  0.5286410000000  0.5581730000000  0.5040410000000 1.0
C      1  0.4490610000000  0.4680350000000  0.5480230000000 1.0
C      1  0.5094850000000  0.4528870000000  0.5592910000000 1.0
C      1  0.5291660000000  0.4401140000000  0.5437040000000 1.0
C      1  0.4650300000000  0.4750240000000  0.4566420000000 1.0
C      1  0.4886780000000  0.4531260000000  0.4650870000000 1.0
C      1  0.4935900000000  0.5105690000000  0.5184930000000 1.0
C      1  0.4726320000000  0.4658980000000  0.5161770000000 1.0
C      1  0.4772400000000  0.5223410000000  0.5419720000000 1.0
C      1  0.4486050000000  0.5166960000000  0.5304870000000 1.0
C      1  0.5404120000000  0.4533370000000  0.4718080000000 1.0
C      1  0.4831160000000  0.5615510000000  0.4742820000000 1.0
C      1  0.5318130000000  0.4855520000000  0.4501930000000 1.0
C      1  0.4688690000000  0.5241460000000  0.4363650000000 1.0
C      1  0.4518800000000  0.5315210000000  0.5000120000000 1.0
C      1  0.5283510000000  0.4493280000000  0.4976560000000 1.0
C      1  0.4695030000000  0.5581290000000  0.5029820000000 1.0
C      1  0.5376390000000  0.5124960000000  0.4707090000000 1.0
C      1  0.5121100000000  0.5303630000000  0.4459160000000 1.0
C      1  0.5369140000000  0.4877490000000  0.4917880000000 1.0
C      1  0.4181860000000  0.5241530000000  0.5197280000000 1.0
END
