TITL C-2778437-8639-734 -0.000331977424757904 125000 -394.662077805649 0 0 69 (C1) n - 1
REM
REM in /home/nfs/bkarasulu/CARBON/AIRSS/Generating-Clusters/REBO/Only-C1/SD-CG/HFTN-CG
REM
REM
REM
REM
REM
REM ./C.cell (11c1c37f851c82e70ff6c80c92926a4b)
REM
REM compiler GCC version 9.2.1 20190827 (Red Hat 9.2.1-1)
REM options -cpp -mtune=generic -march=x86-64 -g -O0 -fpre-include=/usr/include/finclude/math-vector-fortran.h
REM seed -1814927751 432061391 990986545 -257584641 -1431731181 -2097088340 1156766106 72163809 -268432742 1781334324 -1958303136 -1332955899 706579557 -524550375 474089602 465492620 -1551125944 -332650276 -299649149 1456950265 -712538832 -71841569 1300535936 1118843936 -1713401802 2124466829 -1686758240 -549778110 1324089286 -1367241506 496612018 1648509041 1360306120
REM
CELL 1.54180   50.00000   50.00000   50.00000   90.00000   90.00000   90.00000
LATT -1
SFAC C  
C      1  0.5193600000000  0.5160460000000  0.5606340000000 1.0
C      1  0.5067760000000  0.5652770000000  0.5223270000000 1.0
C      1  0.4890970000000  0.4817650000000  0.4758410000000 1.0
C      1  0.4757150000000  0.5221200000000  0.5328180000000 1.0
C      1  0.4607840000000  0.5699660000000  0.4708910000000 1.0
C      1  0.5659210000000  0.5457610000000  0.5044750000000 1.0
C      1  0.4656290000000  0.4703960000000  0.5710930000000 1.0
C      1  0.5049290000000  0.4565530000000  0.4684480000000 1.0
C      1  0.5246040000000  0.5664310000000  0.4755790000000 1.0
C      1  0.4843550000000  0.5471120000000  0.5139710000000 1.0
C      1  0.4246300000000  0.5025300000000  0.5185520000000 1.0
C      1  0.4434070000000  0.5679800000000  0.4926950000000 1.0
C      1  0.5339140000000  0.5551960000000  0.5058120000000 1.0
C      1  0.5412690000000  0.5229830000000  0.5113580000000 1.0
C      1  0.5223430000000  0.5480030000000  0.4551860000000 1.0
C      1  0.4617520000000  0.4729230000000  0.4871170000000 1.0
C      1  0.5426080000000  0.4834990000000  0.5609530000000 1.0
C      1  0.5165140000000  0.4778840000000  0.5720820000000 1.0
C      1  0.5498860000000  0.4856710000000  0.5334340000000 1.0
C      1  0.5050800000000  0.5073640000000  0.4846130000000 1.0
C      1  0.4622240000000  0.4935450000000  0.5084410000000 1.0
C      1  0.5744380000000  0.4952320000000  0.5201110000000 1.0
C      1  0.4890790000000  0.4874890000000  0.5753380000000 1.0
C      1  0.4655960000000  0.5241950000000  0.4411550000000 1.0
C      1  0.5687020000000  0.5137680000000  0.4945740000000 1.0
C      1  0.4680030000000  0.4829050000000  0.5333140000000 1.0
C      1  0.5018440000000  0.5040380000000  0.5360470000000 1.0
C      1  0.5574960000000  0.5062580000000  0.4662340000000 1.0
C      1  0.5029240000000  0.4324270000000  0.5126840000000 1.0
C      1  0.5044460000000  0.4915980000000  0.4286490000000 1.0
C      1  0.5206330000000  0.4479770000000  0.4405480000000 1.0
C      1  0.4457340000000  0.4458610000000  0.4630030000000 1.0
C      1  0.4865210000000  0.5315320000000  0.4869840000000 1.0
C      1  0.4612010000000  0.4670770000000  0.4433260000000 1.0
C      1  0.5274880000000  0.5176020000000  0.4672470000000 1.0
C      1  0.4915030000000  0.4657270000000  0.4392950000000 1.0
C      1  0.5353520000000  0.4966970000000  0.4385700000000 1.0
C      1  0.5423700000000  0.4433380000000  0.4666070000000 1.0
C      1  0.4736530000000  0.5467700000000  0.4630150000000 1.0
C      1  0.4317280000000  0.5386620000000  0.4933100000000 1.0
C      1  0.4559420000000  0.4402550000000  0.4947080000000 1.0
C      1  0.4477670000000  0.4633130000000  0.5457030000000 1.0
C      1  0.4425430000000  0.5219460000000  0.4664460000000 1.0
C      1  0.5938310000000  0.4750010000000  0.5153500000000 1.0
C      1  0.5588870000000  0.4534930000000  0.4922240000000 1.0
C      1  0.4530580000000  0.5487770000000  0.5216980000000 1.0
C      1  0.4466660000000  0.4963630000000  0.4462740000000 1.0
C      1  0.5204150000000  0.5015610000000  0.5110550000000 1.0
C      1  0.5098740000000  0.5846750000000  0.4947920000000 1.0
C      1  0.4862050000000  0.5476600000000  0.5662750000000 1.0
C      1  0.5202270000000  0.4464220000000  0.4929170000000 1.0
C      1  0.4586580000000  0.5192890000000  0.4953060000000 1.0
C      1  0.5028480000000  0.4465120000000  0.5373140000000 1.0
C      1  0.4885830000000  0.5176880000000  0.5711490000000 1.0
C      1  0.5351710000000  0.4711260000000  0.5091430000000 1.0
C      1  0.4790820000000  0.4228210000000  0.5035580000000 1.0
C      1  0.4418420000000  0.5190180000000  0.5315100000000 1.0
C      1  0.5705420000000  0.4839090000000  0.4521170000000 1.0
C      1  0.4900980000000  0.5180570000000  0.4250830000000 1.0
C      1  0.5308790000000  0.5421650000000  0.5584680000000 1.0
C      1  0.4255520000000  0.4787200000000  0.5029650000000 1.0
C      1  0.4332110000000  0.4768850000000  0.4699110000000 1.0
C      1  0.5625630000000  0.4885000000000  0.5791800000000 1.0
C      1  0.5093280000000  0.5608290000000  0.5523040000000 1.0
C      1  0.4954440000000  0.4732310000000  0.5385710000000 1.0
C      1  0.5847200000000  0.4536980000000  0.5003540000000 1.0
C      1  0.5494520000000  0.4650280000000  0.4414270000000 1.0
C      1  0.4384170000000  0.4568030000000  0.5167550000000 1.0
C      1  0.5186870000000  0.5281010000000  0.4311160000000 1.0
END
