TITL C-2778425-5191-105 0.379378611854311 125000 -844.727177701642 0 0 142 (C1) n - 1
REM
REM in /home/nfs/bkarasulu/CARBON/AIRSS/Generating-Clusters/REBO/Only-C1/SD-CG/HFTN-CG
REM
REM
REM
REM
REM
REM ./C.cell (11c1c37f851c82e70ff6c80c92926a4b)
REM
REM compiler GCC version 9.2.1 20190827 (Red Hat 9.2.1-1)
REM options -cpp -mtune=generic -march=x86-64 -g -O0 -fpre-include=/usr/include/finclude/math-vector-fortran.h
REM seed 445740612 94850419 -2002534344 538067971 -1261443025 2043963414 1747277181 298575274 1620867515 1123659583 24818184 -401561563 209923059 1581863462 -1677688948 -1429256754 -1165519315 666952753 1498036637 1965167423 -641512736 2070430962 792199558 1789974167 -1612529645 2053176066 -711775720 -1286916360 -997125563 -1248192707 -1617946411 1881964623 -766740453
REM
CELL 1.54180   50.00000   50.00000   50.00000   90.00000   90.00000   90.00000
LATT -1
SFAC C  
C      1  0.4451450000000  0.5501370000000  0.5237100000000 1.0
C      1  0.4715180000000  0.4118600000000  0.5452370000000 1.0
C      1  0.5523640000000  0.5275310000000  0.4838520000000 1.0
C      1  0.5388960000000  0.6275290000000  0.4645140000000 1.0
C      1  0.4558860000000  0.4800930000000  0.4002400000000 1.0
C      1  0.5205600000000  0.4857880000000  0.5712990000000 1.0
C      1  0.4776520000000  0.4511240000000  0.4167820000000 1.0
C      1  0.5140200000000  0.5529400000000  0.4449330000000 1.0
C      1  0.4615510000000  0.5538170000000  0.4956130000000 1.0
C      1  0.5470640000000  0.5722810000000  0.4623550000000 1.0
C      1  0.4113610000000  0.4388470000000  0.4831050000000 1.0
C      1  0.5230050000000  0.5495320000000  0.5327960000000 1.0
C      1  0.4534220000000  0.5754040000000  0.4757550000000 1.0
C      1  0.5065600000000  0.5132420000000  0.5037650000000 1.0
C      1  0.5050890000000  0.5406410000000  0.4750770000000 1.0
C      1  0.4565260000000  0.4289900000000  0.5123480000000 1.0
C      1  0.4364590000000  0.4890850000000  0.4648960000000 1.0
C      1  0.4464710000000  0.5219850000000  0.5427960000000 1.0
C      1  0.5406870000000  0.4119110000000  0.5313830000000 1.0
C      1  0.4634150000000  0.5467590000000  0.5589890000000 1.0
C      1  0.4641150000000  0.4693420000000  0.4629730000000 1.0
C      1  0.5420400000000  0.4554640000000  0.4154250000000 1.0
C      1  0.4132210000000  0.4480580000000  0.5318020000000 1.0
C      1  0.4453620000000  0.4542050000000  0.4124010000000 1.0
C      1  0.4164840000000  0.5468720000000  0.5125990000000 1.0
C      1  0.5556450000000  0.4164720000000  0.4584390000000 1.0
C      1  0.5394140000000  0.5010300000000  0.5282000000000 1.0
C      1  0.5786900000000  0.4749950000000  0.4711180000000 1.0
C      1  0.5902710000000  0.5335240000000  0.5175600000000 1.0
C      1  0.4891740000000  0.4812780000000  0.3931700000000 1.0
C      1  0.5626940000000  0.5534870000000  0.4447650000000 1.0
C      1  0.4959100000000  0.5990450000000  0.4802850000000 1.0
C      1  0.4090550000000  0.4748890000000  0.4530090000000 1.0
C      1  0.4128600000000  0.4466520000000  0.4552220000000 1.0
C      1  0.5634560000000  0.4413640000000  0.4949800000000 1.0
C      1  0.5127840000000  0.4996030000000  0.4791150000000 1.0
C      1  0.4959050000000  0.5017630000000  0.4290630000000 1.0
C      1  0.4795300000000  0.5119850000000  0.4031680000000 1.0
C      1  0.4445010000000  0.4561750000000  0.5680950000000 1.0
C      1  0.5388750000000  0.5032890000000  0.4159250000000 1.0
C      1  0.4315170000000  0.4661580000000  0.5447340000000 1.0
C      1  0.4022280000000  0.4597010000000  0.5060790000000 1.0
C      1  0.5943100000000  0.5510630000000  0.4912160000000 1.0
C      1  0.5752860000000  0.5074360000000  0.5679970000000 1.0
C      1  0.5086350000000  0.4270660000000  0.4578260000000 1.0
C      1  0.5726800000000  0.5398550000000  0.5633510000000 1.0
C      1  0.4480750000000  0.5517230000000  0.5885350000000 1.0
C      1  0.4471510000000  0.5074800000000  0.4089140000000 1.0
C      1  0.4044740000000  0.4881900000000  0.5033700000000 1.0
C      1  0.4755920000000  0.5326890000000  0.4809940000000 1.0
C      1  0.4839220000000  0.5423430000000  0.4012660000000 1.0
C      1  0.5901320000000  0.4840230000000  0.5554500000000 1.0
C      1  0.5070700000000  0.5171950000000  0.5701800000000 1.0
C      1  0.5439950000000  0.5137170000000  0.5555620000000 1.0
C      1  0.4639000000000  0.4432310000000  0.4458020000000 1.0
C      1  0.5208090000000  0.4803940000000  0.4063360000000 1.0
C      1  0.5758120000000  0.5461280000000  0.4715410000000 1.0
C      1  0.4600710000000  0.5064950000000  0.5701540000000 1.0
C      1  0.5455520000000  0.5300030000000  0.4360960000000 1.0
C      1  0.4682700000000  0.4544430000000  0.5175970000000 1.0
C      1  0.4733530000000  0.5004120000000  0.4734950000000 1.0
C      1  0.5099560000000  0.5880490000000  0.5733540000000 1.0
C      1  0.4936550000000  0.4741460000000  0.4792000000000 1.0
C      1  0.5395050000000  0.5583670000000  0.4844870000000 1.0
C      1  0.4731450000000  0.4021590000000  0.4764010000000 1.0
C      1  0.5497200000000  0.4762400000000  0.4814360000000 1.0
C      1  0.4836870000000  0.5092930000000  0.5206370000000 1.0
C      1  0.5042890000000  0.5742590000000  0.5362910000000 1.0
C      1  0.5026140000000  0.5038850000000  0.6016510000000 1.0
C      1  0.5946430000000  0.5011950000000  0.4823220000000 1.0
C      1  0.5922380000000  0.4822820000000  0.5269030000000 1.0
C      1  0.5248240000000  0.4413960000000  0.3958370000000 1.0
C      1  0.4645420000000  0.4778460000000  0.5820870000000 1.0
C      1  0.5085480000000  0.4660860000000  0.5518980000000 1.0
C      1  0.4992930000000  0.4496280000000  0.3925720000000 1.0
C      1  0.4769690000000  0.5886300000000  0.4625080000000 1.0
C      1  0.4927500000000  0.5921270000000  0.5094570000000 1.0
C      1  0.4035370000000  0.4956000000000  0.4757100000000 1.0
C      1  0.5595490000000  0.4475160000000  0.5728860000000 1.0
C      1  0.5466060000000  0.4301290000000  0.5552780000000 1.0
C      1  0.4376930000000  0.5088370000000  0.4907090000000 1.0
C      1  0.4615500000000  0.4317490000000  0.5607060000000 1.0
C      1  0.5050330000000  0.4284820000000  0.5072090000000 1.0
C      1  0.4924910000000  0.4779100000000  0.6002420000000 1.0
C      1  0.4581280000000  0.5225550000000  0.4545570000000 1.0
C      1  0.4837580000000  0.5922580000000  0.5654050000000 1.0
C      1  0.5981100000000  0.5040660000000  0.5094340000000 1.0
C      1  0.5010710000000  0.4147850000000  0.5360600000000 1.0
C      1  0.4326540000000  0.4386690000000  0.4362640000000 1.0
C      1  0.5414490000000  0.4658290000000  0.5897890000000 1.0
C      1  0.4215790000000  0.5087810000000  0.5234070000000 1.0
C      1  0.5180050000000  0.6136860000000  0.4721790000000 1.0
C      1  0.5607040000000  0.5180060000000  0.5111320000000 1.0
C      1  0.5587280000000  0.4622720000000  0.4368370000000 1.0
C      1  0.5754900000000  0.4615970000000  0.5155120000000 1.0
C      1  0.5465840000000  0.4737670000000  0.5112200000000 1.0
C      1  0.4500750000000  0.5294870000000  0.4291700000000 1.0
C      1  0.4274290000000  0.4292020000000  0.5099260000000 1.0
C      1  0.4969900000000  0.4595890000000  0.5056780000000 1.0
C      1  0.5312800000000  0.4150710000000  0.4717560000000 1.0
C      1  0.5589790000000  0.4929250000000  0.4413480000000 1.0
C      1  0.4629000000000  0.5272660000000  0.5937090000000 1.0
C      1  0.5166130000000  0.4754010000000  0.5242970000000 1.0
C      1  0.5368990000000  0.4242130000000  0.5021450000000 1.0
C      1  0.5037410000000  0.4321450000000  0.5863250000000 1.0
C      1  0.4680870000000  0.5753260000000  0.5194800000000 1.0
C      1  0.5203530000000  0.6280480000000  0.5437970000000 1.0
C      1  0.4813150000000  0.4200430000000  0.4564010000000 1.0
C      1  0.5219680000000  0.3891110000000  0.5366390000000 1.0
C      1  0.4584790000000  0.4997320000000  0.5114760000000 1.0
C      1  0.4996780000000  0.4693130000000  0.4296750000000 1.0
C      1  0.5698140000000  0.4447570000000  0.4616850000000 1.0
C      1  0.4194030000000  0.5336890000000  0.4872420000000 1.0
C      1  0.4973090000000  0.5466460000000  0.5555810000000 1.0
C      1  0.5131840000000  0.4538620000000  0.4506030000000 1.0
C      1  0.4154820000000  0.5479870000000  0.4632060000000 1.0
C      1  0.5212730000000  0.5407800000000  0.5051290000000 1.0
C      1  0.5308780000000  0.5344640000000  0.4069710000000 1.0
C      1  0.5100330000000  0.6067920000000  0.5339270000000 1.0
C      1  0.5394020000000  0.5464580000000  0.5607380000000 1.0
C      1  0.4670500000000  0.5766420000000  0.5503130000000 1.0
C      1  0.4638530000000  0.5539250000000  0.4187230000000 1.0
C      1  0.5080460000000  0.5506700000000  0.6015110000000 1.0
C      1  0.4839940000000  0.4536050000000  0.5696900000000 1.0
C      1  0.3989420000000  0.5325030000000  0.5314720000000 1.0
C      1  0.5312920000000  0.4670700000000  0.4654680000000 1.0
C      1  0.4771480000000  0.4119700000000  0.5024960000000 1.0
C      1  0.4894110000000  0.5296930000000  0.6038180000000 1.0
C      1  0.5850520000000  0.4589730000000  0.5681830000000 1.0
C      1  0.5154440000000  0.4333740000000  0.5559600000000 1.0
C      1  0.5119930000000  0.4576290000000  0.5996190000000 1.0
C      1  0.5108420000000  0.5487790000000  0.3969700000000 1.0
C      1  0.5901080000000  0.5488530000000  0.5437780000000 1.0
C      1  0.5897350000000  0.4992830000000  0.4503630000000 1.0
C      1  0.5227310000000  0.5637780000000  0.5812550000000 1.0
C      1  0.4587530000000  0.5762750000000  0.4365070000000 1.0
C      1  0.5493520000000  0.4970330000000  0.5848650000000 1.0
C      1  0.4513580000000  0.4756030000000  0.5252300000000 1.0
C      1  0.4841970000000  0.5101030000000  0.5483390000000 1.0
C      1  0.5046750000000  0.5225760000000  0.4456890000000 1.0
C      1  0.4325970000000  0.5689080000000  0.4553310000000 1.0
C      1  0.5382980000000  0.5096340000000  0.4626830000000 1.0
END
