TITL C-2778434-4341-984 0.00104147898344537 125000 -338.5882814493 0 0 60 (C1) n - 1
REM
REM in /home/nfs/bkarasulu/CARBON/AIRSS/Generating-Clusters/REBO/Only-C1/SD-CG/HFTN-CG
REM
REM
REM
REM
REM
REM ./C.cell (11c1c37f851c82e70ff6c80c92926a4b)
REM
REM compiler GCC version 9.2.1 20190827 (Red Hat 9.2.1-1)
REM options -cpp -mtune=generic -march=x86-64 -g -O0 -fpre-include=/usr/include/finclude/math-vector-fortran.h
REM seed -221002489 1212946823 196966711 -1240364689 -976315493 -1878448361 689054489 611316823 1800125838 484555934 -408124503 72509702 -1585258835 -376179649 -1300408129 802087440 -1284851804 986308016 -546470158 -271975534 352213909 -498887869 -862130059 1116942148 -1478590914 1022583486 -452262127 -1697456756 148767685 719939194 -1279745826 -760491976 41981446
REM
CELL 1.54180   50.00000   50.00000   50.00000   90.00000   90.00000   90.00000
LATT -1
SFAC C  
C      1  0.5177340000000  0.5145370000000  0.4358420000000 1.0
C      1  0.5396300000000  0.4971000000000  0.4424420000000 1.0
C      1  0.5645020000000  0.5084870000000  0.4493800000000 1.0
C      1  0.4411200000000  0.5226520000000  0.4765110000000 1.0
C      1  0.4694260000000  0.4987220000000  0.5196670000000 1.0
C      1  0.4573890000000  0.5289290000000  0.4477980000000 1.0
C      1  0.4634530000000  0.5465890000000  0.5279450000000 1.0
C      1  0.4960790000000  0.4959890000000  0.5604200000000 1.0
C      1  0.5074030000000  0.4323740000000  0.4334410000000 1.0
C      1  0.4688950000000  0.4761480000000  0.5562940000000 1.0
C      1  0.4804710000000  0.4335690000000  0.5266380000000 1.0
C      1  0.5651450000000  0.5216480000000  0.4741010000000 1.0
C      1  0.4493600000000  0.4734540000000  0.5299750000000 1.0
C      1  0.4570080000000  0.4498690000000  0.4849550000000 1.0
C      1  0.5230150000000  0.4992020000000  0.5570130000000 1.0
C      1  0.5442070000000  0.5515030000000  0.5361010000000 1.0
C      1  0.4945240000000  0.5005170000000  0.5144100000000 1.0
C      1  0.5390600000000  0.4474530000000  0.5398520000000 1.0
C      1  0.4909920000000  0.5539650000000  0.5420770000000 1.0
C      1  0.5351380000000  0.4819940000000  0.4902120000000 1.0
C      1  0.4930690000000  0.5009480000000  0.4401270000000 1.0
C      1  0.5365340000000  0.4335100000000  0.5087170000000 1.0
C      1  0.5415910000000  0.5111410000000  0.4955580000000 1.0
C      1  0.4873420000000  0.4998440000000  0.4701330000000 1.0
C      1  0.5510520000000  0.5477070000000  0.4826450000000 1.0
C      1  0.5295070000000  0.4743090000000  0.4607330000000 1.0
C      1  0.4220190000000  0.5116920000000  0.4994480000000 1.0
C      1  0.5011550000000  0.4622710000000  0.4456660000000 1.0
C      1  0.5157490000000  0.5493590000000  0.5223790000000 1.0
C      1  0.5591280000000  0.5348030000000  0.5128470000000 1.0
C      1  0.5536250000000  0.5129660000000  0.5378370000000 1.0
C      1  0.5460600000000  0.4808090000000  0.5411210000000 1.0
C      1  0.5152630000000  0.4285030000000  0.4871190000000 1.0
C      1  0.5106270000000  0.3982670000000  0.4837450000000 1.0
C      1  0.5034420000000  0.5594740000000  0.4941430000000 1.0
C      1  0.5150220000000  0.5425430000000  0.4476410000000 1.0
C      1  0.4510200000000  0.5242520000000  0.5441780000000 1.0
C      1  0.4499880000000  0.5454330000000  0.4964400000000 1.0
C      1  0.5485080000000  0.4644430000000  0.5116480000000 1.0
C      1  0.4957810000000  0.5293870000000  0.4800090000000 1.0
C      1  0.4836290000000  0.5383580000000  0.4506410000000 1.0
C      1  0.5229410000000  0.4412320000000  0.4607720000000 1.0
C      1  0.4672840000000  0.5093700000000  0.5624930000000 1.0
C      1  0.4857480000000  0.4503440000000  0.5546700000000 1.0
C      1  0.4546620000000  0.4480680000000  0.5148040000000 1.0
C      1  0.5141640000000  0.5547860000000  0.5619540000000 1.0
C      1  0.5353820000000  0.5765860000000  0.5575560000000 1.0
C      1  0.4361130000000  0.5036480000000  0.5253860000000 1.0
C      1  0.4505990000000  0.4659470000000  0.4638810000000 1.0
C      1  0.5087110000000  0.4520410000000  0.5305170000000 1.0
C      1  0.5096150000000  0.4733490000000  0.5099010000000 1.0
C      1  0.4506770000000  0.5759900000000  0.4837330000000 1.0
C      1  0.4752760000000  0.5669460000000  0.5029890000000 1.0
C      1  0.5339200000000  0.5290470000000  0.5601090000000 1.0
C      1  0.4729760000000  0.4753690000000  0.4420710000000 1.0
C      1  0.5260010000000  0.5542500000000  0.4717520000000 1.0
C      1  0.4503580000000  0.4977170000000  0.4550800000000 1.0
C      1  0.5140690000000  0.5228000000000  0.5052660000000 1.0
C      1  0.4880090000000  0.4751190000000  0.4842620000000 1.0
C      1  0.4888290000000  0.4426720000000  0.4949560000000 1.0
END
