TITL C-2778425-5191-412 -0.00192295868028125 125000 -736.302572466207 0 0 128 (C1) n - 1
REM
REM in /home/nfs/bkarasulu/CARBON/AIRSS/Generating-Clusters/REBO/Only-C1/SD-CG/HFTN-CG
REM
REM
REM
REM
REM
REM ./C.cell (11c1c37f851c82e70ff6c80c92926a4b)
REM
REM compiler GCC version 9.2.1 20190827 (Red Hat 9.2.1-1)
REM options -cpp -mtune=generic -march=x86-64 -g -O0 -fpre-include=/usr/include/finclude/math-vector-fortran.h
REM seed -445589907 -1019090408 -35390012 -1883946994 -1240343770 -1459225195 -1073514521 -992420244 -2027025160 -788907559 -316237202 304800423 1217489200 -280657866 1569746324 -1738644194 -1821882762 -530522481 2085494336 -1580789641 -1721698489 1972780392 1487622733 152708043 15942140 1933418637 -1322053864 -1343590998 -1117794886 -1882739965 1522292204 514745513 -1486301067
REM
CELL 1.54180   50.00000   50.00000   50.00000   90.00000   90.00000   90.00000
LATT -1
SFAC C  
C      1  0.5696630000000  0.5029960000000  0.5644990000000 1.0
C      1  0.4614930000000  0.4797010000000  0.4404970000000 1.0
C      1  0.5233190000000  0.5786150000000  0.5586530000000 1.0
C      1  0.4753860000000  0.5262160000000  0.5319610000000 1.0
C      1  0.4567420000000  0.4144910000000  0.5052610000000 1.0
C      1  0.5673950000000  0.5605740000000  0.4946400000000 1.0
C      1  0.5352020000000  0.4694640000000  0.5730340000000 1.0
C      1  0.5700950000000  0.5659160000000  0.5235510000000 1.0
C      1  0.4986170000000  0.4808850000000  0.5841810000000 1.0
C      1  0.4099320000000  0.4543140000000  0.5153250000000 1.0
C      1  0.5503780000000  0.5795650000000  0.5378460000000 1.0
C      1  0.4700710000000  0.4530490000000  0.5825750000000 1.0
C      1  0.5051490000000  0.4924830000000  0.4789440000000 1.0
C      1  0.5800770000000  0.4866900000000  0.4651710000000 1.0
C      1  0.5148510000000  0.4525910000000  0.4666780000000 1.0
C      1  0.4395740000000  0.4897550000000  0.4846430000000 1.0
C      1  0.4959670000000  0.5530360000000  0.4627200000000 1.0
C      1  0.4318240000000  0.4613270000000  0.4392870000000 1.0
C      1  0.4934040000000  0.5197130000000  0.5057440000000 1.0
C      1  0.5387490000000  0.4888450000000  0.4861600000000 1.0
C      1  0.5802420000000  0.5161640000000  0.4661440000000 1.0
C      1  0.4409270000000  0.5468100000000  0.5610430000000 1.0
C      1  0.5210420000000  0.5866650000000  0.5253220000000 1.0
C      1  0.4592310000000  0.5532710000000  0.5263010000000 1.0
C      1  0.4336590000000  0.5031600000000  0.5122880000000 1.0
C      1  0.5395570000000  0.5104260000000  0.4596910000000 1.0
C      1  0.5275040000000  0.4798860000000  0.4507700000000 1.0
C      1  0.4889800000000  0.4221410000000  0.4671060000000 1.0
C      1  0.5485980000000  0.4406570000000  0.5179670000000 1.0
C      1  0.4559910000000  0.4429250000000  0.4262240000000 1.0
C      1  0.4821350000000  0.4439000000000  0.4455290000000 1.0
C      1  0.4929010000000  0.4319600000000  0.4973030000000 1.0
C      1  0.4330590000000  0.4565550000000  0.5401470000000 1.0
C      1  0.3949290000000  0.5104890000000  0.5063810000000 1.0
C      1  0.5412820000000  0.4902560000000  0.5182300000000 1.0
C      1  0.5530700000000  0.4946920000000  0.4240390000000 1.0
C      1  0.4476820000000  0.5611700000000  0.4650450000000 1.0
C      1  0.5316070000000  0.4204140000000  0.5393740000000 1.0
C      1  0.4706240000000  0.4333840000000  0.5301160000000 1.0
C      1  0.4516190000000  0.5313430000000  0.4530750000000 1.0
C      1  0.5496110000000  0.4352380000000  0.4758560000000 1.0
C      1  0.5850940000000  0.5448100000000  0.5370830000000 1.0
C      1  0.5859410000000  0.4762680000000  0.4914020000000 1.0
C      1  0.4803780000000  0.4889410000000  0.3997160000000 1.0
C      1  0.5852760000000  0.5215900000000  0.5153290000000 1.0
C      1  0.4363180000000  0.5117010000000  0.4383570000000 1.0
C      1  0.4813020000000  0.5272990000000  0.4484610000000 1.0
C      1  0.5202850000000  0.5754690000000  0.4539850000000 1.0
C      1  0.5782180000000  0.5348550000000  0.4874490000000 1.0
C      1  0.4009990000000  0.4597990000000  0.4832820000000 1.0
C      1  0.4233010000000  0.4958060000000  0.4573540000000 1.0
C      1  0.4326360000000  0.4302220000000  0.5189290000000 1.0
C      1  0.4638410000000  0.4631350000000  0.4672580000000 1.0
C      1  0.4829950000000  0.5504070000000  0.4249970000000 1.0
C      1  0.4805460000000  0.4599360000000  0.5126520000000 1.0
C      1  0.4305650000000  0.5204300000000  0.5421720000000 1.0
C      1  0.4673270000000  0.5472170000000  0.5715330000000 1.0
C      1  0.4337350000000  0.4888300000000  0.5416530000000 1.0
C      1  0.5538600000000  0.4533180000000  0.5496000000000 1.0
C      1  0.4059720000000  0.4715810000000  0.4540350000000 1.0
C      1  0.5265450000000  0.4987530000000  0.4135870000000 1.0
C      1  0.4424300000000  0.5335790000000  0.4846580000000 1.0
C      1  0.4689540000000  0.5734300000000  0.4414510000000 1.0
C      1  0.4975350000000  0.5921030000000  0.4822060000000 1.0
C      1  0.5095990000000  0.4933670000000  0.5129080000000 1.0
C      1  0.5819950000000  0.5340610000000  0.5628990000000 1.0
C      1  0.5933150000000  0.4929870000000  0.5180810000000 1.0
C      1  0.5002910000000  0.4365060000000  0.5804070000000 1.0
C      1  0.4997440000000  0.4605200000000  0.5569520000000 1.0
C      1  0.4490790000000  0.5056850000000  0.4129700000000 1.0
C      1  0.5264050000000  0.5390540000000  0.4690710000000 1.0
C      1  0.5298070000000  0.4365150000000  0.5676200000000 1.0
C      1  0.5221080000000  0.4176960000000  0.4740640000000 1.0
C      1  0.4731550000000  0.5705110000000  0.4810200000000 1.0
C      1  0.5658310000000  0.4746260000000  0.4419450000000 1.0
C      1  0.4705420000000  0.5001290000000  0.5519710000000 1.0
C      1  0.4910250000000  0.5584880000000  0.5147100000000 1.0
C      1  0.5326800000000  0.5355090000000  0.5388010000000 1.0
C      1  0.5129990000000  0.5447430000000  0.4976260000000 1.0
C      1  0.4675370000000  0.5826860000000  0.5117730000000 1.0
C      1  0.5526330000000  0.4600590000000  0.4767060000000 1.0
C      1  0.4540100000000  0.4718660000000  0.4081120000000 1.0
C      1  0.5777950000000  0.4771180000000  0.5439860000000 1.0
C      1  0.4775010000000  0.4779520000000  0.4885110000000 1.0
C      1  0.4193480000000  0.5330490000000  0.5060460000000 1.0
C      1  0.5252800000000  0.5263330000000  0.5930410000000 1.0
C      1  0.4899720000000  0.4799990000000  0.5347220000000 1.0
C      1  0.4876340000000  0.4069440000000  0.5181330000000 1.0
C      1  0.5088370000000  0.5434140000000  0.5698490000000 1.0
C      1  0.5524060000000  0.5284920000000  0.5211040000000 1.0
C      1  0.5119880000000  0.5280810000000  0.4094130000000 1.0
C      1  0.4336680000000  0.4566710000000  0.4786750000000 1.0
C      1  0.4411500000000  0.4326330000000  0.4555520000000 1.0
C      1  0.4764740000000  0.5209440000000  0.5761760000000 1.0
C      1  0.4941780000000  0.4571070000000  0.6066860000000 1.0
C      1  0.5266590000000  0.4583890000000  0.6009580000000 1.0
C      1  0.5039720000000  0.5214850000000  0.5472110000000 1.0
C      1  0.5416560000000  0.5510220000000  0.5665110000000 1.0
C      1  0.4901190000000  0.5910710000000  0.4513620000000 1.0
C      1  0.5697740000000  0.5702890000000  0.4559740000000 1.0
C      1  0.5202840000000  0.5783200000000  0.4963790000000 1.0
C      1  0.4542230000000  0.4720810000000  0.5620270000000 1.0
C      1  0.5207850000000  0.4487700000000  0.4999520000000 1.0
C      1  0.5641080000000  0.4674410000000  0.5140370000000 1.0
C      1  0.5402430000000  0.4532800000000  0.4355460000000 1.0
C      1  0.4784800000000  0.5222100000000  0.4064860000000 1.0
C      1  0.4274240000000  0.5518980000000  0.5302440000000 1.0
C      1  0.5201860000000  0.4279190000000  0.4429400000000 1.0
C      1  0.5128990000000  0.4474130000000  0.5325260000000 1.0
C      1  0.5494380000000  0.5485780000000  0.4493820000000 1.0
C      1  0.5174080000000  0.4958840000000  0.5609310000000 1.0
C      1  0.4909430000000  0.5700520000000  0.5662150000000 1.0
C      1  0.4674670000000  0.4347300000000  0.5576570000000 1.0
C      1  0.4590060000000  0.4159480000000  0.4748820000000 1.0
C      1  0.5011100000000  0.4836540000000  0.4214830000000 1.0
C      1  0.5111470000000  0.3980340000000  0.5310480000000 1.0
C      1  0.4901160000000  0.5836780000000  0.5373770000000 1.0
C      1  0.5065660000000  0.4550750000000  0.4278400000000 1.0
C      1  0.5569180000000  0.5274610000000  0.5846670000000 1.0
C      1  0.4981330000000  0.5115580000000  0.5920510000000 1.0
C      1  0.5418570000000  0.5429130000000  0.4166010000000 1.0
C      1  0.3944820000000  0.4832510000000  0.5062130000000 1.0
C      1  0.4888250000000  0.4980610000000  0.4495070000000 1.0
C      1  0.5449480000000  0.5767440000000  0.4773410000000 1.0
C      1  0.5605370000000  0.5222220000000  0.4343210000000 1.0
C      1  0.4663750000000  0.5100960000000  0.4904640000000 1.0
C      1  0.5441740000000  0.4980330000000  0.5465780000000 1.0
C      1  0.5145560000000  0.5574800000000  0.4272860000000 1.0
END
