TITL C-2778425-5191-97 0.00108386935430695 125000 -648.437377178607 0 0 112 (C1) n - 1
REM
REM in /home/nfs/bkarasulu/CARBON/AIRSS/Generating-Clusters/REBO/Only-C1/SD-CG/HFTN-CG
REM
REM
REM
REM
REM
REM ./C.cell (11c1c37f851c82e70ff6c80c92926a4b)
REM
REM compiler GCC version 9.2.1 20190827 (Red Hat 9.2.1-1)
REM options -cpp -mtune=generic -march=x86-64 -g -O0 -fpre-include=/usr/include/finclude/math-vector-fortran.h
REM seed 1180236978 396782642 -1735810109 -171989323 914423584 677317034 1384896369 68783626 -1796831382 -1099364351 -167469426 1914755617 917456932 -1285205830 -233262766 -844225776 1710359697 -787185162 -1476411989 -1765304307 1775805978 -243868524 297667980 160446693 -1805667209 -143040752 763230402 1120397131 -804123080 -967511414 -1718460329 258236813 -436126334
REM
CELL 1.54180   50.00000   50.00000   50.00000   90.00000   90.00000   90.00000
LATT -1
SFAC C  
C      1  0.4826820000000  0.5481930000000  0.5653040000000 1.0
C      1  0.5013240000000  0.5651130000000  0.5082890000000 1.0
C      1  0.5538440000000  0.4907120000000  0.4443740000000 1.0
C      1  0.5080570000000  0.5509810000000  0.5798300000000 1.0
C      1  0.5515160000000  0.5177530000000  0.4379060000000 1.0
C      1  0.5402920000000  0.5484000000000  0.5104050000000 1.0
C      1  0.5596520000000  0.5011080000000  0.4931700000000 1.0
C      1  0.4210780000000  0.4738100000000  0.5188850000000 1.0
C      1  0.5200550000000  0.4402950000000  0.4458310000000 1.0
C      1  0.5537400000000  0.4885520000000  0.5418500000000 1.0
C      1  0.5116120000000  0.5400040000000  0.4389270000000 1.0
C      1  0.5053380000000  0.4779620000000  0.5838810000000 1.0
C      1  0.4393370000000  0.4675260000000  0.4508520000000 1.0
C      1  0.4863240000000  0.4350210000000  0.4517060000000 1.0
C      1  0.5016340000000  0.4677550000000  0.4677900000000 1.0
C      1  0.4789630000000  0.5476340000000  0.4802150000000 1.0
C      1  0.4837020000000  0.4446950000000  0.4845990000000 1.0
C      1  0.4558450000000  0.5389420000000  0.5713340000000 1.0
C      1  0.4395830000000  0.4938520000000  0.4195140000000 1.0
C      1  0.4762800000000  0.4960570000000  0.5840260000000 1.0
C      1  0.4047130000000  0.5227840000000  0.5289810000000 1.0
C      1  0.5867970000000  0.4594610000000  0.5138500000000 1.0
C      1  0.5147920000000  0.4172430000000  0.4719650000000 1.0
C      1  0.4371140000000  0.4340800000000  0.4935400000000 1.0
C      1  0.4809740000000  0.5084420000000  0.4935440000000 1.0
C      1  0.5399010000000  0.4455300000000  0.5145540000000 1.0
C      1  0.4868360000000  0.5472030000000  0.5333480000000 1.0
C      1  0.5838130000000  0.5207950000000  0.4889800000000 1.0
C      1  0.4127350000000  0.5450040000000  0.5440060000000 1.0
C      1  0.4966750000000  0.4720200000000  0.5321540000000 1.0
C      1  0.5572710000000  0.5725740000000  0.5198420000000 1.0
C      1  0.4506170000000  0.4325750000000  0.5206310000000 1.0
C      1  0.5458890000000  0.4243590000000  0.4616980000000 1.0
C      1  0.5265830000000  0.5212690000000  0.4239940000000 1.0
C      1  0.4579070000000  0.5005880000000  0.5390050000000 1.0
C      1  0.4966020000000  0.4099880000000  0.5157420000000 1.0
C      1  0.4742750000000  0.4537250000000  0.5498950000000 1.0
C      1  0.4611910000000  0.5708760000000  0.4531320000000 1.0
C      1  0.5495950000000  0.4861140000000  0.5749370000000 1.0
C      1  0.4207150000000  0.4754180000000  0.4703120000000 1.0
C      1  0.5152170000000  0.5848000000000  0.4719280000000 1.0
C      1  0.4650240000000  0.5353280000000  0.4231050000000 1.0
C      1  0.5686640000000  0.4764120000000  0.4630560000000 1.0
C      1  0.5289550000000  0.5650140000000  0.5656580000000 1.0
C      1  0.4364170000000  0.5262150000000  0.4624360000000 1.0
C      1  0.5293540000000  0.5500350000000  0.4583570000000 1.0
C      1  0.4675430000000  0.5131180000000  0.4641620000000 1.0
C      1  0.4819900000000  0.4075740000000  0.4698870000000 1.0
C      1  0.4327860000000  0.4863810000000  0.5547830000000 1.0
C      1  0.4326970000000  0.5519030000000  0.5613800000000 1.0
C      1  0.5409410000000  0.5806200000000  0.4812060000000 1.0
C      1  0.4875720000000  0.5947660000000  0.4983620000000 1.0
C      1  0.4524860000000  0.5140230000000  0.5117870000000 1.0
C      1  0.4199510000000  0.5038060000000  0.4772550000000 1.0
C      1  0.4462590000000  0.5632440000000  0.4970270000000 1.0
C      1  0.5036610000000  0.5093210000000  0.5705570000000 1.0
C      1  0.5753400000000  0.5453550000000  0.5293340000000 1.0
C      1  0.4203770000000  0.4575620000000  0.4927930000000 1.0
C      1  0.5844450000000  0.5129890000000  0.5346580000000 1.0
C      1  0.5124890000000  0.4607630000000  0.5592920000000 1.0
C      1  0.5356050000000  0.5154100000000  0.5022320000000 1.0
C      1  0.5265760000000  0.4725630000000  0.4370780000000 1.0
C      1  0.4236000000000  0.5059090000000  0.5074490000000 1.0
C      1  0.5617700000000  0.5466270000000  0.4498640000000 1.0
C      1  0.5159200000000  0.4949590000000  0.4609250000000 1.0
C      1  0.5204460000000  0.5320190000000  0.5984270000000 1.0
C      1  0.5612140000000  0.5188790000000  0.5554490000000 1.0
C      1  0.4864800000000  0.4988980000000  0.5257690000000 1.0
C      1  0.5304820000000  0.4710860000000  0.5324130000000 1.0
C      1  0.4881070000000  0.4622050000000  0.4365690000000 1.0
C      1  0.4535190000000  0.5086770000000  0.5701590000000 1.0
C      1  0.5333420000000  0.5061070000000  0.5864100000000 1.0
C      1  0.4901860000000  0.4988220000000  0.4033620000000 1.0
C      1  0.4943730000000  0.3918460000000  0.4949790000000 1.0
C      1  0.5694600000000  0.4206070000000  0.4849640000000 1.0
C      1  0.4808090000000  0.5846820000000  0.5288960000000 1.0
C      1  0.4444880000000  0.4590140000000  0.5382950000000 1.0
C      1  0.5296650000000  0.5256110000000  0.5324180000000 1.0
C      1  0.4809900000000  0.4334070000000  0.5105900000000 1.0
C      1  0.4844690000000  0.4238070000000  0.5512570000000 1.0
C      1  0.5101870000000  0.5150240000000  0.4828740000000 1.0
C      1  0.4639460000000  0.4094460000000  0.5387170000000 1.0
C      1  0.5823480000000  0.4842540000000  0.5258430000000 1.0
C      1  0.5151890000000  0.4965100000000  0.4157600000000 1.0
C      1  0.5800430000000  0.5587820000000  0.4325490000000 1.0
C      1  0.4789340000000  0.5249740000000  0.4002580000000 1.0
C      1  0.4900970000000  0.5738040000000  0.4644780000000 1.0
C      1  0.4758840000000  0.4632210000000  0.5790230000000 1.0
C      1  0.5690470000000  0.4388250000000  0.5059620000000 1.0
C      1  0.5023800000000  0.5200830000000  0.5424100000000 1.0
C      1  0.4608830000000  0.4894900000000  0.4465190000000 1.0
C      1  0.5182320000000  0.5478990000000  0.4870210000000 1.0
C      1  0.5124810000000  0.4279110000000  0.5571040000000 1.0
C      1  0.4560810000000  0.5887680000000  0.5064480000000 1.0
C      1  0.4415770000000  0.5569400000000  0.4696040000000 1.0
C      1  0.5580300000000  0.5983160000000  0.5205150000000 1.0
C      1  0.4468560000000  0.4403260000000  0.4479940000000 1.0
C      1  0.5406040000000  0.4355390000000  0.5471450000000 1.0
C      1  0.5616620000000  0.5609590000000  0.4790340000000 1.0
C      1  0.5030890000000  0.4585300000000  0.4082540000000 1.0
C      1  0.4833250000000  0.5379300000000  0.4478670000000 1.0
C      1  0.4051320000000  0.4944880000000  0.5407010000000 1.0
C      1  0.4409870000000  0.5221910000000  0.4309320000000 1.0
C      1  0.5520000000000  0.4561490000000  0.5650440000000 1.0
C      1  0.4706150000000  0.4803850000000  0.4159190000000 1.0
C      1  0.4659860000000  0.5419040000000  0.5091690000000 1.0
C      1  0.5541370000000  0.4551830000000  0.4728330000000 1.0
C      1  0.5780410000000  0.5470770000000  0.4972430000000 1.0
C      1  0.4522700000000  0.4242140000000  0.4710210000000 1.0
C      1  0.5479510000000  0.5476550000000  0.5495550000000 1.0
C      1  0.5891640000000  0.4908270000000  0.4799600000000 1.0
C      1  0.5233230000000  0.4476160000000  0.4849180000000 1.0
END
