TITL C-2778427-5640-163 0.00385273481934297 125000 -1050.03346598641 0 0 180 (C1) n - 1
REM
REM in /home/nfs/bkarasulu/CARBON/AIRSS/Generating-Clusters/REBO/Only-C1/SD-CG/HFTN-CG
REM
REM
REM
REM
REM
REM ./C.cell (11c1c37f851c82e70ff6c80c92926a4b)
REM
REM compiler GCC version 9.2.1 20190827 (Red Hat 9.2.1-1)
REM options -cpp -mtune=generic -march=x86-64 -g -O0 -fpre-include=/usr/include/finclude/math-vector-fortran.h
REM seed 1636929924 1145079866 2036776236 663733925 -1318310718 197686549 -614151641 1804009732 1428967246 -911168726 1224338295 1241799472 -1781857271 1804632634 -579831228 -1985389997 1839122032 -1077514583 -20047200 -1487166377 -1828638300 370466675 -1819254857 1110225850 1591783144 -558904309 1610513353 1452287770 11626568 -716965831 1209305240 22857799 1644474912
REM
CELL 1.54180   50.00000   50.00000   50.00000   90.00000   90.00000   90.00000
LATT -1
SFAC C  
C      1  0.4171730000000  0.5235560000000  0.5443330000000 1.0
C      1  0.4992190000000  0.5446210000000  0.5154240000000 1.0
C      1  0.4928010000000  0.5458840000000  0.4310530000000 1.0
C      1  0.5441110000000  0.5569850000000  0.5667480000000 1.0
C      1  0.4460760000000  0.5451700000000  0.4605410000000 1.0
C      1  0.5959710000000  0.5496590000000  0.4998990000000 1.0
C      1  0.4716280000000  0.4232830000000  0.5363310000000 1.0
C      1  0.5309410000000  0.4460440000000  0.4892050000000 1.0
C      1  0.5973060000000  0.5285800000000  0.4775840000000 1.0
C      1  0.4856700000000  0.5664400000000  0.5921950000000 1.0
C      1  0.4531960000000  0.5509680000000  0.4299090000000 1.0
C      1  0.5980950000000  0.4787440000000  0.4810150000000 1.0
C      1  0.4634570000000  0.4641250000000  0.6011930000000 1.0
C      1  0.4862140000000  0.4149600000000  0.4504080000000 1.0
C      1  0.5012620000000  0.4238580000000  0.5199350000000 1.0
C      1  0.4883480000000  0.5150760000000  0.3886620000000 1.0
C      1  0.5112400000000  0.4413230000000  0.4133330000000 1.0
C      1  0.5173290000000  0.5154190000000  0.3848300000000 1.0
C      1  0.4577470000000  0.5670350000000  0.5745880000000 1.0
C      1  0.5762040000000  0.5686330000000  0.4922460000000 1.0
C      1  0.5014330000000  0.5501770000000  0.5579970000000 1.0
C      1  0.4627780000000  0.5864230000000  0.4454260000000 1.0
C      1  0.4745960000000  0.5718190000000  0.4183760000000 1.0
C      1  0.5406920000000  0.4687860000000  0.5926700000000 1.0
C      1  0.5077150000000  0.3845350000000  0.4883480000000 1.0
C      1  0.4005170000000  0.5318680000000  0.4552690000000 1.0
C      1  0.5446020000000  0.4849350000000  0.5201400000000 1.0
C      1  0.4306670000000  0.4721220000000  0.5194570000000 1.0
C      1  0.4794020000000  0.5195390000000  0.5046620000000 1.0
C      1  0.4251950000000  0.4615880000000  0.5644220000000 1.0
C      1  0.5753590000000  0.5388100000000  0.4264700000000 1.0
C      1  0.5345370000000  0.4196770000000  0.4693490000000 1.0
C      1  0.4050000000000  0.4626830000000  0.5027470000000 1.0
C      1  0.4229190000000  0.4460330000000  0.5384270000000 1.0
C      1  0.4986680000000  0.3940580000000  0.5364780000000 1.0
C      1  0.4611380000000  0.6029460000000  0.5199420000000 1.0
C      1  0.4406660000000  0.5845260000000  0.4645960000000 1.0
C      1  0.5142390000000  0.5890460000000  0.4401230000000 1.0
C      1  0.4611220000000  0.3943610000000  0.5039020000000 1.0
C      1  0.5620420000000  0.5632530000000  0.4362180000000 1.0
C      1  0.4183740000000  0.5590180000000  0.4666120000000 1.0
C      1  0.4781930000000  0.4697730000000  0.4472770000000 1.0
C      1  0.5498530000000  0.5005810000000  0.4513600000000 1.0
C      1  0.5289030000000  0.4181240000000  0.5725250000000 1.0
C      1  0.5915290000000  0.4586720000000  0.4271580000000 1.0
C      1  0.5451370000000  0.5327500000000  0.4554900000000 1.0
C      1  0.5105260000000  0.5151450000000  0.4646420000000 1.0
C      1  0.4804770000000  0.5838110000000  0.4908280000000 1.0
C      1  0.4766170000000  0.4975600000000  0.4310110000000 1.0
C      1  0.5175260000000  0.5057070000000  0.5240480000000 1.0
C      1  0.4949150000000  0.5912820000000  0.5375220000000 1.0
C      1  0.5702350000000  0.4393290000000  0.5615530000000 1.0
C      1  0.5093460000000  0.4609000000000  0.5430890000000 1.0
C      1  0.5228280000000  0.4851840000000  0.4194300000000 1.0
C      1  0.4425120000000  0.4564120000000  0.5908860000000 1.0
C      1  0.5214030000000  0.3899840000000  0.5141280000000 1.0
C      1  0.5060730000000  0.4682640000000  0.3963110000000 1.0
C      1  0.5781060000000  0.4514140000000  0.5243220000000 1.0
C      1  0.5605350000000  0.4600250000000  0.4132270000000 1.0
C      1  0.5561600000000  0.4156230000000  0.4945960000000 1.0
C      1  0.4780780000000  0.5291950000000  0.5497770000000 1.0
C      1  0.5223840000000  0.5357460000000  0.4315820000000 1.0
C      1  0.5328170000000  0.5896180000000  0.4870610000000 1.0
C      1  0.5317730000000  0.5586610000000  0.4973240000000 1.0
C      1  0.4308470000000  0.5726890000000  0.5186270000000 1.0
C      1  0.4799610000000  0.4504360000000  0.5485230000000 1.0
C      1  0.4716570000000  0.5440710000000  0.4821580000000 1.0
C      1  0.5313710000000  0.5856470000000  0.5527970000000 1.0
C      1  0.4852050000000  0.4312980000000  0.5730460000000 1.0
C      1  0.4904380000000  0.6147580000000  0.5139230000000 1.0
C      1  0.4411140000000  0.4183950000000  0.5363560000000 1.0
C      1  0.4768910000000  0.5287980000000  0.5820130000000 1.0
C      1  0.4381070000000  0.4975360000000  0.5364900000000 1.0
C      1  0.4630460000000  0.4445870000000  0.4185520000000 1.0
C      1  0.4932310000000  0.5381980000000  0.6103110000000 1.0
C      1  0.4632980000000  0.5888940000000  0.5498800000000 1.0
C      1  0.5320390000000  0.4829720000000  0.4744660000000 1.0
C      1  0.5337480000000  0.5315070000000  0.4023380000000 1.0
C      1  0.5053550000000  0.5143870000000  0.5748520000000 1.0
C      1  0.5217390000000  0.4904730000000  0.6026390000000 1.0
C      1  0.5660850000000  0.4703730000000  0.5753680000000 1.0
C      1  0.5604310000000  0.5220510000000  0.4083920000000 1.0
C      1  0.4898480000000  0.4877280000000  0.5016460000000 1.0
C      1  0.4618910000000  0.4535840000000  0.4723040000000 1.0
C      1  0.4592370000000  0.5204480000000  0.4161140000000 1.0
C      1  0.5622770000000  0.5812200000000  0.5127300000000 1.0
C      1  0.4266180000000  0.4801110000000  0.4344710000000 1.0
C      1  0.5264900000000  0.4366480000000  0.5325260000000 1.0
C      1  0.5212210000000  0.5199770000000  0.6102800000000 1.0
C      1  0.4499380000000  0.5933120000000  0.4905340000000 1.0
C      1  0.5068450000000  0.4599920000000  0.4730590000000 1.0
C      1  0.5746800000000  0.4878930000000  0.5043840000000 1.0
C      1  0.5553680000000  0.4932720000000  0.4183880000000 1.0
C      1  0.5555800000000  0.5987780000000  0.5351260000000 1.0
C      1  0.3955950000000  0.4992860000000  0.5360860000000 1.0
C      1  0.5403240000000  0.5830010000000  0.4544220000000 1.0
C      1  0.5500500000000  0.4184880000000  0.5494030000000 1.0
C      1  0.4338530000000  0.4292230000000  0.4575400000000 1.0
C      1  0.4930910000000  0.4776710000000  0.5970260000000 1.0
C      1  0.4819800000000  0.5689270000000  0.5175030000000 1.0
C      1  0.4302860000000  0.5122010000000  0.4808660000000 1.0
C      1  0.5085120000000  0.4044220000000  0.4673700000000 1.0
C      1  0.4908250000000  0.5927460000000  0.4595320000000 1.0
C      1  0.5700490000000  0.4732590000000  0.4495400000000 1.0
C      1  0.4493120000000  0.4861420000000  0.5650820000000 1.0
C      1  0.4614460000000  0.4282490000000  0.5033930000000 1.0
C      1  0.5260970000000  0.5195060000000  0.5516050000000 1.0
C      1  0.5085140000000  0.5780900000000  0.5742480000000 1.0
C      1  0.5146190000000  0.4835030000000  0.5639910000000 1.0
C      1  0.5897080000000  0.4649180000000  0.5513020000000 1.0
C      1  0.5931270000000  0.4877630000000  0.5306000000000 1.0
C      1  0.4796930000000  0.4855850000000  0.5669510000000 1.0
C      1  0.4741140000000  0.4840760000000  0.4763390000000 1.0
C      1  0.5051330000000  0.6055660000000  0.4870270000000 1.0
C      1  0.5238910000000  0.5457480000000  0.5342120000000 1.0
C      1  0.5920870000000  0.5254190000000  0.4450670000000 1.0
C      1  0.4620180000000  0.4231080000000  0.4638950000000 1.0
C      1  0.4899830000000  0.5018800000000  0.5388510000000 1.0
C      1  0.3952530000000  0.5164840000000  0.5116720000000 1.0
C      1  0.4984700000000  0.4463800000000  0.5936390000000 1.0
C      1  0.5962030000000  0.5140870000000  0.5430350000000 1.0
C      1  0.5519640000000  0.5590970000000  0.5319100000000 1.0
C      1  0.5226470000000  0.5829220000000  0.5195310000000 1.0
C      1  0.4820510000000  0.5294890000000  0.4542910000000 1.0
C      1  0.4547260000000  0.4762840000000  0.4156850000000 1.0
C      1  0.5716480000000  0.5185050000000  0.4947410000000 1.0
C      1  0.4456050000000  0.5362430000000  0.5847610000000 1.0
C      1  0.4910000000000  0.3630480000000  0.4864050000000 1.0
C      1  0.5974270000000  0.5396020000000  0.5268510000000 1.0
C      1  0.5239480000000  0.5071340000000  0.4940810000000 1.0
C      1  0.3932110000000  0.5344930000000  0.4853290000000 1.0
C      1  0.5723520000000  0.5020560000000  0.5644400000000 1.0
C      1  0.5227840000000  0.5421330000000  0.5842210000000 1.0
C      1  0.5544620000000  0.4458230000000  0.5208630000000 1.0
C      1  0.5499170000000  0.4253100000000  0.4431720000000 1.0
C      1  0.5575320000000  0.4651050000000  0.4861010000000 1.0
C      1  0.4095570000000  0.4894530000000  0.5630280000000 1.0
C      1  0.4222170000000  0.4586690000000  0.4523330000000 1.0
C      1  0.5691020000000  0.5338190000000  0.5698130000000 1.0
C      1  0.6036300000000  0.4997280000000  0.4633270000000 1.0
C      1  0.4312310000000  0.5140030000000  0.5722810000000 1.0
C      1  0.4425540000000  0.5157380000000  0.4429830000000 1.0
C      1  0.4924110000000  0.4361160000000  0.4911000000000 1.0
C      1  0.4746140000000  0.4741400000000  0.5286960000000 1.0
C      1  0.4117760000000  0.5588820000000  0.4984820000000 1.0
C      1  0.5440030000000  0.5302460000000  0.4882970000000 1.0
C      1  0.5601480000000  0.5608160000000  0.4686330000000 1.0
C      1  0.4129690000000  0.5530970000000  0.5484670000000 1.0
C      1  0.4595720000000  0.5085340000000  0.4689540000000 1.0
C      1  0.5455540000000  0.4045890000000  0.5184780000000 1.0
C      1  0.4726570000000  0.3822520000000  0.5230780000000 1.0
C      1  0.5061830000000  0.4568020000000  0.4420250000000 1.0
C      1  0.3912940000000  0.4826330000000  0.4907780000000 1.0
C      1  0.4783060000000  0.4865370000000  0.3931280000000 1.0
C      1  0.4536070000000  0.5261180000000  0.5260890000000 1.0
C      1  0.5445010000000  0.4933130000000  0.5508330000000 1.0
C      1  0.5024210000000  0.4090830000000  0.5645120000000 1.0
C      1  0.5742000000000  0.4370840000000  0.4872370000000 1.0
C      1  0.4127260000000  0.5102780000000  0.4385850000000 1.0
C      1  0.5118900000000  0.5909200000000  0.4139510000000 1.0
C      1  0.4283250000000  0.5686720000000  0.5602830000000 1.0
C      1  0.4848760000000  0.4282320000000  0.4242230000000 1.0
C      1  0.4273270000000  0.4303000000000  0.5080900000000 1.0
C      1  0.5385540000000  0.4642590000000  0.4398080000000 1.0
C      1  0.4615670000000  0.5509870000000  0.6108630000000 1.0
C      1  0.5260360000000  0.4883140000000  0.3797390000000 1.0
C      1  0.5995240000000  0.4501950000000  0.4805680000000 1.0
C      1  0.5739260000000  0.4395120000000  0.4475490000000 1.0
C      1  0.5271810000000  0.4424630000000  0.5900300000000 1.0
C      1  0.4149430000000  0.4417090000000  0.4813790000000 1.0
C      1  0.5058320000000  0.5412240000000  0.4839150000000 1.0
C      1  0.4784080000000  0.5426310000000  0.4006690000000 1.0
C      1  0.4074470000000  0.4984210000000  0.4759810000000 1.0
C      1  0.4564570000000  0.4623490000000  0.5047140000000 1.0
C      1  0.4542540000000  0.5593830000000  0.5248160000000 1.0
C      1  0.5164390000000  0.4683730000000  0.5106500000000 1.0
C      1  0.5062030000000  0.5057210000000  0.4332940000000 1.0
C      1  0.4267980000000  0.5293650000000  0.5059710000000 1.0
C      1  0.5768580000000  0.5489040000000  0.5455710000000 1.0
C      1  0.5402830000000  0.4328060000000  0.4157220000000 1.0
END
