TITL C-2778424-3986-1271 0.00721386016710239 125000 -745.432353998116 0 0 128 (C1) n - 1
REM
REM in /home/nfs/bkarasulu/CARBON/AIRSS/Generating-Clusters/REBO/Only-C1/SD-CG/HFTN-CG
REM
REM
REM
REM
REM
REM ./C.cell (11c1c37f851c82e70ff6c80c92926a4b)
REM
REM compiler GCC version 9.2.1 20190827 (Red Hat 9.2.1-1)
REM options -cpp -mtune=generic -march=x86-64 -g -O0 -fpre-include=/usr/include/finclude/math-vector-fortran.h
REM seed 636837977 1129463901 -1122758841 1904833490 -1219502354 560663600 -1948234358 -183181932 -1738654928 -1183818173 -258134999 1062912987 797290919 -1020599936 -1306386564 -986588787 -725983042 -287303730 1021237938 -278345381 1514134065 -28320108 13316072 1052128016 -305824183 -1000099202 1335721512 -839410855 -2107193996 1164297171 -832720337 -590707406 -1672515061
REM
CELL 1.54180   50.00000   50.00000   50.00000   90.00000   90.00000   90.00000
LATT -1
SFAC C  
C      1  0.5899320000000  0.5137120000000  0.4707550000000 1.0
C      1  0.5473070000000  0.5829170000000  0.4900970000000 1.0
C      1  0.4890300000000  0.5347710000000  0.6064250000000 1.0
C      1  0.4734510000000  0.5328250000000  0.4868140000000 1.0
C      1  0.4814510000000  0.5368090000000  0.4299600000000 1.0
C      1  0.4576470000000  0.4887860000000  0.4272060000000 1.0
C      1  0.4993380000000  0.5348810000000  0.5679820000000 1.0
C      1  0.5626010000000  0.4242040000000  0.4669980000000 1.0
C      1  0.4151720000000  0.5120520000000  0.4447930000000 1.0
C      1  0.5777450000000  0.5596170000000  0.4554740000000 1.0
C      1  0.4915340000000  0.4521490000000  0.4981990000000 1.0
C      1  0.4772500000000  0.4794190000000  0.4944280000000 1.0
C      1  0.5245750000000  0.4035750000000  0.4980110000000 1.0
C      1  0.5217350000000  0.4309820000000  0.5469470000000 1.0
C      1  0.5062250000000  0.5285860000000  0.4841400000000 1.0
C      1  0.4478960000000  0.4199070000000  0.4614240000000 1.0
C      1  0.4098930000000  0.4853570000000  0.4544260000000 1.0
C      1  0.4762050000000  0.4272130000000  0.4456470000000 1.0
C      1  0.4463950000000  0.4776820000000  0.5007470000000 1.0
C      1  0.4680660000000  0.5032580000000  0.4743630000000 1.0
C      1  0.5593410000000  0.5075530000000  0.5355640000000 1.0
C      1  0.4393340000000  0.5127510000000  0.4829580000000 1.0
C      1  0.5605020000000  0.4738950000000  0.4325020000000 1.0
C      1  0.4256490000000  0.4828370000000  0.4765100000000 1.0
C      1  0.4437860000000  0.4670790000000  0.5876650000000 1.0
C      1  0.4476430000000  0.5735940000000  0.4909900000000 1.0
C      1  0.4895430000000  0.4863570000000  0.5863880000000 1.0
C      1  0.5182200000000  0.5225880000000  0.5921970000000 1.0
C      1  0.5768420000000  0.4998190000000  0.4420660000000 1.0
C      1  0.5494300000000  0.4793610000000  0.4734750000000 1.0
C      1  0.4249300000000  0.5617330000000  0.4684500000000 1.0
C      1  0.5133200000000  0.4914830000000  0.4535770000000 1.0
C      1  0.5457490000000  0.4823020000000  0.5785270000000 1.0
C      1  0.5263800000000  0.4578020000000  0.5669080000000 1.0
C      1  0.5572250000000  0.5083140000000  0.4671460000000 1.0
C      1  0.4739850000000  0.4866190000000  0.5482520000000 1.0
C      1  0.4708370000000  0.4056510000000  0.5474280000000 1.0
C      1  0.6070500000000  0.5073410000000  0.5183660000000 1.0
C      1  0.5259930000000  0.4833710000000  0.5054590000000 1.0
C      1  0.4807260000000  0.4347600000000  0.5730130000000 1.0
C      1  0.5667100000000  0.5484420000000  0.4327290000000 1.0
C      1  0.4379060000000  0.4406870000000  0.4404670000000 1.0
C      1  0.4844770000000  0.4577600000000  0.4575040000000 1.0
C      1  0.4086000000000  0.5248700000000  0.5053600000000 1.0
C      1  0.5626680000000  0.4566370000000  0.5273050000000 1.0
C      1  0.4116810000000  0.4731770000000  0.5377360000000 1.0
C      1  0.5796400000000  0.5438020000000  0.4794040000000 1.0
C      1  0.5247810000000  0.4523040000000  0.4980450000000 1.0
C      1  0.5359340000000  0.5612390000000  0.5411210000000 1.0
C      1  0.5079590000000  0.4670460000000  0.4154220000000 1.0
C      1  0.4759710000000  0.4319340000000  0.4818140000000 1.0
C      1  0.5118020000000  0.5061320000000  0.4079700000000 1.0
C      1  0.4293710000000  0.4579670000000  0.5191770000000 1.0
C      1  0.4531480000000  0.5230110000000  0.5124290000000 1.0
C      1  0.5001980000000  0.4579400000000  0.5822050000000 1.0
C      1  0.5272740000000  0.5138470000000  0.4355390000000 1.0
C      1  0.5116790000000  0.5571990000000  0.4997480000000 1.0
C      1  0.5327660000000  0.4092690000000  0.4713870000000 1.0
C      1  0.4945260000000  0.3877080000000  0.5360050000000 1.0
C      1  0.4519200000000  0.4408050000000  0.5853490000000 1.0
C      1  0.5294250000000  0.4327860000000  0.4471540000000 1.0
C      1  0.5674280000000  0.5504120000000  0.5059230000000 1.0
C      1  0.4475410000000  0.4216280000000  0.4942110000000 1.0
C      1  0.5368890000000  0.5924090000000  0.5138550000000 1.0
C      1  0.5547520000000  0.4785420000000  0.5483340000000 1.0
C      1  0.4984640000000  0.5360110000000  0.4518350000000 1.0
C      1  0.4799350000000  0.4877820000000  0.4510660000000 1.0
C      1  0.5033100000000  0.4436250000000  0.4345200000000 1.0
C      1  0.5143920000000  0.5726670000000  0.4512740000000 1.0
C      1  0.5169930000000  0.5884400000000  0.5413620000000 1.0
C      1  0.5433840000000  0.5601370000000  0.4756920000000 1.0
C      1  0.5677180000000  0.5224330000000  0.5959760000000 1.0
C      1  0.5938820000000  0.4716130000000  0.4919860000000 1.0
C      1  0.4091520000000  0.5246490000000  0.5394490000000 1.0
C      1  0.5327600000000  0.4271160000000  0.5182950000000 1.0
C      1  0.5011890000000  0.4107920000000  0.5601530000000 1.0
C      1  0.4417020000000  0.4621810000000  0.4290340000000 1.0
C      1  0.4970200000000  0.5335320000000  0.4035300000000 1.0
C      1  0.4987830000000  0.5635680000000  0.4059070000000 1.0
C      1  0.4515170000000  0.5483390000000  0.5309360000000 1.0
C      1  0.5697970000000  0.4319500000000  0.5325560000000 1.0
C      1  0.4684730000000  0.5718720000000  0.4441350000000 1.0
C      1  0.4580040000000  0.4897650000000  0.5843760000000 1.0
C      1  0.5502420000000  0.5028050000000  0.5058420000000 1.0
C      1  0.5874650000000  0.5199400000000  0.5349500000000 1.0
C      1  0.4388600000000  0.5628630000000  0.4414440000000 1.0
C      1  0.5397070000000  0.5525590000000  0.5147940000000 1.0
C      1  0.5253160000000  0.4686750000000  0.5344420000000 1.0
C      1  0.4996470000000  0.4497940000000  0.5288770000000 1.0
C      1  0.4692930000000  0.5463610000000  0.5920670000000 1.0
C      1  0.4151780000000  0.5308200000000  0.4720100000000 1.0
C      1  0.4990880000000  0.6043230000000  0.5187600000000 1.0
C      1  0.5056080000000  0.6064700000000  0.4902160000000 1.0
C      1  0.4889680000000  0.5754140000000  0.5159690000000 1.0
C      1  0.4978970000000  0.5040640000000  0.6103370000000 1.0
C      1  0.5535940000000  0.4352200000000  0.4933700000000 1.0
C      1  0.4482310000000  0.4988720000000  0.5346050000000 1.0
C      1  0.4575340000000  0.4288560000000  0.5410010000000 1.0
C      1  0.5578420000000  0.5227770000000  0.4300020000000 1.0
C      1  0.4646070000000  0.5582310000000  0.4716110000000 1.0
C      1  0.5850430000000  0.5472840000000  0.5281820000000 1.0
C      1  0.4391840000000  0.5136340000000  0.4294760000000 1.0
C      1  0.5080810000000  0.5589720000000  0.5563560000000 1.0
C      1  0.4850520000000  0.4863130000000  0.4114650000000 1.0
C      1  0.4753560000000  0.4558690000000  0.5467510000000 1.0
C      1  0.5319800000000  0.4662550000000  0.4506900000000 1.0
C      1  0.5305600000000  0.5444910000000  0.4493840000000 1.0
C      1  0.4606890000000  0.5716790000000  0.5159850000000 1.0
C      1  0.5094500000000  0.5811740000000  0.4775970000000 1.0
C      1  0.5637780000000  0.4713680000000  0.5002520000000 1.0
C      1  0.4524500000000  0.5382850000000  0.4295490000000 1.0
C      1  0.5051880000000  0.4952740000000  0.4864060000000 1.0
C      1  0.5347720000000  0.4812880000000  0.4137600000000 1.0
C      1  0.4712870000000  0.5157010000000  0.5665010000000 1.0
C      1  0.5445980000000  0.5087870000000  0.5891000000000 1.0
C      1  0.4244310000000  0.5470980000000  0.5490260000000 1.0
C      1  0.6039420000000  0.4971250000000  0.4919320000000 1.0
C      1  0.5404390000000  0.5272540000000  0.4840680000000 1.0
C      1  0.4190100000000  0.4997810000000  0.5528130000000 1.0
C      1  0.4539660000000  0.5426120000000  0.5637860000000 1.0
C      1  0.4206680000000  0.4964090000000  0.5136070000000 1.0
C      1  0.5619530000000  0.4421570000000  0.4417000000000 1.0
C      1  0.4124000000000  0.5582770000000  0.4999740000000 1.0
C      1  0.4937800000000  0.5748020000000  0.4320150000000 1.0
C      1  0.4398950000000  0.4319800000000  0.5192440000000 1.0
C      1  0.5285010000000  0.5083990000000  0.5501020000000 1.0
C      1  0.5051430000000  0.4967460000000  0.5579220000000 1.0
C      1  0.5078720000000  0.3850090000000  0.5115070000000 1.0
END
