TITL C-2778425-5191-954 -0.0024889438927723 125000 -914.671547486254 0 0 157 (C1) n - 1
REM
REM in /home/nfs/bkarasulu/CARBON/AIRSS/Generating-Clusters/REBO/Only-C1/SD-CG/HFTN-CG
REM
REM
REM
REM
REM
REM ./C.cell (11c1c37f851c82e70ff6c80c92926a4b)
REM
REM compiler GCC version 9.2.1 20190827 (Red Hat 9.2.1-1)
REM options -cpp -mtune=generic -march=x86-64 -g -O0 -fpre-include=/usr/include/finclude/math-vector-fortran.h
REM seed -377804819 1024346613 1049703911 -1109093151 1753262713 100229818 95999061 -2070885587 704590764 -1896774677 1059372921 1626877661 -446832509 1041658708 1321600524 1416626788 790850222 248258396 -293651059 -1473464334 -1361368649 -1493661754 735807170 44765609 1833486022 -893706808 -1223587674 407193474 768133355 396647751 -1124920112 1052897928 2112999455
REM
CELL 1.54180   50.00000   50.00000   50.00000   90.00000   90.00000   90.00000
LATT -1
SFAC C  
C      1  0.4044890000000  0.4588580000000  0.5194990000000 1.0
C      1  0.5589390000000  0.4747610000000  0.4671280000000 1.0
C      1  0.5377650000000  0.5915810000000  0.4793750000000 1.0
C      1  0.4331860000000  0.5818780000000  0.4497900000000 1.0
C      1  0.4501840000000  0.5598870000000  0.4301430000000 1.0
C      1  0.5107390000000  0.4838470000000  0.4568770000000 1.0
C      1  0.4243240000000  0.4934000000000  0.5676360000000 1.0
C      1  0.4714240000000  0.5405340000000  0.4128910000000 1.0
C      1  0.5675100000000  0.5131870000000  0.4977350000000 1.0
C      1  0.5849010000000  0.4885330000000  0.4822810000000 1.0
C      1  0.5877790000000  0.5571710000000  0.4624980000000 1.0
C      1  0.5163600000000  0.5333950000000  0.5798750000000 1.0
C      1  0.4639530000000  0.4876440000000  0.3976990000000 1.0
C      1  0.4423590000000  0.5657040000000  0.5176310000000 1.0
C      1  0.5799630000000  0.4643850000000  0.5465290000000 1.0
C      1  0.5699190000000  0.5658130000000  0.5124790000000 1.0
C      1  0.5282340000000  0.5440820000000  0.4141370000000 1.0
C      1  0.4697680000000  0.5519630000000  0.5106610000000 1.0
C      1  0.6056810000000  0.4777920000000  0.4448480000000 1.0
C      1  0.4545240000000  0.5055610000000  0.4677690000000 1.0
C      1  0.5429260000000  0.5030870000000  0.5499760000000 1.0
C      1  0.5450690000000  0.4633540000000  0.4944770000000 1.0
C      1  0.6086200000000  0.5289530000000  0.5114550000000 1.0
C      1  0.5185080000000  0.5710800000000  0.4186730000000 1.0
C      1  0.4657270000000  0.5700320000000  0.4835250000000 1.0
C      1  0.4872890000000  0.5696250000000  0.4205400000000 1.0
C      1  0.3867890000000  0.5577960000000  0.4896810000000 1.0
C      1  0.4730370000000  0.4431670000000  0.5331690000000 1.0
C      1  0.4566720000000  0.5704670000000  0.5670350000000 1.0
C      1  0.5155940000000  0.4480930000000  0.5017400000000 1.0
C      1  0.4864430000000  0.4977200000000  0.5435210000000 1.0
C      1  0.4557610000000  0.4091150000000  0.4947070000000 1.0
C      1  0.4439960000000  0.4771020000000  0.4627330000000 1.0
C      1  0.5053770000000  0.5363290000000  0.4333360000000 1.0
C      1  0.5174950000000  0.4534290000000  0.5558410000000 1.0
C      1  0.5424040000000  0.4339660000000  0.4500640000000 1.0
C      1  0.4684140000000  0.6058060000000  0.5196710000000 1.0
C      1  0.4175350000000  0.4674490000000  0.5480830000000 1.0
C      1  0.5386440000000  0.5175710000000  0.5911940000000 1.0
C      1  0.4733570000000  0.5424910000000  0.5652250000000 1.0
C      1  0.4951310000000  0.5853420000000  0.4468690000000 1.0
C      1  0.5124110000000  0.4810990000000  0.5367400000000 1.0
C      1  0.4761440000000  0.4197330000000  0.4743640000000 1.0
C      1  0.4191410000000  0.5526160000000  0.4861770000000 1.0
C      1  0.6053570000000  0.5008300000000  0.4610900000000 1.0
C      1  0.4064330000000  0.4927810000000  0.5194350000000 1.0
C      1  0.5024620000000  0.5438700000000  0.4628020000000 1.0
C      1  0.5151810000000  0.4133340000000  0.5204020000000 1.0
C      1  0.5209270000000  0.4556780000000  0.5894140000000 1.0
C      1  0.5161440000000  0.5432860000000  0.5286950000000 1.0
C      1  0.4484640000000  0.4727650000000  0.5436520000000 1.0
C      1  0.5690720000000  0.5783360000000  0.4814480000000 1.0
C      1  0.4932320000000  0.4499690000000  0.6028340000000 1.0
C      1  0.5635570000000  0.4771270000000  0.5806810000000 1.0
C      1  0.5278200000000  0.5807880000000  0.4488000000000 1.0
C      1  0.4677960000000  0.5218160000000  0.5012130000000 1.0
C      1  0.4358540000000  0.5770400000000  0.4798030000000 1.0
C      1  0.5852300000000  0.4609580000000  0.4503330000000 1.0
C      1  0.4743500000000  0.4575890000000  0.3935130000000 1.0
C      1  0.5215550000000  0.4852450000000  0.4891550000000 1.0
C      1  0.5405540000000  0.4919690000000  0.4495540000000 1.0
C      1  0.5773270000000  0.4505900000000  0.5763230000000 1.0
C      1  0.5485130000000  0.5575100000000  0.4625370000000 1.0
C      1  0.4821720000000  0.5910210000000  0.4696130000000 1.0
C      1  0.4925380000000  0.3692080000000  0.5297940000000 1.0
C      1  0.5344690000000  0.4851750000000  0.5922030000000 1.0
C      1  0.5163850000000  0.4973600000000  0.4087250000000 1.0
C      1  0.4945390000000  0.5906900000000  0.5309270000000 1.0
C      1  0.5452260000000  0.5693760000000  0.5594940000000 1.0
C      1  0.5851100000000  0.4550460000000  0.4897220000000 1.0
C      1  0.4438920000000  0.3918400000000  0.5215770000000 1.0
C      1  0.5615400000000  0.4505990000000  0.5214930000000 1.0
C      1  0.4776010000000  0.4104670000000  0.5810840000000 1.0
C      1  0.4132260000000  0.4863510000000  0.4591710000000 1.0
C      1  0.3797700000000  0.5563160000000  0.5166090000000 1.0
C      1  0.4739360000000  0.4379600000000  0.5870390000000 1.0
C      1  0.4886480000000  0.5121830000000  0.4209270000000 1.0
C      1  0.4934760000000  0.4650500000000  0.4870420000000 1.0
C      1  0.5217440000000  0.5723170000000  0.5358260000000 1.0
C      1  0.5626250000000  0.5425200000000  0.5538530000000 1.0
C      1  0.4979070000000  0.4139800000000  0.4567350000000 1.0
C      1  0.4915070000000  0.5017080000000  0.5096930000000 1.0
C      1  0.4172850000000  0.5580760000000  0.4352780000000 1.0
C      1  0.4932340000000  0.3966430000000  0.5351700000000 1.0
C      1  0.5246900000000  0.4144850000000  0.4666540000000 1.0
C      1  0.4122230000000  0.4314690000000  0.5016760000000 1.0
C      1  0.5642430000000  0.4286170000000  0.4969480000000 1.0
C      1  0.4493190000000  0.5007540000000  0.5797380000000 1.0
C      1  0.5629220000000  0.5265180000000  0.5808960000000 1.0
C      1  0.4482250000000  0.4358900000000  0.4342180000000 1.0
C      1  0.4814580000000  0.4794590000000  0.4257200000000 1.0
C      1  0.5152990000000  0.5206340000000  0.5532790000000 1.0
C      1  0.4449460000000  0.4582060000000  0.4891090000000 1.0
C      1  0.5910830000000  0.5150190000000  0.5437260000000 1.0
C      1  0.5952120000000  0.4713610000000  0.5168140000000 1.0
C      1  0.5511290000000  0.5139540000000  0.4679730000000 1.0
C      1  0.4735620000000  0.4357920000000  0.4163610000000 1.0
C      1  0.5008230000000  0.4899730000000  0.5909790000000 1.0
C      1  0.5012360000000  0.5436970000000  0.5027270000000 1.0
C      1  0.4082630000000  0.5019870000000  0.4892000000000 1.0
C      1  0.5541470000000  0.5439140000000  0.4936230000000 1.0
C      1  0.4120270000000  0.5061060000000  0.4366150000000 1.0
C      1  0.5288210000000  0.4426800000000  0.4014880000000 1.0
C      1  0.5451440000000  0.5277440000000  0.5285070000000 1.0
C      1  0.5254720000000  0.5314040000000  0.4820040000000 1.0
C      1  0.5043250000000  0.4611530000000  0.4081730000000 1.0
C      1  0.5435610000000  0.4319970000000  0.4184330000000 1.0
C      1  0.4263090000000  0.5236690000000  0.4746720000000 1.0
C      1  0.5144650000000  0.5957090000000  0.5042830000000 1.0
C      1  0.5036060000000  0.4426190000000  0.5303200000000 1.0
C      1  0.4458050000000  0.5950330000000  0.5073010000000 1.0
C      1  0.4996230000000  0.4045710000000  0.5641850000000 1.0
C      1  0.5678990000000  0.4898650000000  0.5181660000000 1.0
C      1  0.4093600000000  0.5346540000000  0.4477030000000 1.0
C      1  0.4676090000000  0.5233190000000  0.5884170000000 1.0
C      1  0.4967610000000  0.4307820000000  0.4328960000000 1.0
C      1  0.5213950000000  0.4223880000000  0.5676470000000 1.0
C      1  0.4549360000000  0.5322770000000  0.4482650000000 1.0
C      1  0.5836220000000  0.5233470000000  0.4626810000000 1.0
C      1  0.4170260000000  0.5068350000000  0.5416550000000 1.0
C      1  0.4316700000000  0.4254440000000  0.4547380000000 1.0
C      1  0.4325900000000  0.5323040000000  0.5372270000000 1.0
C      1  0.4541290000000  0.5135680000000  0.4009940000000 1.0
C      1  0.6075470000000  0.5004500000000  0.5206460000000 1.0
C      1  0.5401400000000  0.6056440000000  0.5166590000000 1.0
C      1  0.5183800000000  0.4559240000000  0.4389690000000 1.0
C      1  0.5535850000000  0.5834110000000  0.5305260000000 1.0
C      1  0.5727550000000  0.4959160000000  0.5572150000000 1.0
C      1  0.5411020000000  0.5015560000000  0.4213640000000 1.0
C      1  0.4894660000000  0.5721140000000  0.5590580000000 1.0
C      1  0.4763660000000  0.4845820000000  0.5697500000000 1.0
C      1  0.4534800000000  0.4985110000000  0.5215780000000 1.0
C      1  0.5438450000000  0.4752380000000  0.5333930000000 1.0
C      1  0.5862930000000  0.5459520000000  0.5301330000000 1.0
C      1  0.5336000000000  0.4198440000000  0.4953850000000 1.0
C      1  0.5164830000000  0.5621050000000  0.5740020000000 1.0
C      1  0.4668840000000  0.4549790000000  0.5638730000000 1.0
C      1  0.5693660000000  0.4365550000000  0.4650770000000 1.0
C      1  0.4733510000000  0.5401680000000  0.4729180000000 1.0
C      1  0.4902850000000  0.5134910000000  0.6027350000000 1.0
C      1  0.4649660000000  0.5243230000000  0.5409520000000 1.0
C      1  0.4678150000000  0.4129440000000  0.5263340000000 1.0
C      1  0.5242760000000  0.5046470000000  0.5147300000000 1.0
C      1  0.4711610000000  0.4497790000000  0.4732430000000 1.0
C      1  0.5507680000000  0.5282660000000  0.4193540000000 1.0
C      1  0.5391200000000  0.4271460000000  0.5917840000000 1.0
C      1  0.4337390000000  0.5642760000000  0.5496180000000 1.0
C      1  0.4295590000000  0.4212340000000  0.4830480000000 1.0
C      1  0.5124550000000  0.5690140000000  0.4836150000000 1.0
C      1  0.4148030000000  0.4689690000000  0.4886630000000 1.0
C      1  0.4643790000000  0.4631040000000  0.4438760000000 1.0
C      1  0.5670050000000  0.4287590000000  0.5899890000000 1.0
C      1  0.4377660000000  0.5175380000000  0.4254120000000 1.0
C      1  0.5665520000000  0.5410010000000  0.4407970000000 1.0
C      1  0.4584060000000  0.4657740000000  0.5139660000000 1.0
C      1  0.4128200000000  0.5506480000000  0.5189190000000 1.0
C      1  0.4854070000000  0.4961720000000  0.4764710000000 1.0
END
