TITL C-2778423-5760-442 0.00357201666319603 125000 -968.238085124071 0 0 165 (C1) n - 1
REM
REM in /home/nfs/bkarasulu/CARBON/AIRSS/Generating-Clusters/REBO/Only-C1/SD-CG/HFTN-CG
REM
REM
REM
REM
REM
REM ./C.cell (11c1c37f851c82e70ff6c80c92926a4b)
REM
REM compiler GCC version 9.2.1 20190827 (Red Hat 9.2.1-1)
REM options -cpp -mtune=generic -march=x86-64 -g -O0 -fpre-include=/usr/include/finclude/math-vector-fortran.h
REM seed 1207912777 1099413065 159803809 -555592486 1653954607 126549200 -1544372152 -757511730 -59162809 -738951582 -2131568106 -1472182161 688750826 -733922267 418378140 2005785887 -508532061 -979318451 -479344898 -2119820957 -1408069944 1116012104 1997421486 2012442248 -1299212682 1758520483 1954616101 1128216325 -1545015102 1927349181 1054876969 -1768409242 491387908
REM
CELL 1.54180   50.00000   50.00000   50.00000   90.00000   90.00000   90.00000
LATT -1
SFAC C  
C      1  0.4285110000000  0.4689270000000  0.5663670000000 1.0
C      1  0.6013390000000  0.4921290000000  0.4838810000000 1.0
C      1  0.4853340000000  0.4360560000000  0.4890630000000 1.0
C      1  0.4541110000000  0.4110610000000  0.4590050000000 1.0
C      1  0.5447030000000  0.4018750000000  0.4990610000000 1.0
C      1  0.4796110000000  0.5032360000000  0.5281420000000 1.0
C      1  0.4221470000000  0.4431400000000  0.4423310000000 1.0
C      1  0.5357760000000  0.5370230000000  0.4382690000000 1.0
C      1  0.4871690000000  0.4872670000000  0.4393930000000 1.0
C      1  0.5501970000000  0.5302940000000  0.4634480000000 1.0
C      1  0.5229820000000  0.5479610000000  0.5401140000000 1.0
C      1  0.5869160000000  0.4448880000000  0.4569840000000 1.0
C      1  0.5209410000000  0.4885560000000  0.4028910000000 1.0
C      1  0.4465920000000  0.4283130000000  0.4941220000000 1.0
C      1  0.4800760000000  0.3948950000000  0.5114120000000 1.0
C      1  0.5250720000000  0.5330280000000  0.6001280000000 1.0
C      1  0.4376810000000  0.4844320000000  0.4697280000000 1.0
C      1  0.4444500000000  0.5322410000000  0.5064080000000 1.0
C      1  0.5241460000000  0.5555950000000  0.5090090000000 1.0
C      1  0.4814220000000  0.5757170000000  0.4983800000000 1.0
C      1  0.4640940000000  0.5001930000000  0.5998380000000 1.0
C      1  0.4944670000000  0.5362710000000  0.5450490000000 1.0
C      1  0.5502910000000  0.4506190000000  0.5011570000000 1.0
C      1  0.5584510000000  0.5044060000000  0.5770450000000 1.0
C      1  0.4524600000000  0.5011350000000  0.4170280000000 1.0
C      1  0.4349330000000  0.5031670000000  0.4981040000000 1.0
C      1  0.4490100000000  0.4503930000000  0.4320290000000 1.0
C      1  0.5876610000000  0.4425840000000  0.4897700000000 1.0
C      1  0.4960100000000  0.6109120000000  0.5481830000000 1.0
C      1  0.4226700000000  0.5675470000000  0.4788940000000 1.0
C      1  0.5138400000000  0.4507300000000  0.4806080000000 1.0
C      1  0.5038360000000  0.4157980000000  0.4498990000000 1.0
C      1  0.5513910000000  0.5292230000000  0.4965890000000 1.0
C      1  0.3990510000000  0.5348540000000  0.5128530000000 1.0
C      1  0.5834130000000  0.4231010000000  0.5380700000000 1.0
C      1  0.5940010000000  0.5504540000000  0.4611990000000 1.0
C      1  0.5773930000000  0.4492620000000  0.4253600000000 1.0
C      1  0.4421250000000  0.5431540000000  0.5727640000000 1.0
C      1  0.4721880000000  0.5002370000000  0.3983020000000 1.0
C      1  0.4756820000000  0.5255450000000  0.5062870000000 1.0
C      1  0.5405490000000  0.4984690000000  0.5256790000000 1.0
C      1  0.5629860000000  0.5034890000000  0.4271290000000 1.0
C      1  0.5835610000000  0.5237960000000  0.5002010000000 1.0
C      1  0.5889680000000  0.4458440000000  0.5514960000000 1.0
C      1  0.4965500000000  0.4624230000000  0.5412540000000 1.0
C      1  0.4319800000000  0.5706960000000  0.5541860000000 1.0
C      1  0.5118540000000  0.4574060000000  0.4492630000000 1.0
C      1  0.5575840000000  0.5574940000000  0.5706180000000 1.0
C      1  0.4973500000000  0.4715390000000  0.5024740000000 1.0
C      1  0.5479150000000  0.5783740000000  0.4692600000000 1.0
C      1  0.4478070000000  0.4517920000000  0.4713150000000 1.0
C      1  0.4106210000000  0.5471740000000  0.5490530000000 1.0
C      1  0.5068260000000  0.3888900000000  0.5030990000000 1.0
C      1  0.5615720000000  0.4236650000000  0.5181780000000 1.0
C      1  0.4157190000000  0.4362730000000  0.4891000000000 1.0
C      1  0.5895920000000  0.5586930000000  0.5184600000000 1.0
C      1  0.4581330000000  0.4812600000000  0.5772790000000 1.0
C      1  0.4790510000000  0.5520140000000  0.4765770000000 1.0
C      1  0.5385360000000  0.4938300000000  0.4768030000000 1.0
C      1  0.5059100000000  0.4351390000000  0.5689210000000 1.0
C      1  0.5051320000000  0.5530300000000  0.5943890000000 1.0
C      1  0.5426010000000  0.5687900000000  0.4149760000000 1.0
C      1  0.5200710000000  0.5162690000000  0.4913520000000 1.0
C      1  0.5012220000000  0.5089820000000  0.4089520000000 1.0
C      1  0.4808760000000  0.4556790000000  0.5774200000000 1.0
C      1  0.5149150000000  0.5756860000000  0.5807230000000 1.0
C      1  0.4776920000000  0.4627980000000  0.4692570000000 1.0
C      1  0.4548760000000  0.5130490000000  0.5497360000000 1.0
C      1  0.4900120000000  0.5895080000000  0.4388800000000 1.0
C      1  0.5499800000000  0.4878470000000  0.4065790000000 1.0
C      1  0.4260280000000  0.4203490000000  0.4607700000000 1.0
C      1  0.4504950000000  0.5827620000000  0.4745470000000 1.0
C      1  0.5202030000000  0.6071430000000  0.5368200000000 1.0
C      1  0.5828680000000  0.5151880000000  0.5575200000000 1.0
C      1  0.5371010000000  0.5971110000000  0.5169490000000 1.0
C      1  0.4106490000000  0.5238370000000  0.4633380000000 1.0
C      1  0.5844190000000  0.4707820000000  0.4982830000000 1.0
C      1  0.4065450000000  0.5048760000000  0.4843040000000 1.0
C      1  0.4692920000000  0.6070910000000  0.5502640000000 1.0
C      1  0.4548390000000  0.4798390000000  0.4405820000000 1.0
C      1  0.4516260000000  0.4440020000000  0.5670670000000 1.0
C      1  0.4841570000000  0.5500770000000  0.4362840000000 1.0
C      1  0.5139190000000  0.5577840000000  0.4421030000000 1.0
C      1  0.4561810000000  0.5272360000000  0.5965230000000 1.0
C      1  0.4041110000000  0.4622400000000  0.5435280000000 1.0
C      1  0.4741380000000  0.4285650000000  0.4392990000000 1.0
C      1  0.5521350000000  0.5635840000000  0.4983850000000 1.0
C      1  0.5308030000000  0.4249720000000  0.4778510000000 1.0
C      1  0.5260380000000  0.5927250000000  0.4909540000000 1.0
C      1  0.5116690000000  0.3992060000000  0.4766770000000 1.0
C      1  0.5988710000000  0.5473240000000  0.4890190000000 1.0
C      1  0.4050350000000  0.5085640000000  0.5240940000000 1.0
C      1  0.4254670000000  0.4266640000000  0.5205710000000 1.0
C      1  0.4522200000000  0.5846130000000  0.5086930000000 1.0
C      1  0.5845920000000  0.5279750000000  0.4372040000000 1.0
C      1  0.6005410000000  0.5032370000000  0.5145160000000 1.0
C      1  0.4931790000000  0.5502270000000  0.5137330000000 1.0
C      1  0.4649180000000  0.5226870000000  0.4735960000000 1.0
C      1  0.4790170000000  0.4960140000000  0.4772100000000 1.0
C      1  0.4843130000000  0.5120390000000  0.5667710000000 1.0
C      1  0.4666210000000  0.5512140000000  0.5519580000000 1.0
C      1  0.4040100000000  0.4344700000000  0.5379140000000 1.0
C      1  0.5947920000000  0.4947110000000  0.5414470000000 1.0
C      1  0.4442390000000  0.5266150000000  0.4258050000000 1.0
C      1  0.4462590000000  0.4605130000000  0.5315820000000 1.0
C      1  0.4405550000000  0.5225630000000  0.4561930000000 1.0
C      1  0.5738170000000  0.5373170000000  0.5401660000000 1.0
C      1  0.5528790000000  0.4826280000000  0.5021280000000 1.0
C      1  0.5050870000000  0.5330230000000  0.4719310000000 1.0
C      1  0.5599940000000  0.4892090000000  0.4556540000000 1.0
C      1  0.5163140000000  0.5654670000000  0.4729630000000 1.0
C      1  0.5640940000000  0.4207710000000  0.4784670000000 1.0
C      1  0.5589980000000  0.4284790000000  0.4456860000000 1.0
C      1  0.5589000000000  0.4601780000000  0.4696260000000 1.0
C      1  0.4829390000000  0.5923930000000  0.4690900000000 1.0
C      1  0.5788960000000  0.4713620000000  0.5481630000000 1.0
C      1  0.4807850000000  0.5425090000000  0.5819790000000 1.0
C      1  0.5096310000000  0.4872480000000  0.4651360000000 1.0
C      1  0.4695130000000  0.4764210000000  0.5454910000000 1.0
C      1  0.4833110000000  0.5369700000000  0.4091530000000 1.0
C      1  0.4534330000000  0.4280780000000  0.5389070000000 1.0
C      1  0.4035550000000  0.4784090000000  0.5141300000000 1.0
C      1  0.5499380000000  0.4829920000000  0.5529070000000 1.0
C      1  0.5088170000000  0.4975780000000  0.5150630000000 1.0
C      1  0.4687900000000  0.4088420000000  0.4876130000000 1.0
C      1  0.5102860000000  0.4616320000000  0.4043680000000 1.0
C      1  0.5655610000000  0.5828740000000  0.5212590000000 1.0
C      1  0.4779190000000  0.4103770000000  0.5355900000000 1.0
C      1  0.5566970000000  0.4590220000000  0.4060670000000 1.0
C      1  0.5185760000000  0.4599470000000  0.5870540000000 1.0
C      1  0.5017320000000  0.4430860000000  0.5178600000000 1.0
C      1  0.5164440000000  0.5057380000000  0.6049360000000 1.0
C      1  0.5258970000000  0.4003450000000  0.5273770000000 1.0
C      1  0.4359390000000  0.5553010000000  0.4341160000000 1.0
C      1  0.5174110000000  0.5840780000000  0.4243130000000 1.0
C      1  0.5916030000000  0.4993860000000  0.4545350000000 1.0
C      1  0.4082440000000  0.4934940000000  0.5562730000000 1.0
C      1  0.4899540000000  0.4977950000000  0.6114080000000 1.0
C      1  0.5334240000000  0.4864000000000  0.5914710000000 1.0
C      1  0.5286030000000  0.4324420000000  0.5189300000000 1.0
C      1  0.4482530000000  0.5934080000000  0.5398480000000 1.0
C      1  0.5299810000000  0.4312360000000  0.4370130000000 1.0
C      1  0.4501510000000  0.5566300000000  0.5257040000000 1.0
C      1  0.4878290000000  0.4568740000000  0.4262380000000 1.0
C      1  0.4983250000000  0.5192700000000  0.4415770000000 1.0
C      1  0.5651880000000  0.5564300000000  0.4571050000000 1.0
C      1  0.5038600000000  0.4157010000000  0.5483610000000 1.0
C      1  0.5787130000000  0.5688590000000  0.5493620000000 1.0
C      1  0.3966750000000  0.4769930000000  0.4808270000000 1.0
C      1  0.4373810000000  0.4934280000000  0.5291120000000 1.0
C      1  0.5975210000000  0.4742500000000  0.4349200000000 1.0
C      1  0.4117360000000  0.4650170000000  0.4583040000000 1.0
C      1  0.4310360000000  0.4638100000000  0.5033260000000 1.0
C      1  0.5195500000000  0.4764660000000  0.5511500000000 1.0
C      1  0.4611290000000  0.5712890000000  0.4440350000000 1.0
C      1  0.5464540000000  0.5294130000000  0.5294060000000 1.0
C      1  0.4633420000000  0.4748230000000  0.4988160000000 1.0
C      1  0.5320930000000  0.4440330000000  0.4085100000000 1.0
C      1  0.5592710000000  0.5430910000000  0.4200180000000 1.0
C      1  0.4231340000000  0.5201650000000  0.5577190000000 1.0
C      1  0.5510010000000  0.5342490000000  0.5863020000000 1.0
C      1  0.5327860000000  0.5681990000000  0.5603460000000 1.0
C      1  0.4975720000000  0.4855690000000  0.5737830000000 1.0
C      1  0.4153800000000  0.5534840000000  0.4548600000000 1.0
C      1  0.4192260000000  0.5506020000000  0.5014160000000 1.0
END
