TITL C-2778429-3646-398 0.00159131841523448 125000 -132.484783789669 0 0 23 (C1) n - 1
REM
REM in /home/nfs/bkarasulu/CARBON/AIRSS/Generating-Clusters/REBO/Only-C1/SD-CG/HFTN-CG
REM
REM
REM
REM
REM
REM ./C.cell (11c1c37f851c82e70ff6c80c92926a4b)
REM
REM compiler GCC version 9.2.1 20190827 (Red Hat 9.2.1-1)
REM options -cpp -mtune=generic -march=x86-64 -g -O0 -fpre-include=/usr/include/finclude/math-vector-fortran.h
REM seed -710936580 -12195148 1795692027 -363938053 -624935033 -1601693339 354373328 -1307234576 -1242752473 -212612008 -717937400 -884468694 1627443653 -1843692673 -1672545398 1593861850 -1853847181 -965932372 1100244211 1093077734 1681633053 767943579 2045670655 -58527452 924885436 384371095 1486026161 -1652822405 -1020322224 -1634430033 1519261519 2069562594 885533499
REM
CELL 1.54180   50.00000   50.00000   50.00000   90.00000   90.00000   90.00000
LATT -1
SFAC C  
C      1  0.4870180000000  0.4799460000000  0.5584160000000 1.0
C      1  0.5284040000000  0.4743710000000  0.4866900000000 1.0
C      1  0.5233120000000  0.5194770000000  0.4708030000000 1.0
C      1  0.4852430000000  0.5437370000000  0.4533270000000 1.0
C      1  0.5065280000000  0.4664690000000  0.4166230000000 1.0
C      1  0.4817450000000  0.4879810000000  0.5836050000000 1.0
C      1  0.4946330000000  0.5369730000000  0.5041940000000 1.0
C      1  0.4856950000000  0.4412660000000  0.4942810000000 1.0
C      1  0.5171230000000  0.4613780000000  0.4639440000000 1.0
C      1  0.5014680000000  0.5063720000000  0.5180670000000 1.0
C      1  0.4770400000000  0.5113880000000  0.5968110000000 1.0
C      1  0.5116200000000  0.5058370000000  0.4445640000000 1.0
C      1  0.4919890000000  0.5243520000000  0.4340200000000 1.0
C      1  0.5218780000000  0.4996410000000  0.4943280000000 1.0
C      1  0.5000140000000  0.5393740000000  0.4775800000000 1.0
C      1  0.4773150000000  0.5361390000000  0.5850930000000 1.0
C      1  0.5485070000000  0.5314090000000  0.4672150000000 1.0
C      1  0.4848480000000  0.4588240000000  0.5148360000000 1.0
C      1  0.4825970000000  0.5424170000000  0.5592100000000 1.0
C      1  0.4897270000000  0.5338710000000  0.5344720000000 1.0
C      1  0.4994720000000  0.4400650000000  0.4705570000000 1.0
C      1  0.4908570000000  0.4809000000000  0.5308280000000 1.0
C      1  0.5129650000000  0.4778110000000  0.4405360000000 1.0
END
