TITL C-2778435-5768-311 0.00105415051319655 125000 -282.954264355209 0 0 50 (C1) n - 1
REM
REM in /home/nfs/bkarasulu/CARBON/AIRSS/Generating-Clusters/REBO/Only-C1/SD-CG/HFTN-CG
REM
REM
REM
REM
REM
REM ./C.cell (11c1c37f851c82e70ff6c80c92926a4b)
REM
REM compiler GCC version 9.2.1 20190827 (Red Hat 9.2.1-1)
REM options -cpp -mtune=generic -march=x86-64 -g -O0 -fpre-include=/usr/include/finclude/math-vector-fortran.h
REM seed 653257143 -1407072620 -255357416 -1769151685 1786530408 -1177201959 -1001107731 662692463 -1967839080 -864616515 1930072204 -254593719 393440906 -1640355519 -1443083380 1331852363 -1655594979 -1946320508 876482448 -1319689393 143184814 1238791405 253865310 -1320126497 546770054 -477514931 665342561 217977021 -435255877 -1030668408 -1656606317 -394408439 1772503240
REM
CELL 1.54180   50.00000   50.00000   50.00000   90.00000   90.00000   90.00000
LATT -1
SFAC C  
C      1  0.5455830000000  0.4486820000000  0.5340030000000 1.0
C      1  0.4701130000000  0.5594910000000  0.4777470000000 1.0
C      1  0.4983120000000  0.5579910000000  0.4641630000000 1.0
C      1  0.4656720000000  0.5848150000000  0.5544090000000 1.0
C      1  0.4490380000000  0.4939350000000  0.5433750000000 1.0
C      1  0.4727210000000  0.5606810000000  0.5500360000000 1.0
C      1  0.5512810000000  0.4689450000000  0.5158470000000 1.0
C      1  0.4936640000000  0.4442960000000  0.4490400000000 1.0
C      1  0.5627570000000  0.5152940000000  0.5445310000000 1.0
C      1  0.5572720000000  0.4936790000000  0.4949520000000 1.0
C      1  0.5135930000000  0.5270060000000  0.5386820000000 1.0
C      1  0.4607470000000  0.5153170000000  0.5300890000000 1.0
C      1  0.4498090000000  0.4250280000000  0.4878180000000 1.0
C      1  0.5370070000000  0.4677750000000  0.4854070000000 1.0
C      1  0.4703070000000  0.5155010000000  0.4567130000000 1.0
C      1  0.5019980000000  0.5072330000000  0.5915500000000 1.0
C      1  0.5232870000000  0.4371200000000  0.4920370000000 1.0
C      1  0.5319720000000  0.4848140000000  0.5656100000000 1.0
C      1  0.4977170000000  0.5287300000000  0.4490850000000 1.0
C      1  0.4379850000000  0.4737520000000  0.5559160000000 1.0
C      1  0.4829710000000  0.4664560000000  0.4805190000000 1.0
C      1  0.4996770000000  0.5176680000000  0.5683070000000 1.0
C      1  0.4810930000000  0.5320170000000  0.5448410000000 1.0
C      1  0.5509010000000  0.5271110000000  0.4960640000000 1.0
C      1  0.5358300000000  0.4261270000000  0.5188000000000 1.0
C      1  0.4541650000000  0.5216600000000  0.5035870000000 1.0
C      1  0.4736330000000  0.5797660000000  0.4981540000000 1.0
C      1  0.5364580000000  0.5103880000000  0.5544120000000 1.0
C      1  0.5123970000000  0.4811990000000  0.5138590000000 1.0
C      1  0.5706740000000  0.5141140000000  0.5186270000000 1.0
C      1  0.5136050000000  0.5132630000000  0.4296900000000 1.0
C      1  0.5192530000000  0.5713180000000  0.4852400000000 1.0
C      1  0.4892440000000  0.4710090000000  0.4392800000000 1.0
C      1  0.5206900000000  0.5316090000000  0.5109300000000 1.0
C      1  0.5423820000000  0.5577960000000  0.4899020000000 1.0
C      1  0.4095860000000  0.4513260000000  0.4782660000000 1.0
C      1  0.5184970000000  0.5040670000000  0.4924590000000 1.0
C      1  0.4759360000000  0.4174370000000  0.4847590000000 1.0
C      1  0.5007860000000  0.5864140000000  0.5022770000000 1.0
C      1  0.4547310000000  0.4694550000000  0.4722870000000 1.0
C      1  0.5248650000000  0.5240080000000  0.4070380000000 1.0
C      1  0.5016870000000  0.4588060000000  0.5021340000000 1.0
C      1  0.4591730000000  0.5325470000000  0.4779890000000 1.0
C      1  0.4986420000000  0.4293250000000  0.4727980000000 1.0
C      1  0.4365640000000  0.4490030000000  0.4800570000000 1.0
C      1  0.5147550000000  0.4868370000000  0.4384300000000 1.0
C      1  0.5141220000000  0.5323870000000  0.4776850000000 1.0
C      1  0.5378010000000  0.4585890000000  0.5594980000000 1.0
C      1  0.4669240000000  0.4874190000000  0.4506170000000 1.0
C      1  0.5121260000000  0.4807940000000  0.4704830000000 1.0
END
