TITL C-2778432-5617-826 -0.00204314372093074 125000 -316.659045111974 0 0 55 (C1) n - 1
REM
REM in /home/nfs/bkarasulu/CARBON/AIRSS/Generating-Clusters/REBO/Only-C1/SD-CG/HFTN-CG
REM
REM
REM
REM
REM
REM ./C.cell (11c1c37f851c82e70ff6c80c92926a4b)
REM
REM compiler GCC version 9.2.1 20190827 (Red Hat 9.2.1-1)
REM options -cpp -mtune=generic -march=x86-64 -g -O0 -fpre-include=/usr/include/finclude/math-vector-fortran.h
REM seed -1093587189 1629621603 292855806 -1993710237 108047110 1203298814 565103934 44229558 1025198105 -678315396 1261134546 443742819 -1649852449 1597247342 1750455688 2105612356 1069969966 1203556570 2087770361 1956500510 1497786011 -1039338882 1100092874 431559470 788604671 1043883396 -82097454 1785033430 1171076025 1488858797 56099217 2053411923 -360806857
REM
CELL 1.54180   50.00000   50.00000   50.00000   90.00000   90.00000   90.00000
LATT -1
SFAC C  
C      1  0.5441220000000  0.4419910000000  0.5387560000000 1.0
C      1  0.5643330000000  0.4534220000000  0.4583520000000 1.0
C      1  0.4718020000000  0.4926070000000  0.5133320000000 1.0
C      1  0.4880500000000  0.4694640000000  0.4407330000000 1.0
C      1  0.4807450000000  0.4922660000000  0.5625320000000 1.0
C      1  0.5162230000000  0.4372210000000  0.5355330000000 1.0
C      1  0.4857530000000  0.5182890000000  0.5512330000000 1.0
C      1  0.5695680000000  0.4755280000000  0.4739050000000 1.0
C      1  0.5042060000000  0.4749930000000  0.5649010000000 1.0
C      1  0.4843990000000  0.5904250000000  0.5313250000000 1.0
C      1  0.4808110000000  0.5565160000000  0.4662050000000 1.0
C      1  0.4813300000000  0.4640890000000  0.5226510000000 1.0
C      1  0.4350370000000  0.5080110000000  0.5104530000000 1.0
C      1  0.4732810000000  0.5528670000000  0.4141500000000 1.0
C      1  0.4799520000000  0.4801640000000  0.4665450000000 1.0
C      1  0.5224000000000  0.5081570000000  0.4481160000000 1.0
C      1  0.5172840000000  0.5534370000000  0.5337030000000 1.0
C      1  0.5136900000000  0.4525210000000  0.4416190000000 1.0
C      1  0.4304720000000  0.4590360000000  0.5162390000000 1.0
C      1  0.4633230000000  0.4749390000000  0.4887420000000 1.0
C      1  0.4704380000000  0.5456610000000  0.5106980000000 1.0
C      1  0.5508710000000  0.4654390000000  0.5520300000000 1.0
C      1  0.4790180000000  0.5389230000000  0.4377400000000 1.0
C      1  0.4986430000000  0.5152310000000  0.4339130000000 1.0
C      1  0.4541260000000  0.5386230000000  0.4613910000000 1.0
C      1  0.5437740000000  0.5138230000000  0.5187550000000 1.0
C      1  0.4956760000000  0.5654390000000  0.4868000000000 1.0
C      1  0.5457960000000  0.5551870000000  0.5187130000000 1.0
C      1  0.4935690000000  0.5039710000000  0.4757960000000 1.0
C      1  0.4516680000000  0.4502020000000  0.4983620000000 1.0
C      1  0.5321240000000  0.5100680000000  0.5440010000000 1.0
C      1  0.5677330000000  0.5320430000000  0.5077540000000 1.0
C      1  0.5315820000000  0.5302300000000  0.4913880000000 1.0
C      1  0.5121210000000  0.5298420000000  0.5490000000000 1.0
C      1  0.5431890000000  0.5225740000000  0.4618840000000 1.0
C      1  0.5208330000000  0.4785340000000  0.4617350000000 1.0
C      1  0.5035620000000  0.4446870000000  0.5078550000000 1.0
C      1  0.5374170000000  0.4425070000000  0.4601970000000 1.0
C      1  0.5215550000000  0.5008940000000  0.4874030000000 1.0
C      1  0.4931030000000  0.5664350000000  0.5199250000000 1.0
C      1  0.4567280000000  0.4796360000000  0.5506200000000 1.0
C      1  0.5224600000000  0.4557880000000  0.4877260000000 1.0
C      1  0.4464310000000  0.5223550000000  0.4881650000000 1.0
C      1  0.4875830000000  0.4914410000000  0.4220260000000 1.0
C      1  0.5307580000000  0.4851820000000  0.5577670000000 1.0
C      1  0.5450090000000  0.4801140000000  0.4951990000000 1.0
C      1  0.5013280000000  0.4470150000000  0.5581630000000 1.0
C      1  0.4718750000000  0.5178740000000  0.5264100000000 1.0
C      1  0.4643660000000  0.4506090000000  0.5441990000000 1.0
C      1  0.4358280000000  0.4852930000000  0.5291020000000 1.0
C      1  0.5234300000000  0.5596540000000  0.4948340000000 1.0
C      1  0.4732440000000  0.4312070000000  0.5015340000000 1.0
C      1  0.4451390000000  0.5573130000000  0.5075600000000 1.0
C      1  0.4788490000000  0.5229350000000  0.4877290000000 1.0
C      1  0.5633910000000  0.5073270000000  0.4846020000000 1.0
END
