TITL C-2778436-5916-494 0.0443328862283675 125000 -628.767739081498 0 0 108 (C1) n - 1
REM
REM in /home/nfs/bkarasulu/CARBON/AIRSS/Generating-Clusters/REBO/Only-C1/SD-CG/HFTN-CG
REM
REM
REM
REM
REM
REM ./C.cell (11c1c37f851c82e70ff6c80c92926a4b)
REM
REM compiler GCC version 9.2.1 20190827 (Red Hat 9.2.1-1)
REM options -cpp -mtune=generic -march=x86-64 -g -O0 -fpre-include=/usr/include/finclude/math-vector-fortran.h
REM seed -1622810749 -271972411 1539686730 -557997411 -1635376118 -548710403 -31010424 862413269 1253790867 1862035005 -816398881 1112569662 -610912434 73498160 545233656 -210576676 -1791563069 510253563 1482278405 2048121854 -449359334 890750661 1217341321 -1154452085 -430464843 2099641053 975511870 -1667202269 1498960194 -1614009036 -406646109 -182230677 77953549
REM
CELL 1.54180   50.00000   50.00000   50.00000   90.00000   90.00000   90.00000
LATT -1
SFAC C  
C      1  0.5122280000000  0.5336640000000  0.5480350000000 1.0
C      1  0.3947250000000  0.4983710000000  0.5084910000000 1.0
C      1  0.5905430000000  0.5435040000000  0.5012130000000 1.0
C      1  0.4321770000000  0.4589000000000  0.4412480000000 1.0
C      1  0.4579530000000  0.4506610000000  0.5529360000000 1.0
C      1  0.4824400000000  0.4828400000000  0.5138020000000 1.0
C      1  0.4579250000000  0.5919180000000  0.5053080000000 1.0
C      1  0.5239840000000  0.4691830000000  0.4182200000000 1.0
C      1  0.5696840000000  0.4509740000000  0.5358920000000 1.0
C      1  0.5428160000000  0.5833510000000  0.5072530000000 1.0
C      1  0.4816890000000  0.4738290000000  0.5957450000000 1.0
C      1  0.4993140000000  0.4179150000000  0.5524790000000 1.0
C      1  0.5444010000000  0.5315440000000  0.4767250000000 1.0
C      1  0.5402160000000  0.4693530000000  0.5722210000000 1.0
C      1  0.4602140000000  0.5188460000000  0.4533710000000 1.0
C      1  0.4547830000000  0.5144960000000  0.5571160000000 1.0
C      1  0.4732420000000  0.5247880000000  0.5824050000000 1.0
C      1  0.5848090000000  0.4668450000000  0.5523820000000 1.0
C      1  0.4145810000000  0.5117420000000  0.5310270000000 1.0
C      1  0.5961420000000  0.5382160000000  0.5275660000000 1.0
C      1  0.5497840000000  0.5174960000000  0.4255000000000 1.0
C      1  0.4539390000000  0.4140330000000  0.4796790000000 1.0
C      1  0.5312270000000  0.5807450000000  0.4600500000000 1.0
C      1  0.5482910000000  0.4727340000000  0.4378630000000 1.0
C      1  0.5551900000000  0.5657670000000  0.5248720000000 1.0
C      1  0.5059500000000  0.4480730000000  0.4259760000000 1.0
C      1  0.5048340000000  0.5302880000000  0.5192940000000 1.0
C      1  0.4762670000000  0.4923700000000  0.4400250000000 1.0
C      1  0.5153660000000  0.5452670000000  0.4716800000000 1.0
C      1  0.4977680000000  0.4559410000000  0.5254130000000 1.0
C      1  0.5048000000000  0.4884610000000  0.4474960000000 1.0
C      1  0.5421460000000  0.5201980000000  0.5516500000000 1.0
C      1  0.4279290000000  0.5096100000000  0.4524300000000 1.0
C      1  0.5783320000000  0.5010200000000  0.4647630000000 1.0
C      1  0.5222730000000  0.5020000000000  0.4223160000000 1.0
C      1  0.5255500000000  0.4562040000000  0.5069520000000 1.0
C      1  0.5078530000000  0.4172160000000  0.5040530000000 1.0
C      1  0.5209500000000  0.5502580000000  0.5030440000000 1.0
C      1  0.4728520000000  0.5340240000000  0.5128550000000 1.0
C      1  0.5116180000000  0.5300180000000  0.4326280000000 1.0
C      1  0.5509310000000  0.5791360000000  0.4802800000000 1.0
C      1  0.4307860000000  0.4613720000000  0.5566330000000 1.0
C      1  0.4788350000000  0.4558100000000  0.4245400000000 1.0
C      1  0.4631220000000  0.4553190000000  0.4505910000000 1.0
C      1  0.4261810000000  0.4857820000000  0.5123350000000 1.0
C      1  0.5442500000000  0.5355020000000  0.5236390000000 1.0
C      1  0.5154710000000  0.4644960000000  0.4691960000000 1.0
C      1  0.5101360000000  0.4487650000000  0.5564040000000 1.0
C      1  0.4928050000000  0.5245000000000  0.4595870000000 1.0
C      1  0.5431720000000  0.4481050000000  0.4572410000000 1.0
C      1  0.4452510000000  0.4378250000000  0.4994660000000 1.0
C      1  0.5685960000000  0.4521720000000  0.5071120000000 1.0
C      1  0.4769100000000  0.4703390000000  0.5564410000000 1.0
C      1  0.5322190000000  0.4854090000000  0.5150950000000 1.0
C      1  0.4222700000000  0.5306740000000  0.4760770000000 1.0
C      1  0.5064660000000  0.5222580000000  0.5793920000000 1.0
C      1  0.4864110000000  0.5848850000000  0.4898030000000 1.0
C      1  0.5453060000000  0.5118820000000  0.5006660000000 1.0
C      1  0.5674230000000  0.5540810000000  0.4786100000000 1.0
C      1  0.4093670000000  0.4443920000000  0.4404760000000 1.0
C      1  0.4903580000000  0.5566740000000  0.4352520000000 1.0
C      1  0.5168890000000  0.4311030000000  0.4475680000000 1.0
C      1  0.4426760000000  0.4984210000000  0.4878370000000 1.0
C      1  0.4360150000000  0.5843830000000  0.4908250000000 1.0
C      1  0.4352120000000  0.5556380000000  0.5406580000000 1.0
C      1  0.4723060000000  0.5314590000000  0.4260130000000 1.0
C      1  0.4308790000000  0.5288250000000  0.5455470000000 1.0
C      1  0.5839080000000  0.5247810000000  0.4764830000000 1.0
C      1  0.4728250000000  0.5126390000000  0.4057670000000 1.0
C      1  0.4591500000000  0.4944970000000  0.5846650000000 1.0
C      1  0.5218900000000  0.4971290000000  0.5778030000000 1.0
C      1  0.5656150000000  0.4987950000000  0.4398990000000 1.0
C      1  0.5414910000000  0.4862060000000  0.4691140000000 1.0
C      1  0.4427830000000  0.4869010000000  0.4374430000000 1.0
C      1  0.4791050000000  0.5741070000000  0.5598080000000 1.0
C      1  0.4328440000000  0.5586560000000  0.4859020000000 1.0
C      1  0.4721260000000  0.4818740000000  0.4082190000000 1.0
C      1  0.5480250000000  0.5443470000000  0.4238700000000 1.0
C      1  0.4930170000000  0.4916090000000  0.5508990000000 1.0
C      1  0.5707060000000  0.4767120000000  0.4835820000000 1.0
C      1  0.5070780000000  0.4684100000000  0.5825750000000 1.0
C      1  0.5185420000000  0.4214040000000  0.4763220000000 1.0
C      1  0.5067300000000  0.5027100000000  0.5055660000000 1.0
C      1  0.4307030000000  0.4806560000000  0.5762330000000 1.0
C      1  0.5242780000000  0.4217550000000  0.5313340000000 1.0
C      1  0.4508680000000  0.5308260000000  0.4940830000000 1.0
C      1  0.4090350000000  0.5008160000000  0.4796060000000 1.0
C      1  0.5900230000000  0.5258300000000  0.5510000000000 1.0
C      1  0.5116830000000  0.5811170000000  0.5107950000000 1.0
C      1  0.5687820000000  0.4839360000000  0.5688140000000 1.0
C      1  0.4588690000000  0.5765250000000  0.5352650000000 1.0
C      1  0.5240670000000  0.5618130000000  0.4355570000000 1.0
C      1  0.4849600000000  0.4180920000000  0.5255430000000 1.0
C      1  0.4907540000000  0.5503880000000  0.5684190000000 1.0
C      1  0.5425060000000  0.4451550000000  0.5482220000000 1.0
C      1  0.4337760000000  0.4585590000000  0.5227230000000 1.0
C      1  0.5685900000000  0.4438320000000  0.4747040000000 1.0
C      1  0.5131070000000  0.5036560000000  0.4763060000000 1.0
C      1  0.5246110000000  0.4932100000000  0.5441940000000 1.0
C      1  0.5684970000000  0.5115120000000  0.5623320000000 1.0
C      1  0.4586120000000  0.4800920000000  0.4734630000000 1.0
C      1  0.4704840000000  0.4422820000000  0.4782240000000 1.0
C      1  0.4594950000000  0.4341810000000  0.5273580000000 1.0
C      1  0.4954200000000  0.4528890000000  0.4910450000000 1.0
C      1  0.4983170000000  0.5735930000000  0.4637040000000 1.0
C      1  0.4829880000000  0.5636610000000  0.5167860000000 1.0
C      1  0.5431240000000  0.4333430000000  0.4942920000000 1.0
C      1  0.4735860000000  0.5096340000000  0.5328250000000 1.0
END
