TITL C-2778437-8639-906 0.00600926483789177 125000 -799.737505817728 0 0 138 (C1) n - 1
REM
REM in /home/nfs/bkarasulu/CARBON/AIRSS/Generating-Clusters/REBO/Only-C1/SD-CG/HFTN-CG
REM
REM
REM
REM
REM
REM ./C.cell (11c1c37f851c82e70ff6c80c92926a4b)
REM
REM compiler GCC version 9.2.1 20190827 (Red Hat 9.2.1-1)
REM options -cpp -mtune=generic -march=x86-64 -g -O0 -fpre-include=/usr/include/finclude/math-vector-fortran.h
REM seed 1503777776 257080095 -380041253 -1269273175 -50109485 1139419880 -1129873838 1237404842 -1626970824 1589907198 871864615 1276808196 -117643215 -990656602 947494923 -543762033 1814699629 1561663356 907567207 1002084129 -1304347554 736216618 82872909 1007323316 100555821 -39664137 -1702037010 851341803 191355812 89463260 -1618395208 989857589 1454370437
REM
CELL 1.54180   50.00000   50.00000   50.00000   90.00000   90.00000   90.00000
LATT -1
SFAC C  
C      1  0.5779600000000  0.5410690000000  0.5366020000000 1.0
C      1  0.4497330000000  0.5099930000000  0.4533680000000 1.0
C      1  0.4885740000000  0.5091160000000  0.5609630000000 1.0
C      1  0.5419340000000  0.4152540000000  0.5021260000000 1.0
C      1  0.5591410000000  0.4845740000000  0.5450420000000 1.0
C      1  0.5128510000000  0.4117320000000  0.5452950000000 1.0
C      1  0.4559400000000  0.4812940000000  0.4505930000000 1.0
C      1  0.5102690000000  0.4580680000000  0.5171330000000 1.0
C      1  0.5263740000000  0.5285480000000  0.4393730000000 1.0
C      1  0.4407210000000  0.4313720000000  0.4704000000000 1.0
C      1  0.4824540000000  0.4389190000000  0.5149220000000 1.0
C      1  0.5097250000000  0.4924970000000  0.4083780000000 1.0
C      1  0.5555580000000  0.5000500000000  0.4906030000000 1.0
C      1  0.4468260000000  0.4310230000000  0.5311400000000 1.0
C      1  0.4408440000000  0.5754260000000  0.5028550000000 1.0
C      1  0.4977610000000  0.5467590000000  0.5303350000000 1.0
C      1  0.5290300000000  0.5018120000000  0.5122010000000 1.0
C      1  0.4668840000000  0.4497720000000  0.4726290000000 1.0
C      1  0.5980240000000  0.5331870000000  0.4629420000000 1.0
C      1  0.4379970000000  0.4646020000000  0.4267390000000 1.0
C      1  0.4238490000000  0.5160790000000  0.4349510000000 1.0
C      1  0.4876930000000  0.4065390000000  0.4675020000000 1.0
C      1  0.4483980000000  0.5491480000000  0.4356180000000 1.0
C      1  0.4871190000000  0.5395010000000  0.5610080000000 1.0
C      1  0.5244270000000  0.4745750000000  0.4334660000000 1.0
C      1  0.5997660000000  0.5041610000000  0.4719060000000 1.0
C      1  0.5675580000000  0.5019610000000  0.5703050000000 1.0
C      1  0.4599000000000  0.4059620000000  0.5133880000000 1.0
C      1  0.5316000000000  0.5758990000000  0.4886470000000 1.0
C      1  0.5298760000000  0.4214840000000  0.4478270000000 1.0
C      1  0.4218470000000  0.4996170000000  0.5275100000000 1.0
C      1  0.4239200000000  0.5148030000000  0.4981260000000 1.0
C      1  0.5208760000000  0.6048620000000  0.4879800000000 1.0
C      1  0.5554020000000  0.5596530000000  0.5264860000000 1.0
C      1  0.4946370000000  0.4540780000000  0.4564160000000 1.0
C      1  0.4496220000000  0.5236290000000  0.4825370000000 1.0
C      1  0.5758000000000  0.4702440000000  0.5079420000000 1.0
C      1  0.4763840000000  0.4967790000000  0.4087380000000 1.0
C      1  0.4676430000000  0.5533030000000  0.5847570000000 1.0
C      1  0.5690850000000  0.5670320000000  0.4781610000000 1.0
C      1  0.5246520000000  0.5602660000000  0.5620510000000 1.0
C      1  0.4758510000000  0.5549370000000  0.4210600000000 1.0
C      1  0.4224880000000  0.5331160000000  0.5257190000000 1.0
C      1  0.3979250000000  0.4550560000000  0.4836870000000 1.0
C      1  0.5605570000000  0.4521670000000  0.5401520000000 1.0
C      1  0.4491950000000  0.5421590000000  0.5370830000000 1.0
C      1  0.5204540000000  0.4281930000000  0.5741030000000 1.0
C      1  0.4181350000000  0.4665280000000  0.5246350000000 1.0
C      1  0.5772120000000  0.5366430000000  0.4426390000000 1.0
C      1  0.5245860000000  0.5262390000000  0.5586570000000 1.0
C      1  0.5692520000000  0.5057900000000  0.4668180000000 1.0
C      1  0.5044690000000  0.5852980000000  0.5385490000000 1.0
C      1  0.5060410000000  0.4637940000000  0.4840430000000 1.0
C      1  0.5826020000000  0.4434130000000  0.4386500000000 1.0
C      1  0.4101850000000  0.4440570000000  0.5061430000000 1.0
C      1  0.4670800000000  0.5248490000000  0.6040560000000 1.0
C      1  0.4688130000000  0.4383940000000  0.5561180000000 1.0
C      1  0.5237530000000  0.5163150000000  0.4014720000000 1.0
C      1  0.5344200000000  0.4293750000000  0.4744500000000 1.0
C      1  0.4203940000000  0.5544380000000  0.5015910000000 1.0
C      1  0.4484940000000  0.5036570000000  0.5885900000000 1.0
C      1  0.5270630000000  0.3952020000000  0.4412480000000 1.0
C      1  0.5868020000000  0.4452890000000  0.5056240000000 1.0
C      1  0.4880670000000  0.5731820000000  0.4893130000000 1.0
C      1  0.5700120000000  0.5425030000000  0.4165680000000 1.0
C      1  0.5416440000000  0.4699400000000  0.5097860000000 1.0
C      1  0.5108010000000  0.4917380000000  0.5744540000000 1.0
C      1  0.4174430000000  0.5459880000000  0.4742640000000 1.0
C      1  0.4787680000000  0.4470110000000  0.4205510000000 1.0
C      1  0.4519630000000  0.4356670000000  0.4383560000000 1.0
C      1  0.4823570000000  0.4142390000000  0.5377200000000 1.0
C      1  0.5281000000000  0.4416180000000  0.4283280000000 1.0
C      1  0.5898100000000  0.5486870000000  0.4867270000000 1.0
C      1  0.4758790000000  0.5257470000000  0.4530850000000 1.0
C      1  0.5096370000000  0.5326740000000  0.4791970000000 1.0
C      1  0.4625280000000  0.4702940000000  0.4930950000000 1.0
C      1  0.5699500000000  0.4421710000000  0.4625760000000 1.0
C      1  0.5453180000000  0.4595340000000  0.4785060000000 1.0
C      1  0.4600630000000  0.5252730000000  0.4151520000000 1.0
C      1  0.4847820000000  0.4789110000000  0.4364430000000 1.0
C      1  0.5429870000000  0.4822730000000  0.5815210000000 1.0
C      1  0.4576190000000  0.4604350000000  0.5234150000000 1.0
C      1  0.5349020000000  0.5751410000000  0.5366050000000 1.0
C      1  0.4940350000000  0.4809090000000  0.5331360000000 1.0
C      1  0.5161400000000  0.4038050000000  0.5142350000000 1.0
C      1  0.5381830000000  0.5426720000000  0.4856220000000 1.0
C      1  0.4339100000000  0.4234380000000  0.5000760000000 1.0
C      1  0.5060060000000  0.4584850000000  0.4096130000000 1.0
C      1  0.4542350000000  0.5649050000000  0.5557400000000 1.0
C      1  0.4309050000000  0.4616620000000  0.4599270000000 1.0
C      1  0.5205670000000  0.5337650000000  0.5913830000000 1.0
C      1  0.4721950000000  0.5321630000000  0.5247680000000 1.0
C      1  0.4957130000000  0.5409040000000  0.6000020000000 1.0
C      1  0.5665070000000  0.5051590000000  0.5235910000000 1.0
C      1  0.4891750000000  0.4096610000000  0.4985790000000 1.0
C      1  0.4108480000000  0.4841360000000  0.4735560000000 1.0
C      1  0.5129460000000  0.5063450000000  0.5373840000000 1.0
C      1  0.4776350000000  0.5429010000000  0.4828660000000 1.0
C      1  0.5712690000000  0.4274200000000  0.4893590000000 1.0
C      1  0.4833400000000  0.4248470000000  0.4462990000000 1.0
C      1  0.4950170000000  0.4776590000000  0.5998980000000 1.0
C      1  0.4836550000000  0.5862730000000  0.5190730000000 1.0
C      1  0.4948510000000  0.5722190000000  0.5658400000000 1.0
C      1  0.4671040000000  0.4873300000000  0.6393140000000 1.0
C      1  0.5107920000000  0.5588260000000  0.5092780000000 1.0
C      1  0.4320570000000  0.4761930000000  0.4971110000000 1.0
C      1  0.5496370000000  0.5455170000000  0.5789370000000 1.0
C      1  0.5383450000000  0.5437810000000  0.4130690000000 1.0
C      1  0.4764480000000  0.4951020000000  0.6157480000000 1.0
C      1  0.4868970000000  0.4895450000000  0.4947690000000 1.0
C      1  0.5931300000000  0.4993720000000  0.5040510000000 1.0
C      1  0.4996300000000  0.6112410000000  0.4760620000000 1.0
C      1  0.5454480000000  0.5710100000000  0.4585760000000 1.0
C      1  0.4789570000000  0.4699000000000  0.5563210000000 1.0
C      1  0.4430210000000  0.4955920000000  0.4156760000000 1.0
C      1  0.5923810000000  0.5327150000000  0.5116430000000 1.0
C      1  0.4957400000000  0.5736110000000  0.4385010000000 1.0
C      1  0.4121400000000  0.5147170000000  0.4660420000000 1.0
C      1  0.4514230000000  0.5790820000000  0.4747020000000 1.0
C      1  0.4603290000000  0.4943840000000  0.5649580000000 1.0
C      1  0.4367380000000  0.5598980000000  0.4580260000000 1.0
C      1  0.5215390000000  0.4574710000000  0.5913860000000 1.0
C      1  0.5008960000000  0.5450470000000  0.4504540000000 1.0
C      1  0.5291900000000  0.5681830000000  0.4349410000000 1.0
C      1  0.4813430000000  0.5891880000000  0.4620710000000 1.0
C      1  0.5704640000000  0.5298790000000  0.5640860000000 1.0
C      1  0.5091700000000  0.5027300000000  0.4775050000000 1.0
C      1  0.5285880000000  0.4727720000000  0.5524120000000 1.0
C      1  0.5021070000000  0.5055470000000  0.4457920000000 1.0
C      1  0.5217020000000  0.4439460000000  0.5448870000000 1.0
C      1  0.4567850000000  0.5801140000000  0.5272210000000 1.0
C      1  0.4737800000000  0.5035950000000  0.5195040000000 1.0
C      1  0.4898750000000  0.4502080000000  0.5802540000000 1.0
C      1  0.5472380000000  0.5312740000000  0.5130480000000 1.0
C      1  0.4500490000000  0.4879040000000  0.5355040000000 1.0
C      1  0.5552660000000  0.4324840000000  0.5264920000000 1.0
C      1  0.5275300000000  0.4795360000000  0.4621610000000 1.0
C      1  0.5500780000000  0.5304030000000  0.4588400000000 1.0
END
