TITL C-2778422-5617-1083 0.000270153292581131 125000 -541.39335022007 0 0 94 (C1) n - 1
REM
REM in /home/nfs/bkarasulu/CARBON/AIRSS/Generating-Clusters/REBO/Only-C1/SD-CG/HFTN-CG
REM
REM
REM
REM
REM
REM ./C.cell (11c1c37f851c82e70ff6c80c92926a4b)
REM
REM compiler GCC version 9.2.1 20190827 (Red Hat 9.2.1-1)
REM options -cpp -mtune=generic -march=x86-64 -g -O0 -fpre-include=/usr/include/finclude/math-vector-fortran.h
REM seed 772534002 -1578874352 -275017696 1209712906 -1973452761 1652698887 265105736 1943302323 -1735548991 -937020734 1388278815 1625105016 21763784 -350416269 946409507 -1564315688 -1864455358 -350621697 -193543557 1966424830 -316081325 1073603842 -715990995 1694373702 -1110106640 1346794209 -1502689682 45815548 1980141929 1890373407 -697671653 -1829533625 -575691363
REM
CELL 1.54180   50.00000   50.00000   50.00000   90.00000   90.00000   90.00000
LATT -1
SFAC C  
C      1  0.5434820000000  0.4662570000000  0.5485540000000 1.0
C      1  0.5484000000000  0.5685210000000  0.4900170000000 1.0
C      1  0.5187140000000  0.5128350000000  0.4430540000000 1.0
C      1  0.5452720000000  0.5079110000000  0.5753690000000 1.0
C      1  0.5806900000000  0.4580380000000  0.4878970000000 1.0
C      1  0.4493720000000  0.5150030000000  0.5692900000000 1.0
C      1  0.5566760000000  0.5017420000000  0.4489230000000 1.0
C      1  0.5370710000000  0.5021740000000  0.4977520000000 1.0
C      1  0.4957600000000  0.3840530000000  0.5049530000000 1.0
C      1  0.4510850000000  0.4431420000000  0.4823210000000 1.0
C      1  0.4533770000000  0.5221560000000  0.4335980000000 1.0
C      1  0.5051710000000  0.4247040000000  0.4746600000000 1.0
C      1  0.4969870000000  0.4735250000000  0.4700570000000 1.0
C      1  0.4298110000000  0.5136140000000  0.4758640000000 1.0
C      1  0.4910040000000  0.4559710000000  0.5238530000000 1.0
C      1  0.5374100000000  0.4125700000000  0.4949170000000 1.0
C      1  0.4888200000000  0.4975270000000  0.5439900000000 1.0
C      1  0.4906620000000  0.5411920000000  0.4139000000000 1.0
C      1  0.4234090000000  0.4916240000000  0.5193950000000 1.0
C      1  0.5619600000000  0.5200090000000  0.5087690000000 1.0
C      1  0.5177520000000  0.5001880000000  0.5802200000000 1.0
C      1  0.5453950000000  0.4359260000000  0.5536230000000 1.0
C      1  0.4247390000000  0.5430010000000  0.4900180000000 1.0
C      1  0.5067780000000  0.4097420000000  0.5038310000000 1.0
C      1  0.4633510000000  0.5744010000000  0.4730560000000 1.0
C      1  0.5474390000000  0.5181270000000  0.5467800000000 1.0
C      1  0.4603190000000  0.4539630000000  0.5262290000000 1.0
C      1  0.5033990000000  0.4666510000000  0.4964250000000 1.0
C      1  0.4199650000000  0.4581020000000  0.5546310000000 1.0
C      1  0.5707310000000  0.4793420000000  0.5326180000000 1.0
C      1  0.4958270000000  0.5858380000000  0.5290550000000 1.0
C      1  0.4961920000000  0.5364880000000  0.5402920000000 1.0
C      1  0.4776150000000  0.5553530000000  0.4963140000000 1.0
C      1  0.4229270000000  0.4884980000000  0.4909860000000 1.0
C      1  0.5865960000000  0.5083510000000  0.4928620000000 1.0
C      1  0.4452190000000  0.5654890000000  0.5007210000000 1.0
C      1  0.5176460000000  0.5240710000000  0.4857970000000 1.0
C      1  0.4588620000000  0.4879880000000  0.5565510000000 1.0
C      1  0.4400220000000  0.4517370000000  0.4532040000000 1.0
C      1  0.4617480000000  0.4652160000000  0.4353590000000 1.0
C      1  0.5081920000000  0.4735340000000  0.5780260000000 1.0
C      1  0.5309190000000  0.4725280000000  0.5008770000000 1.0
C      1  0.5129270000000  0.4774410000000  0.5385230000000 1.0
C      1  0.4760380000000  0.5132260000000  0.4555660000000 1.0
C      1  0.4744140000000  0.5746510000000  0.4484230000000 1.0
C      1  0.5017410000000  0.4270910000000  0.5289700000000 1.0
C      1  0.5018540000000  0.5510520000000  0.5103790000000 1.0
C      1  0.4363000000000  0.5325220000000  0.5473690000000 1.0
C      1  0.4502470000000  0.4349290000000  0.5089390000000 1.0
C      1  0.5208070000000  0.5606740000000  0.4482400000000 1.0
C      1  0.5515260000000  0.5659060000000  0.5238740000000 1.0
C      1  0.5635310000000  0.4861800000000  0.5643580000000 1.0
C      1  0.5583720000000  0.5480510000000  0.4747310000000 1.0
C      1  0.5202450000000  0.4868310000000  0.4560510000000 1.0
C      1  0.5209630000000  0.4237310000000  0.5538780000000 1.0
C      1  0.4794440000000  0.5646720000000  0.5402310000000 1.0
C      1  0.4385800000000  0.4729660000000  0.5390570000000 1.0
C      1  0.5595100000000  0.4502390000000  0.4700630000000 1.0
C      1  0.4991970000000  0.4448600000000  0.5613250000000 1.0
C      1  0.4933380000000  0.4643840000000  0.4369130000000 1.0
C      1  0.4960990000000  0.5629150000000  0.4331990000000 1.0
C      1  0.5341740000000  0.5001760000000  0.5295150000000 1.0
C      1  0.4975650000000  0.5204240000000  0.5676670000000 1.0
C      1  0.4035090000000  0.5344810000000  0.5109400000000 1.0
C      1  0.4806450000000  0.5160740000000  0.5179060000000 1.0
C      1  0.5463150000000  0.4243130000000  0.4701300000000 1.0
C      1  0.5804380000000  0.4800200000000  0.5064650000000 1.0
C      1  0.5661800000000  0.5205320000000  0.4690360000000 1.0
C      1  0.4202550000000  0.4665420000000  0.4726110000000 1.0
C      1  0.4586910000000  0.4727110000000  0.4815610000000 1.0
C      1  0.4287690000000  0.5090320000000  0.4449540000000 1.0
C      1  0.4568050000000  0.5316420000000  0.4835380000000 1.0
C      1  0.5240890000000  0.5348570000000  0.4590790000000 1.0
C      1  0.4526690000000  0.5211130000000  0.5214140000000 1.0
C      1  0.5117110000000  0.4833770000000  0.4172420000000 1.0
C      1  0.5334440000000  0.5389610000000  0.5119270000000 1.0
C      1  0.5485790000000  0.4539230000000  0.5111850000000 1.0
C      1  0.4780960000000  0.4678280000000  0.5697330000000 1.0
C      1  0.5030330000000  0.4375520000000  0.4539580000000 1.0
C      1  0.4140180000000  0.5170920000000  0.5297420000000 1.0
C      1  0.5224450000000  0.5771080000000  0.5107700000000 1.0
C      1  0.5359100000000  0.5822960000000  0.4546190000000 1.0
C      1  0.5419350000000  0.4877680000000  0.4225080000000 1.0
C      1  0.5513800000000  0.4270830000000  0.5150620000000 1.0
C      1  0.4628180000000  0.5363710000000  0.4114610000000 1.0
C      1  0.5466110000000  0.4726460000000  0.4589500000000 1.0
C      1  0.4542090000000  0.4890090000000  0.4555960000000 1.0
C      1  0.4515140000000  0.5593590000000  0.5329040000000 1.0
C      1  0.4711830000000  0.5261330000000  0.5834200000000 1.0
C      1  0.6131760000000  0.5158950000000  0.4914780000000 1.0
C      1  0.5651600000000  0.5395300000000  0.5356690000000 1.0
C      1  0.5051960000000  0.5159940000000  0.4164880000000 1.0
C      1  0.4881700000000  0.5180300000000  0.4870160000000 1.0
C      1  0.4894100000000  0.6127090000000  0.5307610000000 1.0
END
