TITL C-2778431-5191-1343 -0.115747294392177 125000 -1020.54170158773 0 0 176 (C1) n - 1
REM
REM in /home/nfs/bkarasulu/CARBON/AIRSS/Generating-Clusters/REBO/Only-C1/SD-CG/HFTN-CG
REM
REM
REM
REM
REM
REM ./C.cell (11c1c37f851c82e70ff6c80c92926a4b)
REM
REM compiler GCC version 9.2.1 20190827 (Red Hat 9.2.1-1)
REM options -cpp -mtune=generic -march=x86-64 -g -O0 -fpre-include=/usr/include/finclude/math-vector-fortran.h
REM seed -421201238 325305685 -753406027 -1701485591 209888655 1714642991 1100542322 1869644552 849197703 517569211 263433281 2056280737 588856911 -1107739381 -907301232 -1573459144 837239387 -851560575 -210515318 -1499732845 -202794373 575045600 -17832265 1780288000 -338542650 -1193468718 992266126 935218969 2044780339 -734030413 1049907289 -1330602988 825982633
REM
CELL 1.54180   50.00000   50.00000   50.00000   90.00000   90.00000   90.00000
LATT -1
SFAC C  
C      1  0.4542560000000  0.5531020000000  0.5152560000000 1.0
C      1  0.4254070000000  0.5396250000000  0.4622240000000 1.0
C      1  0.5323030000000  0.5348210000000  0.5285330000000 1.0
C      1  0.4160060000000  0.5064440000000  0.5550770000000 1.0
C      1  0.4296700000000  0.4868930000000  0.5722560000000 1.0
C      1  0.4903020000000  0.4875100000000  0.5644990000000 1.0
C      1  0.5511980000000  0.4915490000000  0.5719980000000 1.0
C      1  0.5618240000000  0.4977570000000  0.4983650000000 1.0
C      1  0.4345200000000  0.4605390000000  0.5577770000000 1.0
C      1  0.5326530000000  0.5857860000000  0.4681600000000 1.0
C      1  0.4160760000000  0.4340090000000  0.5672150000000 1.0
C      1  0.5292700000000  0.5805860000000  0.4204110000000 1.0
C      1  0.5642580000000  0.5340250000000  0.5203110000000 1.0
C      1  0.4582470000000  0.4108550000000  0.4921380000000 1.0
C      1  0.5732540000000  0.4234520000000  0.4763980000000 1.0
C      1  0.5425130000000  0.5185870000000  0.5767890000000 1.0
C      1  0.5025460000000  0.4428280000000  0.5823610000000 1.0
C      1  0.5629520000000  0.5787040000000  0.5577070000000 1.0
C      1  0.5111310000000  0.4401680000000  0.4696790000000 1.0
C      1  0.5028790000000  0.5822110000000  0.5216320000000 1.0
C      1  0.5621100000000  0.4726460000000  0.5492970000000 1.0
C      1  0.3871620000000  0.5371510000000  0.4909740000000 1.0
C      1  0.5022720000000  0.4771710000000  0.5376070000000 1.0
C      1  0.5013060000000  0.5682150000000  0.4086640000000 1.0
C      1  0.5020120000000  0.5853440000000  0.5546980000000 1.0
C      1  0.5638570000000  0.5581000000000  0.4823650000000 1.0
C      1  0.5240570000000  0.4848500000000  0.4448470000000 1.0
C      1  0.5048070000000  0.5620950000000  0.5799440000000 1.0
C      1  0.5130650000000  0.5699980000000  0.4830060000000 1.0
C      1  0.5508820000000  0.4490520000000  0.4383790000000 1.0
C      1  0.5057910000000  0.5385530000000  0.6032310000000 1.0
C      1  0.6052810000000  0.4334160000000  0.5122230000000 1.0
C      1  0.5924590000000  0.5011300000000  0.4859640000000 1.0
C      1  0.5587590000000  0.5102830000000  0.4667150000000 1.0
C      1  0.4143870000000  0.5147860000000  0.4452560000000 1.0
C      1  0.4390590000000  0.5718920000000  0.5650950000000 1.0
C      1  0.4306750000000  0.5673060000000  0.5359880000000 1.0
C      1  0.5122210000000  0.4257500000000  0.5209160000000 1.0
C      1  0.4004510000000  0.5060400000000  0.5301730000000 1.0
C      1  0.5752110000000  0.5715410000000  0.5287660000000 1.0
C      1  0.5439220000000  0.4956040000000  0.4049370000000 1.0
C      1  0.5714970000000  0.5166120000000  0.5484710000000 1.0
C      1  0.5057340000000  0.5418090000000  0.3931350000000 1.0
C      1  0.5054050000000  0.4795280000000  0.4707160000000 1.0
C      1  0.5667620000000  0.5058430000000  0.4197360000000 1.0
C      1  0.5938330000000  0.5518870000000  0.4944810000000 1.0
C      1  0.5306820000000  0.5398840000000  0.5592610000000 1.0
C      1  0.4223290000000  0.4454300000000  0.4778430000000 1.0
C      1  0.4392350000000  0.4273810000000  0.5146960000000 1.0
C      1  0.4499510000000  0.5039920000000  0.6018660000000 1.0
C      1  0.5236610000000  0.4620620000000  0.4896460000000 1.0
C      1  0.5239290000000  0.5197880000000  0.3995850000000 1.0
C      1  0.4381160000000  0.5386900000000  0.5627400000000 1.0
C      1  0.5892630000000  0.4989390000000  0.5623240000000 1.0
C      1  0.4518930000000  0.4496160000000  0.4506520000000 1.0
C      1  0.5205070000000  0.5960510000000  0.4437780000000 1.0
C      1  0.4590350000000  0.5745980000000  0.4574400000000 1.0
C      1  0.5397940000000  0.3858440000000  0.5001050000000 1.0
C      1  0.6037890000000  0.4891940000000  0.5223490000000 1.0
C      1  0.4870380000000  0.4931740000000  0.4003400000000 1.0
C      1  0.4293030000000  0.4657080000000  0.4321540000000 1.0
C      1  0.4497770000000  0.4708770000000  0.5936250000000 1.0
C      1  0.5261790000000  0.4492000000000  0.4225980000000 1.0
C      1  0.5554780000000  0.4256850000000  0.4546980000000 1.0
C      1  0.4437650000000  0.4237340000000  0.4655850000000 1.0
C      1  0.3838360000000  0.4932050000000  0.5112160000000 1.0
C      1  0.4526160000000  0.5245430000000  0.5015260000000 1.0
C      1  0.5539260000000  0.4550150000000  0.5145020000000 1.0
C      1  0.5333390000000  0.4125990000000  0.5416120000000 1.0
C      1  0.4432380000000  0.4802370000000  0.4803310000000 1.0
C      1  0.5798690000000  0.5492200000000  0.5536930000000 1.0
C      1  0.5334290000000  0.4089720000000  0.4608940000000 1.0
C      1  0.4793420000000  0.5173760000000  0.6067960000000 1.0
C      1  0.4762280000000  0.4249790000000  0.4308240000000 1.0
C      1  0.5636500000000  0.5344500000000  0.4244990000000 1.0
C      1  0.5352110000000  0.5697660000000  0.5699090000000 1.0
C      1  0.6130540000000  0.4691580000000  0.4964690000000 1.0
C      1  0.4353500000000  0.5304560000000  0.4233470000000 1.0
C      1  0.4980660000000  0.5460160000000  0.5515190000000 1.0
C      1  0.5377540000000  0.4740330000000  0.5905620000000 1.0
C      1  0.4935970000000  0.4910640000000  0.5984440000000 1.0
C      1  0.4796470000000  0.4648510000000  0.5860190000000 1.0
C      1  0.5608650000000  0.4080550000000  0.4978110000000 1.0
C      1  0.5075010000000  0.6077150000000  0.5025850000000 1.0
C      1  0.4548960000000  0.4474320000000  0.4179360000000 1.0
C      1  0.4102760000000  0.5544380000000  0.4874580000000 1.0
C      1  0.5163170000000  0.4768850000000  0.4066070000000 1.0
C      1  0.4655300000000  0.3571560000000  0.4855650000000 1.0
C      1  0.5439780000000  0.5389020000000  0.4677730000000 1.0
C      1  0.4825520000000  0.4213700000000  0.5314550000000 1.0
C      1  0.5939200000000  0.5180520000000  0.5154700000000 1.0
C      1  0.5288490000000  0.5199760000000  0.6026510000000 1.0
C      1  0.4476550000000  0.5125310000000  0.5474130000000 1.0
C      1  0.4634940000000  0.5617690000000  0.5828870000000 1.0
C      1  0.4526060000000  0.4548620000000  0.4901270000000 1.0
C      1  0.5575900000000  0.4251980000000  0.5234580000000 1.0
C      1  0.5044470000000  0.5567990000000  0.4398120000000 1.0
C      1  0.4474450000000  0.4213160000000  0.5708520000000 1.0
C      1  0.5204710000000  0.4561430000000  0.5207400000000 1.0
C      1  0.5972750000000  0.4748100000000  0.4665910000000 1.0
C      1  0.4748380000000  0.5468910000000  0.4522180000000 1.0
C      1  0.5718070000000  0.5821740000000  0.4624050000000 1.0
C      1  0.3832350000000  0.5088910000000  0.4872650000000 1.0
C      1  0.4953230000000  0.4722680000000  0.4331250000000 1.0
C      1  0.5347060000000  0.3834510000000  0.5280630000000 1.0
C      1  0.5063100000000  0.4335870000000  0.4381220000000 1.0
C      1  0.4227330000000  0.4750800000000  0.5190160000000 1.0
C      1  0.4778610000000  0.4923750000000  0.4961140000000 1.0
C      1  0.5839080000000  0.5284180000000  0.4579950000000 1.0
C      1  0.5958750000000  0.4436630000000  0.4811790000000 1.0
C      1  0.4667770000000  0.4029680000000  0.4540890000000 1.0
C      1  0.4653080000000  0.5499390000000  0.5448560000000 1.0
C      1  0.5002810000000  0.4044850000000  0.4553180000000 1.0
C      1  0.5219790000000  0.4912280000000  0.6074140000000 1.0
C      1  0.5189630000000  0.5037000000000  0.5245900000000 1.0
C      1  0.5083860000000  0.5025220000000  0.4937680000000 1.0
C      1  0.3992460000000  0.4954900000000  0.4634110000000 1.0
C      1  0.5821750000000  0.4660040000000  0.5111350000000 1.0
C      1  0.5537950000000  0.5964590000000  0.4875720000000 1.0
C      1  0.4805890000000  0.5255770000000  0.3982690000000 1.0
C      1  0.5368640000000  0.6014500000000  0.5130750000000 1.0
C      1  0.4734330000000  0.5355570000000  0.5810420000000 1.0
C      1  0.5544820000000  0.4787350000000  0.4527620000000 1.0
C      1  0.4918670000000  0.5243190000000  0.5289010000000 1.0
C      1  0.4336060000000  0.5071720000000  0.5192650000000 1.0
C      1  0.4763520000000  0.4716670000000  0.5188710000000 1.0
C      1  0.4302820000000  0.5706680000000  0.4558290000000 1.0
C      1  0.4604360000000  0.5477830000000  0.4147380000000 1.0
C      1  0.5835090000000  0.4862090000000  0.4376650000000 1.0
C      1  0.4326270000000  0.5226450000000  0.5897660000000 1.0
C      1  0.4755070000000  0.5222270000000  0.4305830000000 1.0
C      1  0.5172500000000  0.4171930000000  0.4910540000000 1.0
C      1  0.5136140000000  0.5300680000000  0.4807420000000 1.0
C      1  0.5210490000000  0.5597750000000  0.5113570000000 1.0
C      1  0.4856820000000  0.5350560000000  0.4988240000000 1.0
C      1  0.4609950000000  0.6073060000000  0.4925500000000 1.0
C      1  0.5776010000000  0.5560910000000  0.4449040000000 1.0
C      1  0.6004000000000  0.5496010000000  0.5264160000000 1.0
C      1  0.6042230000000  0.4429040000000  0.5352180000000 1.0
C      1  0.4614520000000  0.4788060000000  0.4129250000000 1.0
C      1  0.5468790000000  0.4423410000000  0.5517330000000 1.0
C      1  0.5103360000000  0.3863110000000  0.4827840000000 1.0
C      1  0.4500410000000  0.5927520000000  0.5134010000000 1.0
C      1  0.5291370000000  0.4496200000000  0.5780180000000 1.0
C      1  0.5946560000000  0.4696890000000  0.5486590000000 1.0
C      1  0.4762610000000  0.5131370000000  0.5556270000000 1.0
C      1  0.4700390000000  0.5634530000000  0.4880390000000 1.0
C      1  0.3854110000000  0.4644310000000  0.5095980000000 1.0
C      1  0.4347620000000  0.4967540000000  0.4245290000000 1.0
C      1  0.4912920000000  0.5961240000000  0.4478850000000 1.0
C      1  0.4538030000000  0.5294770000000  0.4697280000000 1.0
C      1  0.4787340000000  0.4610520000000  0.4604860000000 1.0
C      1  0.5526790000000  0.5634380000000  0.5099430000000 1.0
C      1  0.6046810000000  0.5300810000000  0.4788800000000 1.0
C      1  0.5342390000000  0.5921130000000  0.5442020000000 1.0
C      1  0.4364840000000  0.4426240000000  0.5932870000000 1.0
C      1  0.4166520000000  0.4867910000000  0.4893590000000 1.0
C      1  0.5189880000000  0.5112220000000  0.4313250000000 1.0
C      1  0.4478860000000  0.4568190000000  0.5294510000000 1.0
C      1  0.5097330000000  0.5286200000000  0.4502520000000 1.0
C      1  0.5386640000000  0.5526000000000  0.4373130000000 1.0
C      1  0.4718550000000  0.4949450000000  0.4405340000000 1.0
C      1  0.4224340000000  0.5744260000000  0.5052580000000 1.0
C      1  0.4731410000000  0.5815540000000  0.5358530000000 1.0
C      1  0.5531470000000  0.4699330000000  0.4839900000000 1.0
C      1  0.4731910000000  0.5770900000000  0.4262620000000 1.0
C      1  0.4102550000000  0.4646330000000  0.4570530000000 1.0
C      1  0.5522480000000  0.4969060000000  0.5277700000000 1.0
C      1  0.4814480000000  0.4316330000000  0.4777840000000 1.0
C      1  0.4670820000000  0.4162580000000  0.5523240000000 1.0
C      1  0.4095060000000  0.4495290000000  0.5376440000000 1.0
C      1  0.4871220000000  0.5919540000000  0.4799270000000 1.0
C      1  0.4776940000000  0.4414610000000  0.5082790000000 1.0
C      1  0.4626720000000  0.4996760000000  0.4686520000000 1.0
C      1  0.4770940000000  0.3847520000000  0.4810310000000 1.0
C      1  0.4086400000000  0.4401510000000  0.5057180000000 1.0
END
