TITL C-2778430-5657-518 -0.00115540948164432 125000 -838.44078856823 0 0 143 (C1) n - 1
REM
REM in /home/nfs/bkarasulu/CARBON/AIRSS/Generating-Clusters/REBO/Only-C1/SD-CG/HFTN-CG
REM
REM
REM
REM
REM
REM ./C.cell (11c1c37f851c82e70ff6c80c92926a4b)
REM
REM compiler GCC version 9.2.1 20190827 (Red Hat 9.2.1-1)
REM options -cpp -mtune=generic -march=x86-64 -g -O0 -fpre-include=/usr/include/finclude/math-vector-fortran.h
REM seed 236049232 1621518038 54219759 -1249301599 1530348194 -1791513203 -509500718 -1726962551 346723186 919174161 -652965501 86685084 -1116263796 652077959 -1153813688 -1499435572 -29427029 -65574360 -846182944 -196078661 -2140757777 -58495027 330517271 -730797992 360684078 -1835331816 537279450 1040800821 904112031 -1419005951 -2084541728 936533872 676250133
REM
CELL 1.54180   50.00000   50.00000   50.00000   90.00000   90.00000   90.00000
LATT -1
SFAC C  
C      1  0.4651570000000  0.4325620000000  0.5288900000000 1.0
C      1  0.5541930000000  0.4297610000000  0.5236060000000 1.0
C      1  0.5784560000000  0.4913100000000  0.5384460000000 1.0
C      1  0.5480800000000  0.4872510000000  0.4144940000000 1.0
C      1  0.5351850000000  0.5161940000000  0.5880500000000 1.0
C      1  0.4693620000000  0.5199060000000  0.5051640000000 1.0
C      1  0.4540640000000  0.4688150000000  0.5684320000000 1.0
C      1  0.5556280000000  0.5698320000000  0.5250050000000 1.0
C      1  0.4769050000000  0.5298410000000  0.4130750000000 1.0
C      1  0.4307520000000  0.5210880000000  0.4673740000000 1.0
C      1  0.5593140000000  0.4373100000000  0.5554440000000 1.0
C      1  0.4980850000000  0.4524660000000  0.5732810000000 1.0
C      1  0.4524040000000  0.5808390000000  0.5250100000000 1.0
C      1  0.4441090000000  0.4625720000000  0.4401960000000 1.0
C      1  0.4658090000000  0.5507410000000  0.4606420000000 1.0
C      1  0.4647130000000  0.4163100000000  0.4454830000000 1.0
C      1  0.4334930000000  0.4882070000000  0.4346870000000 1.0
C      1  0.5434650000000  0.5176350000000  0.4292290000000 1.0
C      1  0.5508010000000  0.4535600000000  0.4160630000000 1.0
C      1  0.4324650000000  0.4696530000000  0.5416510000000 1.0
C      1  0.5771140000000  0.5238700000000  0.5364810000000 1.0
C      1  0.4726240000000  0.4924130000000  0.4001670000000 1.0
C      1  0.6000230000000  0.5166980000000  0.5005250000000 1.0
C      1  0.5459410000000  0.4993380000000  0.5316920000000 1.0
C      1  0.4087230000000  0.4799030000000  0.4807300000000 1.0
C      1  0.4173800000000  0.4534250000000  0.5675170000000 1.0
C      1  0.4953810000000  0.5645530000000  0.5037860000000 1.0
C      1  0.5777750000000  0.4932420000000  0.4272050000000 1.0
C      1  0.4528570000000  0.5042080000000  0.5866440000000 1.0
C      1  0.4629090000000  0.4164240000000  0.5920830000000 1.0
C      1  0.4547630000000  0.4720210000000  0.5165140000000 1.0
C      1  0.4582040000000  0.5514550000000  0.6000090000000 1.0
C      1  0.5367460000000  0.5476250000000  0.5428760000000 1.0
C      1  0.4710520000000  0.5599960000000  0.4283360000000 1.0
C      1  0.4100410000000  0.4620320000000  0.5097520000000 1.0
C      1  0.5282270000000  0.4492780000000  0.5113610000000 1.0
C      1  0.4792130000000  0.4461520000000  0.4112190000000 1.0
C      1  0.5903070000000  0.4683740000000  0.4346380000000 1.0
C      1  0.5315780000000  0.5612240000000  0.5726310000000 1.0
C      1  0.5167700000000  0.4736200000000  0.4125690000000 1.0
C      1  0.5278410000000  0.5802390000000  0.4514680000000 1.0
C      1  0.5792030000000  0.4781410000000  0.4813840000000 1.0
C      1  0.5289180000000  0.5461420000000  0.4169580000000 1.0
C      1  0.5150730000000  0.5184510000000  0.4104330000000 1.0
C      1  0.4928090000000  0.5282100000000  0.4420950000000 1.0
C      1  0.4729640000000  0.4569480000000  0.4402250000000 1.0
C      1  0.4832820000000  0.5075250000000  0.4599340000000 1.0
C      1  0.5644860000000  0.5612100000000  0.5681200000000 1.0
C      1  0.5605110000000  0.4636390000000  0.4672510000000 1.0
C      1  0.4999220000000  0.4902150000000  0.5364540000000 1.0
C      1  0.5722050000000  0.4458400000000  0.4334240000000 1.0
C      1  0.4400990000000  0.5314610000000  0.5919370000000 1.0
C      1  0.4198540000000  0.5163360000000  0.5684470000000 1.0
C      1  0.4913040000000  0.5306940000000  0.5677580000000 1.0
C      1  0.4855260000000  0.4213140000000  0.4275130000000 1.0
C      1  0.4248330000000  0.5515580000000  0.4595940000000 1.0
C      1  0.5738400000000  0.5351110000000  0.5643730000000 1.0
C      1  0.4942590000000  0.5442490000000  0.4786530000000 1.0
C      1  0.3996360000000  0.5278160000000  0.5054520000000 1.0
C      1  0.5191190000000  0.5234830000000  0.4767390000000 1.0
C      1  0.4030040000000  0.5439710000000  0.4845590000000 1.0
C      1  0.5235200000000  0.4407980000000  0.4188420000000 1.0
C      1  0.4553360000000  0.5073000000000  0.4789110000000 1.0
C      1  0.4463670000000  0.5302760000000  0.5529780000000 1.0
C      1  0.4417050000000  0.4817890000000  0.4882710000000 1.0
C      1  0.4772110000000  0.5677520000000  0.5296920000000 1.0
C      1  0.4681470000000  0.4651230000000  0.3930300000000 1.0
C      1  0.4602780000000  0.4011020000000  0.4723650000000 1.0
C      1  0.5141770000000  0.4215840000000  0.4417050000000 1.0
C      1  0.4994850000000  0.5063280000000  0.5090460000000 1.0
C      1  0.4981590000000  0.4831030000000  0.5773910000000 1.0
C      1  0.5466740000000  0.5770540000000  0.4712820000000 1.0
C      1  0.4381100000000  0.4488350000000  0.4873880000000 1.0
C      1  0.5037140000000  0.5581990000000  0.4506880000000 1.0
C      1  0.4877790000000  0.4578730000000  0.5340550000000 1.0
C      1  0.5006840000000  0.5925310000000  0.4919920000000 1.0
C      1  0.4425640000000  0.5306600000000  0.5231930000000 1.0
C      1  0.5833370000000  0.5392230000000  0.4542550000000 1.0
C      1  0.4999280000000  0.4970670000000  0.4044420000000 1.0
C      1  0.4696300000000  0.4449780000000  0.5781500000000 1.0
C      1  0.4845760000000  0.4112980000000  0.5150370000000 1.0
C      1  0.4961800000000  0.4591990000000  0.4575580000000 1.0
C      1  0.4171370000000  0.4980940000000  0.4557540000000 1.0
C      1  0.4286160000000  0.4458460000000  0.4571800000000 1.0
C      1  0.4843470000000  0.5505000000000  0.5932330000000 1.0
C      1  0.5441100000000  0.5502710000000  0.4923250000000 1.0
C      1  0.4578280000000  0.4210120000000  0.5588300000000 1.0
C      1  0.5616600000000  0.4344960000000  0.4593230000000 1.0
C      1  0.5435970000000  0.4723940000000  0.5662480000000 1.0
C      1  0.5809720000000  0.4630810000000  0.5564930000000 1.0
C      1  0.5050080000000  0.4216680000000  0.4737090000000 1.0
C      1  0.5456060000000  0.5116750000000  0.4604060000000 1.0
C      1  0.5004290000000  0.5900830000000  0.4632430000000 1.0
C      1  0.5112400000000  0.4156720000000  0.5245490000000 1.0
C      1  0.5405090000000  0.4801990000000  0.4570590000000 1.0
C      1  0.5356280000000  0.5965900000000  0.5341030000000 1.0
C      1  0.5220840000000  0.5511520000000  0.5139260000000 1.0
C      1  0.4454930000000  0.5392710000000  0.4354690000000 1.0
C      1  0.4903720000000  0.4891710000000  0.4838450000000 1.0
C      1  0.4132750000000  0.5175840000000  0.5350050000000 1.0
C      1  0.4634750000000  0.4355150000000  0.4737060000000 1.0
C      1  0.5057930000000  0.4497580000000  0.4888640000000 1.0
C      1  0.5305870000000  0.5132940000000  0.5047680000000 1.0
C      1  0.4357840000000  0.5594930000000  0.5099850000000 1.0
C      1  0.5615190000000  0.5254410000000  0.5061370000000 1.0
C      1  0.5095920000000  0.4371530000000  0.5449230000000 1.0
C      1  0.4792420000000  0.5034910000000  0.5771280000000 1.0
C      1  0.4756750000000  0.4614130000000  0.4921940000000 1.0
C      1  0.5836820000000  0.5185180000000  0.4371220000000 1.0
C      1  0.6033550000000  0.4936430000000  0.5171340000000 1.0
C      1  0.4286090000000  0.5739680000000  0.4818770000000 1.0
C      1  0.5704400000000  0.4874890000000  0.5771850000000 1.0
C      1  0.4504650000000  0.5095450000000  0.4194680000000 1.0
C      1  0.5306220000000  0.4429910000000  0.5686740000000 1.0
C      1  0.5194770000000  0.5177280000000  0.5425220000000 1.0
C      1  0.4559440000000  0.5457760000000  0.4891420000000 1.0
C      1  0.4299870000000  0.4303210000000  0.5477090000000 1.0
C      1  0.4335800000000  0.4384070000000  0.5169290000000 1.0
C      1  0.5177230000000  0.4708890000000  0.4444170000000 1.0
C      1  0.3963150000000  0.4976690000000  0.5049100000000 1.0
C      1  0.4068500000000  0.4855470000000  0.5332040000000 1.0
C      1  0.4264760000000  0.4844480000000  0.5782820000000 1.0
C      1  0.5802610000000  0.5607500000000  0.5056860000000 1.0
C      1  0.5965530000000  0.5408590000000  0.5172720000000 1.0
C      1  0.5463530000000  0.4675910000000  0.5329100000000 1.0
C      1  0.5240120000000  0.4920850000000  0.5792160000000 1.0
C      1  0.5231060000000  0.6048140000000  0.5063550000000 1.0
C      1  0.5637800000000  0.5150860000000  0.5825970000000 1.0
C      1  0.5738010000000  0.5098580000000  0.4796250000000 1.0
C      1  0.5163530000000  0.5406430000000  0.5870360000000 1.0
C      1  0.5920040000000  0.4699850000000  0.5046640000000 1.0
C      1  0.5754640000000  0.5513630000000  0.4775240000000 1.0
C      1  0.5469910000000  0.5878050000000  0.5596630000000 1.0
C      1  0.4697010000000  0.4826700000000  0.5444540000000 1.0
C      1  0.4847080000000  0.4048660000000  0.4880920000000 1.0
C      1  0.5764640000000  0.4541580000000  0.5239610000000 1.0
C      1  0.4475830000000  0.6055950000000  0.5105030000000 1.0
C      1  0.5345920000000  0.4173260000000  0.5000360000000 1.0
C      1  0.5374670000000  0.4180960000000  0.4666490000000 1.0
C      1  0.4347600000000  0.6008710000000  0.4857430000000 1.0
C      1  0.4975580000000  0.5434870000000  0.5376580000000 1.0
C      1  0.5490580000000  0.5894990000000  0.4979400000000 1.0
C      1  0.5000070000000  0.5550100000000  0.4114410000000 1.0
END
