TITL C-2778431-5191-1368 0.0693276235373571 125000 -241.833200882856 0 0 44 (C1) n - 1
REM
REM in /home/nfs/bkarasulu/CARBON/AIRSS/Generating-Clusters/REBO/Only-C1/SD-CG/HFTN-CG
REM
REM
REM
REM
REM
REM ./C.cell (11c1c37f851c82e70ff6c80c92926a4b)
REM
REM compiler GCC version 9.2.1 20190827 (Red Hat 9.2.1-1)
REM options -cpp -mtune=generic -march=x86-64 -g -O0 -fpre-include=/usr/include/finclude/math-vector-fortran.h
REM seed -154519473 -18203459 652557546 885915552 -322871300 -1258244870 318208206 -1854668420 -627228956 -1573904823 554650089 -1089720501 -789959936 1775101030 -1502163962 1198804954 -632578301 1212588673 618955598 2098419306 1512246829 -339408279 45572847 701011302 1971628849 1213405177 -1375321056 -1002398823 2011403159 1439360239 -21503952 -436455239 301778090
REM
CELL 1.54180   50.00000   50.00000   50.00000   90.00000   90.00000   90.00000
LATT -1
SFAC C  
C      1  0.4867600000000  0.5115810000000  0.5660970000000 1.0
C      1  0.5936580000000  0.4298180000000  0.5117850000000 1.0
C      1  0.4973800000000  0.5322620000000  0.3985830000000 1.0
C      1  0.5079550000000  0.5205740000000  0.6150770000000 1.0
C      1  0.4257850000000  0.4978040000000  0.4981020000000 1.0
C      1  0.4280270000000  0.5068070000000  0.5237910000000 1.0
C      1  0.4050760000000  0.4626650000000  0.4373160000000 1.0
C      1  0.5435020000000  0.5314810000000  0.4559600000000 1.0
C      1  0.5550040000000  0.3883420000000  0.5569780000000 1.0
C      1  0.6148370000000  0.4438660000000  0.4916980000000 1.0
C      1  0.6369150000000  0.3933850000000  0.5058460000000 1.0
C      1  0.4362870000000  0.4885430000000  0.4737820000000 1.0
C      1  0.4587270000000  0.5596840000000  0.5279670000000 1.0
C      1  0.5188330000000  0.4976910000000  0.5194450000000 1.0
C      1  0.5230250000000  0.5389330000000  0.4108690000000 1.0
C      1  0.4635440000000  0.4931890000000  0.4690690000000 1.0
C      1  0.5433420000000  0.5521170000000  0.3987980000000 1.0
C      1  0.4975360000000  0.5160410000000  0.4435500000000 1.0
C      1  0.5479020000000  0.3681250000000  0.5720670000000 1.0
C      1  0.5697980000000  0.4304580000000  0.5255430000000 1.0
C      1  0.5529480000000  0.4526860000000  0.5235270000000 1.0
C      1  0.5622200000000  0.4088850000000  0.5416450000000 1.0
C      1  0.4203190000000  0.4753030000000  0.4551240000000 1.0
C      1  0.4821600000000  0.5182570000000  0.4190230000000 1.0
C      1  0.4976920000000  0.5162190000000  0.5913590000000 1.0
C      1  0.4591350000000  0.5138940000000  0.5616400000000 1.0
C      1  0.5029390000000  0.5045050000000  0.5443690000000 1.0
C      1  0.5287910000000  0.5235010000000  0.5008800000000 1.0
C      1  0.4430340000000  0.5326260000000  0.5388490000000 1.0
C      1  0.5076930000000  0.5651550000000  0.5083180000000 1.0
C      1  0.5370470000000  0.4736630000000  0.5216240000000 1.0
C      1  0.5062530000000  0.5043750000000  0.4892270000000 1.0
C      1  0.5536080000000  0.5641860000000  0.4931780000000 1.0
C      1  0.4389050000000  0.4945640000000  0.5494780000000 1.0
C      1  0.4087190000000  0.5786050000000  0.5461560000000 1.0
C      1  0.4296050000000  0.5629190000000  0.5396910000000 1.0
C      1  0.5308370000000  0.5512760000000  0.5005300000000 1.0
C      1  0.4894210000000  0.5037980000000  0.4676340000000 1.0
C      1  0.3883780000000  0.5938830000000  0.5524520000000 1.0
C      1  0.3900760000000  0.4502290000000  0.4197900000000 1.0
C      1  0.4894900000000  0.5379660000000  0.3733880000000 1.0
C      1  0.5231120000000  0.5290180000000  0.4383470000000 1.0
C      1  0.4826260000000  0.5667010000000  0.5175870000000 1.0
C      1  0.6210970000000  0.4144210000000  0.5038620000000 1.0
END
