TITL C-2778422-5617-137 0.00868606685470241 125000 -1091.64562559446 0 0 190 (C1) n - 1
REM
REM in /home/nfs/bkarasulu/CARBON/AIRSS/Generating-Clusters/REBO/Only-C1/SD-CG/HFTN-CG
REM
REM
REM
REM
REM
REM ./C.cell (11c1c37f851c82e70ff6c80c92926a4b)
REM
REM compiler GCC version 9.2.1 20190827 (Red Hat 9.2.1-1)
REM options -cpp -mtune=generic -march=x86-64 -g -O0 -fpre-include=/usr/include/finclude/math-vector-fortran.h
REM seed 778479591 -549831172 651386118 700367663 -1145822476 1976196156 -188593771 -500660444 -202230058 2062303962 623048760 -1298482608 -560246159 2027687098 1774507142 2092485316 1720432722 -1612368078 1459606135 661196103 1020917711 -1608782468 775757154 949241400 -17108883 -1641211059 1835943972 -912476814 -1287256208 1562893220 539665013 1277140825 -244637423
REM
CELL 1.54180   50.00000   50.00000   50.00000   90.00000   90.00000   90.00000
LATT -1
SFAC C  
C      1  0.5160010000000  0.3921660000000  0.4696910000000 1.0
C      1  0.5419740000000  0.4453350000000  0.4117550000000 1.0
C      1  0.4489150000000  0.5575070000000  0.4918900000000 1.0
C      1  0.5516910000000  0.4727540000000  0.4097980000000 1.0
C      1  0.5708330000000  0.4925010000000  0.4668980000000 1.0
C      1  0.4465830000000  0.4237970000000  0.4624210000000 1.0
C      1  0.5210980000000  0.5901790000000  0.5660300000000 1.0
C      1  0.5384490000000  0.4841820000000  0.6111950000000 1.0
C      1  0.4034510000000  0.4533160000000  0.4763470000000 1.0
C      1  0.5396060000000  0.3916170000000  0.4888050000000 1.0
C      1  0.5372120000000  0.5468900000000  0.5974190000000 1.0
C      1  0.5923590000000  0.5151990000000  0.5370690000000 1.0
C      1  0.4622220000000  0.4875220000000  0.5297040000000 1.0
C      1  0.4678450000000  0.5340300000000  0.4585090000000 1.0
C      1  0.4444680000000  0.4353740000000  0.5471880000000 1.0
C      1  0.4081290000000  0.4442370000000  0.5147090000000 1.0
C      1  0.4930840000000  0.4738630000000  0.5824870000000 1.0
C      1  0.5618560000000  0.5398790000000  0.4131040000000 1.0
C      1  0.4706290000000  0.4559880000000  0.4509330000000 1.0
C      1  0.5136510000000  0.4624290000000  0.6070920000000 1.0
C      1  0.4954350000000  0.5454360000000  0.4582710000000 1.0
C      1  0.4368360000000  0.4681440000000  0.5536650000000 1.0
C      1  0.5269840000000  0.4956150000000  0.4146540000000 1.0
C      1  0.6084000000000  0.4764400000000  0.5002750000000 1.0
C      1  0.4832460000000  0.6183090000000  0.4560010000000 1.0
C      1  0.4597330000000  0.6107510000000  0.4614260000000 1.0
C      1  0.4854380000000  0.5595940000000  0.5626750000000 1.0
C      1  0.3909220000000  0.5200690000000  0.5529290000000 1.0
C      1  0.5592900000000  0.4072570000000  0.5306080000000 1.0
C      1  0.5252920000000  0.5216950000000  0.5774960000000 1.0
C      1  0.4779770000000  0.4821200000000  0.4218900000000 1.0
C      1  0.4559460000000  0.4676970000000  0.5956820000000 1.0
C      1  0.5154880000000  0.5236760000000  0.5318600000000 1.0
C      1  0.4848520000000  0.4454270000000  0.5556440000000 1.0
C      1  0.4877660000000  0.3999960000000  0.5039690000000 1.0
C      1  0.5064410000000  0.4759920000000  0.4301990000000 1.0
C      1  0.5442100000000  0.5451970000000  0.4336180000000 1.0
C      1  0.3947940000000  0.5118880000000  0.4588410000000 1.0
C      1  0.4805290000000  0.4254650000000  0.4568300000000 1.0
C      1  0.4708900000000  0.4145390000000  0.5527360000000 1.0
C      1  0.6041810000000  0.5503760000000  0.4897780000000 1.0
C      1  0.5734750000000  0.4232320000000  0.5084750000000 1.0
C      1  0.4310570000000  0.5806890000000  0.5188760000000 1.0
C      1  0.4078860000000  0.4602300000000  0.4505800000000 1.0
C      1  0.5132930000000  0.5246520000000  0.4723300000000 1.0
C      1  0.5116900000000  0.4487050000000  0.4188880000000 1.0
C      1  0.5357500000000  0.5591520000000  0.5185780000000 1.0
C      1  0.4329790000000  0.5334520000000  0.5039790000000 1.0
C      1  0.5313570000000  0.4157130000000  0.5730570000000 1.0
C      1  0.5639130000000  0.5518920000000  0.5939530000000 1.0
C      1  0.4795670000000  0.5721390000000  0.4903980000000 1.0
C      1  0.6071250000000  0.4522110000000  0.4758470000000 1.0
C      1  0.3949410000000  0.5588810000000  0.4791330000000 1.0
C      1  0.4208650000000  0.5450160000000  0.5802890000000 1.0
C      1  0.5441060000000  0.4779670000000  0.5585030000000 1.0
C      1  0.4234280000000  0.4299140000000  0.4868810000000 1.0
C      1  0.4846360000000  0.5080700000000  0.6042640000000 1.0
C      1  0.4654270000000  0.4121140000000  0.5202390000000 1.0
C      1  0.4441140000000  0.4631360000000  0.4670570000000 1.0
C      1  0.4765570000000  0.4418980000000  0.5242640000000 1.0
C      1  0.5899730000000  0.4304820000000  0.4767740000000 1.0
C      1  0.4686550000000  0.5248630000000  0.5723090000000 1.0
C      1  0.4049440000000  0.5474010000000  0.5085670000000 1.0
C      1  0.5261060000000  0.4209020000000  0.4298790000000 1.0
C      1  0.5169500000000  0.4487830000000  0.5558200000000 1.0
C      1  0.4661410000000  0.5112300000000  0.4806590000000 1.0
C      1  0.4256830000000  0.5336630000000  0.4471790000000 1.0
C      1  0.4461750000000  0.5249680000000  0.5342260000000 1.0
C      1  0.5534990000000  0.5042940000000  0.5694980000000 1.0
C      1  0.4075490000000  0.5190820000000  0.4281100000000 1.0
C      1  0.4412910000000  0.4921240000000  0.4763320000000 1.0
C      1  0.4746510000000  0.5344970000000  0.4065700000000 1.0
C      1  0.4346610000000  0.4949580000000  0.4449720000000 1.0
C      1  0.6177950000000  0.5320620000000  0.4645590000000 1.0
C      1  0.4977970000000  0.5917450000000  0.5199430000000 1.0
C      1  0.4653510000000  0.5059140000000  0.4396690000000 1.0
C      1  0.5767000000000  0.4819650000000  0.4288010000000 1.0
C      1  0.4639930000000  0.3898930000000  0.4639070000000 1.0
C      1  0.4937830000000  0.4155570000000  0.4305840000000 1.0
C      1  0.4612630000000  0.4423410000000  0.4873090000000 1.0
C      1  0.5529240000000  0.4208950000000  0.5557620000000 1.0
C      1  0.5155260000000  0.5363760000000  0.5025550000000 1.0
C      1  0.4703290000000  0.5213840000000  0.5102510000000 1.0
C      1  0.4953970000000  0.5342930000000  0.5893730000000 1.0
C      1  0.5250320000000  0.5425320000000  0.5527940000000 1.0
C      1  0.5746300000000  0.5326450000000  0.4945800000000 1.0
C      1  0.4521200000000  0.4405270000000  0.5780880000000 1.0
C      1  0.5335190000000  0.4576240000000  0.5817550000000 1.0
C      1  0.5005000000000  0.4090170000000  0.5603390000000 1.0
C      1  0.5393150000000  0.4425460000000  0.4934660000000 1.0
C      1  0.4477410000000  0.5464570000000  0.5791650000000 1.0
C      1  0.5352880000000  0.4181520000000  0.4594470000000 1.0
C      1  0.4817390000000  0.5081860000000  0.5462260000000 1.0
C      1  0.4571730000000  0.4969280000000  0.5872990000000 1.0
C      1  0.5265140000000  0.5945670000000  0.5016980000000 1.0
C      1  0.5057410000000  0.5702090000000  0.4736970000000 1.0
C      1  0.5541930000000  0.5863210000000  0.5198500000000 1.0
C      1  0.5649560000000  0.4626150000000  0.4827560000000 1.0
C      1  0.4955480000000  0.5034090000000  0.5148360000000 1.0
C      1  0.5987170000000  0.5029630000000  0.4265120000000 1.0
C      1  0.4738260000000  0.4796800000000  0.3885150000000 1.0
C      1  0.4034530000000  0.5454450000000  0.5580410000000 1.0
C      1  0.4687010000000  0.5614230000000  0.4203940000000 1.0
C      1  0.5934090000000  0.5407090000000  0.5207670000000 1.0
C      1  0.5464640000000  0.5302690000000  0.4937300000000 1.0
C      1  0.5999690000000  0.4686290000000  0.5608630000000 1.0
C      1  0.5733390000000  0.5465210000000  0.5675230000000 1.0
C      1  0.5428660000000  0.3875700000000  0.5171400000000 1.0
C      1  0.5579900000000  0.4522200000000  0.5484340000000 1.0
C      1  0.4379340000000  0.4881050000000  0.5064000000000 1.0
C      1  0.5180180000000  0.5727680000000  0.4218800000000 1.0
C      1  0.4693810000000  0.4723140000000  0.5584710000000 1.0
C      1  0.5320710000000  0.4518520000000  0.4631400000000 1.0
C      1  0.4925150000000  0.4971740000000  0.3775470000000 1.0
C      1  0.4104140000000  0.5618000000000  0.5356760000000 1.0
C      1  0.4533740000000  0.5998960000000  0.5798430000000 1.0
C      1  0.4883510000000  0.3898940000000  0.4771630000000 1.0
C      1  0.5735150000000  0.5705830000000  0.4448560000000 1.0
C      1  0.5867980000000  0.4744700000000  0.5844150000000 1.0
C      1  0.5610370000000  0.4739850000000  0.5944600000000 1.0
C      1  0.4884110000000  0.5826000000000  0.4245670000000 1.0
C      1  0.5853940000000  0.5222630000000  0.4685200000000 1.0
C      1  0.4674790000000  0.4513670000000  0.4183840000000 1.0
C      1  0.4171370000000  0.5713690000000  0.4563860000000 1.0
C      1  0.4019330000000  0.4869360000000  0.4376680000000 1.0
C      1  0.4466130000000  0.4891310000000  0.3982730000000 1.0
C      1  0.4940200000000  0.4340940000000  0.4845270000000 1.0
C      1  0.5539120000000  0.5575820000000  0.5475800000000 1.0
C      1  0.5045740000000  0.5956860000000  0.4516230000000 1.0
C      1  0.5615850000000  0.4590150000000  0.4488530000000 1.0
C      1  0.4473040000000  0.5582500000000  0.4460640000000 1.0
C      1  0.4087130000000  0.4954710000000  0.5461290000000 1.0
C      1  0.5050700000000  0.5466740000000  0.4275250000000 1.0
C      1  0.5353030000000  0.5028970000000  0.5117590000000 1.0
C      1  0.5850070000000  0.4541990000000  0.5090330000000 1.0
C      1  0.5330320000000  0.5986930000000  0.4689260000000 1.0
C      1  0.4350070000000  0.4250220000000  0.5175870000000 1.0
C      1  0.5021750000000  0.6026560000000  0.5502800000000 1.0
C      1  0.5631880000000  0.4875380000000  0.5139630000000 1.0
C      1  0.4509170000000  0.5180480000000  0.4016690000000 1.0
C      1  0.4103980000000  0.4915490000000  0.5150050000000 1.0
C      1  0.5053980000000  0.4604250000000  0.5252810000000 1.0
C      1  0.5858910000000  0.4579960000000  0.5401710000000 1.0
C      1  0.4355340000000  0.4739400000000  0.4205000000000 1.0
C      1  0.5406520000000  0.4420280000000  0.5244660000000 1.0
C      1  0.5292910000000  0.5208020000000  0.4453960000000 1.0
C      1  0.5813470000000  0.5698150000000  0.5072170000000 1.0
C      1  0.5036460000000  0.5164970000000  0.4005090000000 1.0
C      1  0.6028680000000  0.4846760000000  0.4692610000000 1.0
C      1  0.3897450000000  0.4693160000000  0.5007500000000 1.0
C      1  0.4805190000000  0.5450130000000  0.5318590000000 1.0
C      1  0.5066080000000  0.4966350000000  0.5635550000000 1.0
C      1  0.4561430000000  0.5817930000000  0.4690080000000 1.0
C      1  0.5113760000000  0.5640360000000  0.5833780000000 1.0
C      1  0.4794590000000  0.4809630000000  0.4725460000000 1.0
C      1  0.5618090000000  0.4129990000000  0.4786180000000 1.0
C      1  0.5153910000000  0.4198770000000  0.5035400000000 1.0
C      1  0.5400980000000  0.5771550000000  0.4433420000000 1.0
C      1  0.4976330000000  0.5147800000000  0.4332590000000 1.0
C      1  0.5767790000000  0.5187310000000  0.5610660000000 1.0
C      1  0.4391850000000  0.5020070000000  0.5585080000000 1.0
C      1  0.5852610000000  0.5452480000000  0.4450470000000 1.0
C      1  0.6156190000000  0.5039600000000  0.4500840000000 1.0
C      1  0.5668090000000  0.5980110000000  0.4632660000000 1.0
C      1  0.5033510000000  0.4239450000000  0.5900330000000 1.0
C      1  0.5467660000000  0.5882400000000  0.5529850000000 1.0
C      1  0.5368360000000  0.5595780000000  0.4790830000000 1.0
C      1  0.4555890000000  0.4610370000000  0.5121330000000 1.0
C      1  0.5888550000000  0.5289680000000  0.4196160000000 1.0
C      1  0.4339510000000  0.4454130000000  0.4390930000000 1.0
C      1  0.5066180000000  0.5626340000000  0.5310990000000 1.0
C      1  0.4073380000000  0.4617390000000  0.5412030000000 1.0
C      1  0.4520430000000  0.5580000000000  0.5413610000000 1.0
C      1  0.4581100000000  0.5750770000000  0.5702580000000 1.0
C      1  0.5892640000000  0.4923750000000  0.5201600000000 1.0
C      1  0.4216770000000  0.5778210000000  0.4887540000000 1.0
C      1  0.4787720000000  0.4277080000000  0.4102390000000 1.0
C      1  0.3852720000000  0.5027910000000  0.4963150000000 1.0
C      1  0.3820880000000  0.5298490000000  0.4921740000000 1.0
C      1  0.5060670000000  0.4934000000000  0.6152160000000 1.0
C      1  0.5112020000000  0.4745550000000  0.4614140000000 1.0
C      1  0.4940010000000  0.4634430000000  0.4956890000000 1.0
C      1  0.5483660000000  0.4960510000000  0.4417490000000 1.0
C      1  0.5615920000000  0.5746010000000  0.4826400000000 1.0
C      1  0.5221430000000  0.4837720000000  0.5370820000000 1.0
C      1  0.4809100000000  0.4442790000000  0.5951560000000 1.0
C      1  0.5183510000000  0.4212030000000  0.5357170000000 1.0
C      1  0.4652460000000  0.5809650000000  0.5196980000000 1.0
C      1  0.4183120000000  0.5247150000000  0.4761610000000 1.0
C      1  0.5128880000000  0.4969200000000  0.4869690000000 1.0
END
