TITL C-2778434-4341-386 -0.000226248994843753 125000 -410.265583457572 0 0 72 (C1) n - 1
REM
REM in /home/nfs/bkarasulu/CARBON/AIRSS/Generating-Clusters/REBO/Only-C1/SD-CG/HFTN-CG
REM
REM
REM
REM
REM
REM ./C.cell (11c1c37f851c82e70ff6c80c92926a4b)
REM
REM compiler GCC version 9.2.1 20190827 (Red Hat 9.2.1-1)
REM options -cpp -mtune=generic -march=x86-64 -g -O0 -fpre-include=/usr/include/finclude/math-vector-fortran.h
REM seed 708469311 1077724717 -209057596 741034453 -557543307 1360551087 172357298 -545559624 1749504403 -347748417 -181859539 1793491901 1022450434 689919165 1132475725 -262301881 1771385856 301846817 1478435777 -31021246 10374189 2136470244 -1423382790 2001733819 2131088602 -22349479 -1573159322 60155580 -835913227 1590866630 83099978 410164136 -688511960
REM
CELL 1.54180   50.00000   50.00000   50.00000   90.00000   90.00000   90.00000
LATT -1
SFAC C  
C      1  0.4323940000000  0.4925990000000  0.4938940000000 1.0
C      1  0.4518350000000  0.5007520000000  0.4303170000000 1.0
C      1  0.5299780000000  0.5048220000000  0.4295510000000 1.0
C      1  0.5627570000000  0.5171520000000  0.5321460000000 1.0
C      1  0.5095150000000  0.5618310000000  0.4668210000000 1.0
C      1  0.4779590000000  0.4727640000000  0.5682120000000 1.0
C      1  0.5370810000000  0.5177500000000  0.4877940000000 1.0
C      1  0.5793220000000  0.4909870000000  0.4730870000000 1.0
C      1  0.5238010000000  0.5025510000000  0.5665800000000 1.0
C      1  0.4761750000000  0.5001300000000  0.4905930000000 1.0
C      1  0.5578780000000  0.4363340000000  0.4744330000000 1.0
C      1  0.5815720000000  0.5015410000000  0.4407640000000 1.0
C      1  0.4579140000000  0.4409560000000  0.4945450000000 1.0
C      1  0.5069300000000  0.4336390000000  0.4859300000000 1.0
C      1  0.4590300000000  0.5017560000000  0.5675490000000 1.0
C      1  0.4918240000000  0.4499940000000  0.5495820000000 1.0
C      1  0.5379910000000  0.4747560000000  0.5563840000000 1.0
C      1  0.5651960000000  0.4747000000000  0.5508180000000 1.0
C      1  0.5063680000000  0.4911290000000  0.4212610000000 1.0
C      1  0.5253650000000  0.5155070000000  0.4589410000000 1.0
C      1  0.5293700000000  0.5742230000000  0.4814000000000 1.0
C      1  0.4670850000000  0.4186430000000  0.4246280000000 1.0
C      1  0.5494200000000  0.4912710000000  0.4616450000000 1.0
C      1  0.4566960000000  0.5580770000000  0.5163390000000 1.0
C      1  0.4890660000000  0.5297550000000  0.5574050000000 1.0
C      1  0.4770210000000  0.4875470000000  0.4385950000000 1.0
C      1  0.4974690000000  0.5270460000000  0.5245570000000 1.0
C      1  0.4930690000000  0.5021340000000  0.5718800000000 1.0
C      1  0.5337910000000  0.4700950000000  0.5069440000000 1.0
C      1  0.4603290000000  0.5407600000000  0.5600020000000 1.0
C      1  0.5325500000000  0.5083740000000  0.5355000000000 1.0
C      1  0.5162040000000  0.4609100000000  0.4587430000000 1.0
C      1  0.4757580000000  0.5259190000000  0.4713570000000 1.0
C      1  0.5319990000000  0.4285890000000  0.4779470000000 1.0
C      1  0.4654070000000  0.5659290000000  0.5452860000000 1.0
C      1  0.5099680000000  0.5567700000000  0.5291720000000 1.0
C      1  0.4791750000000  0.4446530000000  0.4728100000000 1.0
C      1  0.4293930000000  0.5125180000000  0.4229410000000 1.0
C      1  0.4694190000000  0.5269870000000  0.5107480000000 1.0
C      1  0.4800680000000  0.4861140000000  0.5377370000000 1.0
C      1  0.5010960000000  0.5349760000000  0.4624200000000 1.0
C      1  0.4997630000000  0.4638990000000  0.4364170000000 1.0
C      1  0.4782830000000  0.4748550000000  0.5101150000000 1.0
C      1  0.4315820000000  0.5378220000000  0.5175110000000 1.0
C      1  0.5165880000000  0.5057700000000  0.5082060000000 1.0
C      1  0.5474550000000  0.5620660000000  0.5001450000000 1.0
C      1  0.5211080000000  0.4596240000000  0.5357640000000 1.0
C      1  0.4071070000000  0.5242020000000  0.4156170000000 1.0
C      1  0.4716470000000  0.4387380000000  0.5257110000000 1.0
C      1  0.4482270000000  0.5347380000000  0.4713250000000 1.0
C      1  0.4399280000000  0.5214880000000  0.5464440000000 1.0
C      1  0.4300390000000  0.5236730000000  0.4914850000000 1.0
C      1  0.5564490000000  0.5364670000000  0.4916300000000 1.0
C      1  0.5338410000000  0.5343930000000  0.5672400000000 1.0
C      1  0.5735940000000  0.4904910000000  0.5281650000000 1.0
C      1  0.5641800000000  0.4790540000000  0.5016580000000 1.0
C      1  0.4811180000000  0.4763040000000  0.4694470000000 1.0
C      1  0.4935250000000  0.5718950000000  0.5492210000000 1.0
C      1  0.5516610000000  0.5418850000000  0.5456930000000 1.0
C      1  0.5427600000000  0.4664610000000  0.4529350000000 1.0
C      1  0.4486960000000  0.5022970000000  0.5194710000000 1.0
C      1  0.5100190000000  0.5512840000000  0.5687210000000 1.0
C      1  0.4725870000000  0.4304800000000  0.4465560000000 1.0
C      1  0.5736030000000  0.4577330000000  0.4783430000000 1.0
C      1  0.5103430000000  0.4797820000000  0.4867080000000 1.0
C      1  0.4998180000000  0.4498860000000  0.5110290000000 1.0
C      1  0.4353000000000  0.4637690000000  0.4955820000000 1.0
C      1  0.4496350000000  0.4629510000000  0.5258930000000 1.0
C      1  0.5585450000000  0.5036490000000  0.4247560000000 1.0
C      1  0.4578480000000  0.5777540000000  0.4968240000000 1.0
C      1  0.4412030000000  0.4834310000000  0.5467950000000 1.0
C      1  0.5383050000000  0.5602200000000  0.5273320000000 1.0
END
