TITL C-2778425-5191-484 4.61007116343255e-05 125000 -171.862831452678 0 0 29 (C1) n - 1
REM
REM in /home/nfs/bkarasulu/CARBON/AIRSS/Generating-Clusters/REBO/Only-C1/SD-CG/HFTN-CG
REM
REM
REM
REM
REM
REM ./C.cell (11c1c37f851c82e70ff6c80c92926a4b)
REM
REM compiler GCC version 9.2.1 20190827 (Red Hat 9.2.1-1)
REM options -cpp -mtune=generic -march=x86-64 -g -O0 -fpre-include=/usr/include/finclude/math-vector-fortran.h
REM seed 548575814 593945304 283907616 892197747 1419044231 1758830772 377584565 -511999572 -1148140946 1105794467 634708725 -1266449919 2012702830 1749779158 -305944978 964122931 -1889053929 249710708 774629215 -1921813543 124630117 436307196 1699842531 254208571 -1360483567 -28135637 2051239559 1475463987 962675270 -1590049240 478128177 1491211145 2081889502
REM
CELL 1.54180   50.00000   50.00000   50.00000   90.00000   90.00000   90.00000
LATT -1
SFAC C  
C      1  0.4877060000000  0.5787630000000  0.5067860000000 1.0
C      1  0.4817880000000  0.5695140000000  0.4822780000000 1.0
C      1  0.4466940000000  0.4385200000000  0.4728830000000 1.0
C      1  0.4991470000000  0.5753080000000  0.5308400000000 1.0
C      1  0.5056750000000  0.4920880000000  0.5608190000000 1.0
C      1  0.5324610000000  0.5278880000000  0.4678050000000 1.0
C      1  0.5139950000000  0.5609730000000  0.5480150000000 1.0
C      1  0.4471440000000  0.4694910000000  0.5097350000000 1.0
C      1  0.5563300000000  0.5395130000000  0.5134890000000 1.0
C      1  0.4948860000000  0.4240590000000  0.4811880000000 1.0
C      1  0.5170760000000  0.4866550000000  0.4478120000000 1.0
C      1  0.5121640000000  0.4366310000000  0.4627570000000 1.0
C      1  0.5791100000000  0.5331940000000  0.5559490000000 1.0
C      1  0.5305140000000  0.5391220000000  0.5543710000000 1.0
C      1  0.4921390000000  0.4720520000000  0.5481770000000 1.0
C      1  0.4815140000000  0.5501420000000  0.4637070000000 1.0
C      1  0.5123320000000  0.5135190000000  0.4544260000000 1.0
C      1  0.4997290000000  0.4280820000000  0.5088710000000 1.0
C      1  0.5474130000000  0.5361140000000  0.4884590000000 1.0
C      1  0.4672410000000  0.4662950000000  0.5282800000000 1.0
C      1  0.4482100000000  0.4864340000000  0.4643840000000 1.0
C      1  0.4639860000000  0.5058160000000  0.4545030000000 1.0
C      1  0.5565210000000  0.5379100000000  0.5415500000000 1.0
C      1  0.4677520000000  0.4211770000000  0.4732970000000 1.0
C      1  0.4925900000000  0.4465550000000  0.5280910000000 1.0
C      1  0.4430070000000  0.4651140000000  0.4820210000000 1.0
C      1  0.5190040000000  0.5152080000000  0.5636610000000 1.0
C      1  0.4855900000000  0.5238010000000  0.4548410000000 1.0
C      1  0.5182830000000  0.4600620000000  0.4510050000000 1.0
END
