TITL C-2778424-3986-928 -0.00229766732552409 125000 -589.129858117396 0 0 102 (C1) n - 1
REM
REM in /home/nfs/bkarasulu/CARBON/AIRSS/Generating-Clusters/REBO/Only-C1/SD-CG/HFTN-CG
REM
REM
REM
REM
REM
REM ./C.cell (11c1c37f851c82e70ff6c80c92926a4b)
REM
REM compiler GCC version 9.2.1 20190827 (Red Hat 9.2.1-1)
REM options -cpp -mtune=generic -march=x86-64 -g -O0 -fpre-include=/usr/include/finclude/math-vector-fortran.h
REM seed -2007565822 1429114082 -1787536433 879092617 1401493581 -972430828 1996977869 -1212783544 699268681 -1989327250 548733864 844228441 1552895963 -10487488 -2069480177 718179511 -1808790224 -172878073 -1487711281 472580302 -991388988 -1311509619 951647398 -825575032 1119593372 -1910722158 -1704424554 -881428654 -2109028673 1076679536 -906574888 -610038078 -1476331676
REM
CELL 1.54180   50.00000   50.00000   50.00000   90.00000   90.00000   90.00000
LATT -1
SFAC C  
C      1  0.4315430000000  0.5145800000000  0.4923500000000 1.0
C      1  0.5133720000000  0.5444550000000  0.5691370000000 1.0
C      1  0.4574950000000  0.5247500000000  0.4637660000000 1.0
C      1  0.5253980000000  0.5702980000000  0.5276350000000 1.0
C      1  0.4891760000000  0.4236440000000  0.4598080000000 1.0
C      1  0.4735830000000  0.4575750000000  0.4263890000000 1.0
C      1  0.5361880000000  0.4491520000000  0.4974640000000 1.0
C      1  0.4190260000000  0.5274390000000  0.5173890000000 1.0
C      1  0.4998100000000  0.5346630000000  0.4979390000000 1.0
C      1  0.5794500000000  0.4700710000000  0.5347790000000 1.0
C      1  0.4913970000000  0.5034320000000  0.5364240000000 1.0
C      1  0.4686020000000  0.4562210000000  0.4934460000000 1.0
C      1  0.5337940000000  0.4754930000000  0.4481990000000 1.0
C      1  0.4451800000000  0.5529110000000  0.5703010000000 1.0
C      1  0.4977420000000  0.4687000000000  0.5710030000000 1.0
C      1  0.5520240000000  0.5695290000000  0.5330520000000 1.0
C      1  0.4743220000000  0.5106700000000  0.4416490000000 1.0
C      1  0.5585850000000  0.4568930000000  0.4543050000000 1.0
C      1  0.5317370000000  0.5328550000000  0.4947900000000 1.0
C      1  0.4882720000000  0.6059960000000  0.5449190000000 1.0
C      1  0.4407580000000  0.4927360000000  0.5397130000000 1.0
C      1  0.5029750000000  0.4455520000000  0.5577020000000 1.0
C      1  0.5665740000000  0.5296450000000  0.5568400000000 1.0
C      1  0.4502120000000  0.5696240000000  0.5503900000000 1.0
C      1  0.4703440000000  0.4136290000000  0.5277880000000 1.0
C      1  0.5452010000000  0.5518110000000  0.4734220000000 1.0
C      1  0.5585870000000  0.4520310000000  0.5425890000000 1.0
C      1  0.4888010000000  0.4945710000000  0.5652320000000 1.0
C      1  0.5319830000000  0.5015630000000  0.4960540000000 1.0
C      1  0.4695230000000  0.5602780000000  0.4868780000000 1.0
C      1  0.5892800000000  0.4629540000000  0.5095980000000 1.0
C      1  0.5727930000000  0.5089670000000  0.4275540000000 1.0
C      1  0.4378070000000  0.4310140000000  0.4938190000000 1.0
C      1  0.4871460000000  0.5391670000000  0.4168320000000 1.0
C      1  0.4394420000000  0.4590920000000  0.5408860000000 1.0
C      1  0.4568550000000  0.5637210000000  0.4551390000000 1.0
C      1  0.5304840000000  0.4241000000000  0.4785430000000 1.0
C      1  0.5408150000000  0.4375910000000  0.5258720000000 1.0
C      1  0.5107940000000  0.5536390000000  0.4247770000000 1.0
C      1  0.4720970000000  0.5102650000000  0.5811940000000 1.0
C      1  0.5059310000000  0.5121730000000  0.4527670000000 1.0
C      1  0.4546860000000  0.5308260000000  0.5826190000000 1.0
C      1  0.4547230000000  0.4397850000000  0.5200820000000 1.0
C      1  0.5983280000000  0.4838670000000  0.4738600000000 1.0
C      1  0.4476520000000  0.4472880000000  0.4680260000000 1.0
C      1  0.5565570000000  0.5218010000000  0.4496640000000 1.0
C      1  0.5103080000000  0.4875010000000  0.5185590000000 1.0
C      1  0.4337340000000  0.5531170000000  0.5023400000000 1.0
C      1  0.4217510000000  0.4919170000000  0.4455770000000 1.0
C      1  0.5312920000000  0.4833400000000  0.5870930000000 1.0
C      1  0.5752730000000  0.4994850000000  0.5443160000000 1.0
C      1  0.4343680000000  0.5485980000000  0.4719790000000 1.0
C      1  0.5871830000000  0.5007590000000  0.4967130000000 1.0
C      1  0.5592360000000  0.4886440000000  0.5054040000000 1.0
C      1  0.4624490000000  0.5053640000000  0.5232140000000 1.0
C      1  0.4225910000000  0.4625090000000  0.5131870000000 1.0
C      1  0.5039820000000  0.4129350000000  0.4834270000000 1.0
C      1  0.5721690000000  0.5503800000000  0.5364180000000 1.0
C      1  0.5003600000000  0.4394080000000  0.5306120000000 1.0
C      1  0.4154340000000  0.5108570000000  0.5403050000000 1.0
C      1  0.5468830000000  0.4273010000000  0.4563190000000 1.0
C      1  0.4959350000000  0.4607970000000  0.5130080000000 1.0
C      1  0.5024660000000  0.4575690000000  0.4271050000000 1.0
C      1  0.4655860000000  0.4377270000000  0.4464470000000 1.0
C      1  0.5845370000000  0.5235220000000  0.5219220000000 1.0
C      1  0.4869190000000  0.4827930000000  0.4818460000000 1.0
C      1  0.5092160000000  0.4443670000000  0.4514250000000 1.0
C      1  0.5174150000000  0.5631290000000  0.4995180000000 1.0
C      1  0.5401530000000  0.4856680000000  0.5312550000000 1.0
C      1  0.4644320000000  0.4866940000000  0.4203370000000 1.0
C      1  0.5728250000000  0.5418960000000  0.4681750000000 1.0
C      1  0.4643050000000  0.5488480000000  0.4287130000000 1.0
C      1  0.5880680000000  0.5325340000000  0.4895940000000 1.0
C      1  0.4989450000000  0.5739900000000  0.4759720000000 1.0
C      1  0.5440950000000  0.5341970000000  0.5714990000000 1.0
C      1  0.5209110000000  0.5131470000000  0.5800800000000 1.0
C      1  0.4245420000000  0.5179830000000  0.4605300000000 1.0
C      1  0.5455270000000  0.4958340000000  0.5601880000000 1.0
C      1  0.4314670000000  0.4752710000000  0.4912660000000 1.0
C      1  0.4335990000000  0.4902250000000  0.4207770000000 1.0
C      1  0.4898380000000  0.5338680000000  0.5278060000000 1.0
C      1  0.4551780000000  0.5743840000000  0.5176110000000 1.0
C      1  0.4099930000000  0.4936060000000  0.5649680000000 1.0
C      1  0.4796920000000  0.5798470000000  0.5406730000000 1.0
C      1  0.4573810000000  0.4942500000000  0.4944350000000 1.0
C      1  0.4257460000000  0.4699720000000  0.4623580000000 1.0
C      1  0.5281310000000  0.5335480000000  0.4424240000000 1.0
C      1  0.5646700000000  0.4611550000000  0.4873320000000 1.0
C      1  0.5154860000000  0.4653100000000  0.4755850000000 1.0
C      1  0.4618260000000  0.5360050000000  0.5096030000000 1.0
C      1  0.4862690000000  0.5167700000000  0.4789250000000 1.0
C      1  0.4999550000000  0.4097970000000  0.5143080000000 1.0
C      1  0.4228550000000  0.4691820000000  0.5666030000000 1.0
C      1  0.5882050000000  0.4695380000000  0.4561740000000 1.0
C      1  0.5152420000000  0.4838830000000  0.4212920000000 1.0
C      1  0.4924680000000  0.5056050000000  0.4143390000000 1.0
C      1  0.5210650000000  0.5641030000000  0.4556260000000 1.0
C      1  0.5340730000000  0.5016000000000  0.4650660000000 1.0
C      1  0.5014960000000  0.5574400000000  0.5441170000000 1.0
C      1  0.5295010000000  0.4124250000000  0.5289050000000 1.0
C      1  0.5295260000000  0.4631610000000  0.6029170000000 1.0
C      1  0.4764020000000  0.5892290000000  0.4612290000000 1.0
END
