TITL C-2778431-5191-1437 -0.0023897968555117 125000 -478.828007597319 0 0 84 (C1) n - 1
REM
REM in /home/nfs/bkarasulu/CARBON/AIRSS/Generating-Clusters/REBO/Only-C1/SD-CG/HFTN-CG
REM
REM
REM
REM
REM
REM ./C.cell (11c1c37f851c82e70ff6c80c92926a4b)
REM
REM compiler GCC version 9.2.1 20190827 (Red Hat 9.2.1-1)
REM options -cpp -mtune=generic -march=x86-64 -g -O0 -fpre-include=/usr/include/finclude/math-vector-fortran.h
REM seed 742661063 1298573454 -934361588 1072104965 1722630705 -1548257289 1563744650 -891524672 60809786 1160863051 -1673844485 -1023195260 -218188459 1158946991 -894771670 -1910233817 1989755218 -1083892961 1440780897 -1913001526 -1490465829 -916407033 -256857852 -978532681 -1201155534 1800008842 -1464217810 -325175246 -614188932 -1031979600 1841032292 942063817 -2000842655
REM
CELL 1.54180   50.00000   50.00000   50.00000   90.00000   90.00000   90.00000
LATT -1
SFAC C  
C      1  0.4323100000000  0.5241790000000  0.5221380000000 1.0
C      1  0.4882380000000  0.4805910000000  0.5734610000000 1.0
C      1  0.5768150000000  0.5097120000000  0.5074720000000 1.0
C      1  0.5634150000000  0.5201600000000  0.4791380000000 1.0
C      1  0.4908220000000  0.4539320000000  0.5272590000000 1.0
C      1  0.5359000000000  0.5628900000000  0.4707930000000 1.0
C      1  0.5560980000000  0.4182580000000  0.4744900000000 1.0
C      1  0.3749300000000  0.5199250000000  0.5013220000000 1.0
C      1  0.4982010000000  0.4576860000000  0.5581220000000 1.0
C      1  0.5811870000000  0.4648890000000  0.4880920000000 1.0
C      1  0.4974960000000  0.4275370000000  0.4427630000000 1.0
C      1  0.4650380000000  0.5236060000000  0.5164340000000 1.0
C      1  0.4793090000000  0.5367660000000  0.5736240000000 1.0
C      1  0.5563230000000  0.5454980000000  0.4607070000000 1.0
C      1  0.5440190000000  0.5364060000000  0.5004350000000 1.0
C      1  0.5548380000000  0.4762280000000  0.4369190000000 1.0
C      1  0.5097820000000  0.5553710000000  0.4566220000000 1.0
C      1  0.5407000000000  0.4413360000000  0.4725480000000 1.0
C      1  0.4766130000000  0.4261560000000  0.5235510000000 1.0
C      1  0.5503990000000  0.4572070000000  0.5528040000000 1.0
C      1  0.5350190000000  0.4816690000000  0.5251780000000 1.0
C      1  0.5019420000000  0.5184200000000  0.4214480000000 1.0
C      1  0.5069790000000  0.4873060000000  0.4267860000000 1.0
C      1  0.4574500000000  0.4861550000000  0.5452970000000 1.0
C      1  0.4633490000000  0.5552930000000  0.5536940000000 1.0
C      1  0.5021240000000  0.5249290000000  0.4663910000000 1.0
C      1  0.4571710000000  0.4565980000000  0.4457020000000 1.0
C      1  0.4626830000000  0.4497050000000  0.4945980000000 1.0
C      1  0.5207580000000  0.5040760000000  0.4534840000000 1.0
C      1  0.5490260000000  0.5579720000000  0.5164140000000 1.0
C      1  0.4651890000000  0.5058010000000  0.5719850000000 1.0
C      1  0.4793770000000  0.4424520000000  0.4676310000000 1.0
C      1  0.4890810000000  0.5726930000000  0.5108760000000 1.0
C      1  0.4994030000000  0.4109040000000  0.5191580000000 1.0
C      1  0.5280220000000  0.5140030000000  0.5170380000000 1.0
C      1  0.4418930000000  0.4937190000000  0.4818090000000 1.0
C      1  0.4923010000000  0.5447040000000  0.4908290000000 1.0
C      1  0.4648530000000  0.4553930000000  0.4187060000000 1.0
C      1  0.5510290000000  0.4967110000000  0.4642470000000 1.0
C      1  0.5074770000000  0.5336940000000  0.5702720000000 1.0
C      1  0.4025760000000  0.5258020000000  0.5078660000000 1.0
C      1  0.5121210000000  0.4745740000000  0.4814400000000 1.0
C      1  0.5130400000000  0.4368060000000  0.4687410000000 1.0
C      1  0.5433480000000  0.5669670000000  0.5428670000000 1.0
C      1  0.5662450000000  0.4722250000000  0.5323500000000 1.0
C      1  0.5542800000000  0.5901150000000  0.5522380000000 1.0
C      1  0.5245670000000  0.4468040000000  0.5474760000000 1.0
C      1  0.5485460000000  0.4172870000000  0.5125580000000 1.0
C      1  0.5832690000000  0.4813840000000  0.5111300000000 1.0
C      1  0.4478500000000  0.4316600000000  0.5166020000000 1.0
C      1  0.4926990000000  0.4684030000000  0.4092950000000 1.0
C      1  0.4628620000000  0.5586880000000  0.4639700000000 1.0
C      1  0.4691310000000  0.4981330000000  0.4987900000000 1.0
C      1  0.4605510000000  0.5709680000000  0.5279310000000 1.0
C      1  0.5242030000000  0.4706280000000  0.4508750000000 1.0
C      1  0.4616570000000  0.5592960000000  0.4955610000000 1.0
C      1  0.4280470000000  0.4482740000000  0.5288130000000 1.0
C      1  0.4984360000000  0.5180030000000  0.5173530000000 1.0
C      1  0.4242230000000  0.4963870000000  0.5080000000000 1.0
C      1  0.4117870000000  0.5561500000000  0.5098970000000 1.0
C      1  0.4911160000000  0.4367290000000  0.4166250000000 1.0
C      1  0.5361300000000  0.4944720000000  0.5549040000000 1.0
C      1  0.4877350000000  0.5005880000000  0.5396450000000 1.0
C      1  0.5773580000000  0.5158250000000  0.5797420000000 1.0
C      1  0.5261310000000  0.5514010000000  0.5592390000000 1.0
C      1  0.4936750000000  0.4979300000000  0.4820640000000 1.0
C      1  0.5244390000000  0.4292020000000  0.5203080000000 1.0
C      1  0.4568810000000  0.5349410000000  0.4492800000000 1.0
C      1  0.5595100000000  0.5152850000000  0.5301750000000 1.0
C      1  0.4312150000000  0.4756770000000  0.5295990000000 1.0
C      1  0.4764950000000  0.5277810000000  0.4296500000000 1.0
C      1  0.5176160000000  0.4609950000000  0.5099630000000 1.0
C      1  0.5502500000000  0.5388400000000  0.4333890000000 1.0
C      1  0.4301400000000  0.5709730000000  0.5170730000000 1.0
C      1  0.5264830000000  0.5327540000000  0.4209400000000 1.0
C      1  0.5096390000000  0.5037110000000  0.5639790000000 1.0
C      1  0.4865280000000  0.5713120000000  0.4541260000000 1.0
C      1  0.4516760000000  0.5254920000000  0.5477160000000 1.0
C      1  0.4397060000000  0.5154010000000  0.4602220000000 1.0
C      1  0.4690660000000  0.4734880000000  0.5170510000000 1.0
C      1  0.4469260000000  0.4652450000000  0.4720820000000 1.0
C      1  0.5611260000000  0.5099700000000  0.5593990000000 1.0
C      1  0.5173750000000  0.5671850000000  0.4939780000000 1.0
C      1  0.5557860000000  0.4657200000000  0.4748630000000 1.0
END
