TITL C-2778424-3986-239 -0.000172927445526383 125000 -788.796576552527 0 0 136 (C1) n - 1
REM
REM in /home/nfs/bkarasulu/CARBON/AIRSS/Generating-Clusters/REBO/Only-C1/SD-CG/HFTN-CG
REM
REM
REM
REM
REM
REM ./C.cell (11c1c37f851c82e70ff6c80c92926a4b)
REM
REM compiler GCC version 9.2.1 20190827 (Red Hat 9.2.1-1)
REM options -cpp -mtune=generic -march=x86-64 -g -O0 -fpre-include=/usr/include/finclude/math-vector-fortran.h
REM seed -250963175 -1405573374 -1199084244 30395123 -2014176634 -128041040 1047682102 596702791 1046563159 224026184 -1560419775 2034998552 -1054280196 -341612243 1144018458 -973019365 1323932162 -1570775811 -1964014412 1393792287 301615896 -769296333 -163600020 -904895291 -1686612920 -233296283 1138788886 1079626189 671852358 464647209 1627599498 -669304090 1541570458
REM
CELL 1.54180   50.00000   50.00000   50.00000   90.00000   90.00000   90.00000
LATT -1
SFAC C  
C      1  0.4584360000000  0.5832430000000  0.4954090000000 1.0
C      1  0.5792420000000  0.5039300000000  0.4417510000000 1.0
C      1  0.5302120000000  0.4319220000000  0.4399920000000 1.0
C      1  0.5215000000000  0.4487090000000  0.5869430000000 1.0
C      1  0.4192850000000  0.5499240000000  0.5172420000000 1.0
C      1  0.4863350000000  0.5457320000000  0.5755800000000 1.0
C      1  0.5761890000000  0.5655810000000  0.4603510000000 1.0
C      1  0.4076730000000  0.5066910000000  0.5643420000000 1.0
C      1  0.5625730000000  0.4777420000000  0.5589450000000 1.0
C      1  0.5363650000000  0.4788160000000  0.4453700000000 1.0
C      1  0.4231390000000  0.5454510000000  0.4589160000000 1.0
C      1  0.4806490000000  0.4897390000000  0.5988780000000 1.0
C      1  0.5220920000000  0.4822570000000  0.4082230000000 1.0
C      1  0.5688110000000  0.4503800000000  0.4701000000000 1.0
C      1  0.5029530000000  0.4577320000000  0.4037790000000 1.0
C      1  0.4135010000000  0.5310680000000  0.4362160000000 1.0
C      1  0.4480350000000  0.4531780000000  0.5610220000000 1.0
C      1  0.5558880000000  0.5304280000000  0.5316550000000 1.0
C      1  0.5179330000000  0.4237850000000  0.5281960000000 1.0
C      1  0.5046930000000  0.4794610000000  0.4694280000000 1.0
C      1  0.4888140000000  0.5590580000000  0.4608220000000 1.0
C      1  0.5591450000000  0.4841000000000  0.4226310000000 1.0
C      1  0.5362750000000  0.5394750000000  0.5813530000000 1.0
C      1  0.4802270000000  0.5668740000000  0.4225980000000 1.0
C      1  0.4605200000000  0.5213310000000  0.5669870000000 1.0
C      1  0.5428360000000  0.4672000000000  0.6016670000000 1.0
C      1  0.6000380000000  0.5292270000000  0.5156390000000 1.0
C      1  0.4293910000000  0.5633250000000  0.5459580000000 1.0
C      1  0.4547720000000  0.4382990000000  0.4624360000000 1.0
C      1  0.5047150000000  0.4181230000000  0.4580380000000 1.0
C      1  0.5048540000000  0.5035100000000  0.5894480000000 1.0
C      1  0.4565570000000  0.4972980000000  0.5849840000000 1.0
C      1  0.5492090000000  0.5373080000000  0.4686030000000 1.0
C      1  0.5520920000000  0.4887550000000  0.5868290000000 1.0
C      1  0.4974360000000  0.4092920000000  0.5048910000000 1.0
C      1  0.5436270000000  0.4520730000000  0.4580810000000 1.0
C      1  0.4703090000000  0.4397000000000  0.5758900000000 1.0
C      1  0.5561490000000  0.4874020000000  0.4788530000000 1.0
C      1  0.4848770000000  0.5168530000000  0.4066060000000 1.0
C      1  0.4591150000000  0.5116120000000  0.5384140000000 1.0
C      1  0.4102720000000  0.5363280000000  0.5543410000000 1.0
C      1  0.4075010000000  0.4886940000000  0.5147660000000 1.0
C      1  0.5298790000000  0.4573860000000  0.5069330000000 1.0
C      1  0.4840160000000  0.5273640000000  0.4607220000000 1.0
C      1  0.5795050000000  0.5228120000000  0.4633030000000 1.0
C      1  0.4871160000000  0.5394720000000  0.5436510000000 1.0
C      1  0.5805120000000  0.4773230000000  0.5111690000000 1.0
C      1  0.4136100000000  0.4715650000000  0.4923830000000 1.0
C      1  0.4756830000000  0.5446700000000  0.5149080000000 1.0
C      1  0.4288750000000  0.4750550000000  0.4639750000000 1.0
C      1  0.5222020000000  0.5535260000000  0.4554100000000 1.0
C      1  0.5261300000000  0.5493780000000  0.4989060000000 1.0
C      1  0.5285030000000  0.4824590000000  0.4917850000000 1.0
C      1  0.5339270000000  0.5886170000000  0.4701030000000 1.0
C      1  0.4885400000000  0.4466730000000  0.4205340000000 1.0
C      1  0.5362380000000  0.4810230000000  0.5403260000000 1.0
C      1  0.4467010000000  0.5822830000000  0.4704980000000 1.0
C      1  0.5439720000000  0.5081290000000  0.4044360000000 1.0
C      1  0.5017560000000  0.5850640000000  0.5250990000000 1.0
C      1  0.5135830000000  0.4570400000000  0.5344690000000 1.0
C      1  0.5344130000000  0.5116900000000  0.5872780000000 1.0
C      1  0.5663780000000  0.4247190000000  0.5124760000000 1.0
C      1  0.4867350000000  0.4236070000000  0.5586440000000 1.0
C      1  0.4514390000000  0.5598220000000  0.5114300000000 1.0
C      1  0.5202150000000  0.5233840000000  0.4450070000000 1.0
C      1  0.5138900000000  0.4240610000000  0.5679230000000 1.0
C      1  0.4820960000000  0.4620030000000  0.4788660000000 1.0
C      1  0.6044510000000  0.5085340000000  0.5365410000000 1.0
C      1  0.4954720000000  0.4723100000000  0.5666180000000 1.0
C      1  0.5502270000000  0.5721370000000  0.4489670000000 1.0
C      1  0.4398130000000  0.4828220000000  0.4136490000000 1.0
C      1  0.5154590000000  0.5559470000000  0.5707850000000 1.0
C      1  0.4757290000000  0.5373920000000  0.4286610000000 1.0
C      1  0.5111870000000  0.4379030000000  0.4918480000000 1.0
C      1  0.4601140000000  0.5550340000000  0.5881930000000 1.0
C      1  0.5550620000000  0.4987220000000  0.5191510000000 1.0
C      1  0.4159550000000  0.5396690000000  0.4853940000000 1.0
C      1  0.4549160000000  0.5542480000000  0.4581310000000 1.0
C      1  0.4313920000000  0.4425010000000  0.4868640000000 1.0
C      1  0.5511340000000  0.4456690000000  0.5286560000000 1.0
C      1  0.5044820000000  0.5886460000000  0.4623410000000 1.0
C      1  0.5310680000000  0.5403180000000  0.5375340000000 1.0
C      1  0.4340710000000  0.4479660000000  0.5370990000000 1.0
C      1  0.4436970000000  0.4562970000000  0.5130420000000 1.0
C      1  0.5864830000000  0.4870660000000  0.5408470000000 1.0
C      1  0.4156930000000  0.4836280000000  0.5438330000000 1.0
C      1  0.5270360000000  0.5645690000000  0.4173570000000 1.0
C      1  0.4580670000000  0.5105000000000  0.4355130000000 1.0
C      1  0.5784620000000  0.5454920000000  0.5242550000000 1.0
C      1  0.5042480000000  0.4793780000000  0.4373580000000 1.0
C      1  0.4267650000000  0.5086530000000  0.4250370000000 1.0
C      1  0.5437810000000  0.5714180000000  0.4931410000000 1.0
C      1  0.4851540000000  0.4430710000000  0.4506760000000 1.0
C      1  0.5064320000000  0.5105610000000  0.4738100000000 1.0
C      1  0.5978700000000  0.5193880000000  0.4875670000000 1.0
C      1  0.4768980000000  0.4158070000000  0.4781430000000 1.0
C      1  0.5378360000000  0.4162950000000  0.5506890000000 1.0
C      1  0.5291360000000  0.4124920000000  0.4807830000000 1.0
C      1  0.4301530000000  0.5168440000000  0.4976460000000 1.0
C      1  0.4858460000000  0.4667330000000  0.5284690000000 1.0
C      1  0.5432460000000  0.5066170000000  0.4586980000000 1.0
C      1  0.4443400000000  0.4960660000000  0.4814500000000 1.0
C      1  0.5124520000000  0.5084490000000  0.5072400000000 1.0
C      1  0.5135950000000  0.4960790000000  0.5569480000000 1.0
C      1  0.4547800000000  0.5809230000000  0.5451880000000 1.0
C      1  0.4787200000000  0.4208630000000  0.5309550000000 1.0
C      1  0.4474530000000  0.4634820000000  0.4406980000000 1.0
C      1  0.5771130000000  0.4489740000000  0.4987870000000 1.0
C      1  0.5131630000000  0.5129210000000  0.4172150000000 1.0
C      1  0.5044680000000  0.5783690000000  0.4297500000000 1.0
C      1  0.4901030000000  0.4574600000000  0.5956480000000 1.0
C      1  0.5513150000000  0.4070840000000  0.4953070000000 1.0
C      1  0.4984780000000  0.5545500000000  0.4996610000000 1.0
C      1  0.4746770000000  0.4822060000000  0.4323940000000 1.0
C      1  0.4311630000000  0.4867810000000  0.5743800000000 1.0
C      1  0.4369630000000  0.5445700000000  0.5719870000000 1.0
C      1  0.5477270000000  0.4518710000000  0.4186060000000 1.0
C      1  0.4535270000000  0.5204780000000  0.4654510000000 1.0
C      1  0.5203320000000  0.5683260000000  0.5428160000000 1.0
C      1  0.4806290000000  0.5728130000000  0.5427410000000 1.0
C      1  0.4904320000000  0.5856810000000  0.4931750000000 1.0
C      1  0.5087310000000  0.5183240000000  0.5363250000000 1.0
C      1  0.4670890000000  0.4928230000000  0.4009010000000 1.0
C      1  0.5449650000000  0.4483820000000  0.5617070000000 1.0
C      1  0.5721900000000  0.5652710000000  0.4885280000000 1.0
C      1  0.4683530000000  0.4732750000000  0.5542810000000 1.0
C      1  0.6019560000000  0.4907830000000  0.4897190000000 1.0
C      1  0.5412450000000  0.5200060000000  0.4962530000000 1.0
C      1  0.4757920000000  0.4961860000000  0.5224290000000 1.0
C      1  0.4349610000000  0.5148240000000  0.5269540000000 1.0
C      1  0.4476440000000  0.4128510000000  0.4912580000000 1.0
C      1  0.5396280000000  0.5415900000000  0.4090300000000 1.0
C      1  0.5832670000000  0.4773430000000  0.4713510000000 1.0
C      1  0.4019170000000  0.5210680000000  0.5251550000000 1.0
C      1  0.4815190000000  0.4451920000000  0.5071220000000 1.0
C      1  0.4618320000000  0.4787790000000  0.4988840000000 1.0
END
