TITL C-2778427-5640-44 0.00281021641351173 125000 -633.854979148636 0 0 107 (C1) n - 1
REM
REM in /home/nfs/bkarasulu/CARBON/AIRSS/Generating-Clusters/REBO/Only-C1/SD-CG/HFTN-CG
REM
REM
REM
REM
REM
REM ./C.cell (11c1c37f851c82e70ff6c80c92926a4b)
REM
REM compiler GCC version 9.2.1 20190827 (Red Hat 9.2.1-1)
REM options -cpp -mtune=generic -march=x86-64 -g -O0 -fpre-include=/usr/include/finclude/math-vector-fortran.h
REM seed -1630228544 -162876780 1803734996 -1928655300 -1607160570 -1818242614 1027262780 1987605248 1153233010 -1056296605 -840637404 -1307981491 -410430922 -731499503 -1027861633 196519896 -463416696 -1952571491 -318603222 1632314994 632858145 442528861 1421423279 563315319 828930259 -1574120619 -782577362 1873575478 -580532665 -1413120885 960782445 1331917611 959991735
REM
CELL 1.54180   50.00000   50.00000   50.00000   90.00000   90.00000   90.00000
LATT -1
SFAC C  
C      1  0.5514240000000  0.5635920000000  0.5424470000000 1.0
C      1  0.4535840000000  0.5393330000000  0.4888940000000 1.0
C      1  0.5399840000000  0.5119060000000  0.4633220000000 1.0
C      1  0.4354130000000  0.5574630000000  0.4672340000000 1.0
C      1  0.4614840000000  0.4604430000000  0.4387090000000 1.0
C      1  0.5612830000000  0.5293130000000  0.4432770000000 1.0
C      1  0.4357690000000  0.4780560000000  0.5058010000000 1.0
C      1  0.5597670000000  0.5312620000000  0.5491810000000 1.0
C      1  0.5896350000000  0.5189000000000  0.4426980000000 1.0
C      1  0.5250750000000  0.4709180000000  0.5855290000000 1.0
C      1  0.4841360000000  0.4889610000000  0.5391050000000 1.0
C      1  0.4657770000000  0.4647160000000  0.5132050000000 1.0
C      1  0.4573780000000  0.5011340000000  0.4993480000000 1.0
C      1  0.4882950000000  0.5172040000000  0.4204700000000 1.0
C      1  0.4922880000000  0.4597780000000  0.4645350000000 1.0
C      1  0.5740330000000  0.4792500000000  0.4615160000000 1.0
C      1  0.5162390000000  0.5338270000000  0.4238600000000 1.0
C      1  0.5047450000000  0.4496200000000  0.5143210000000 1.0
C      1  0.4603260000000  0.5298630000000  0.5177220000000 1.0
C      1  0.4468490000000  0.4884110000000  0.5752550000000 1.0
C      1  0.4918010000000  0.4605350000000  0.4245760000000 1.0
C      1  0.4809490000000  0.5315840000000  0.4697250000000 1.0
C      1  0.5041970000000  0.5596840000000  0.5613160000000 1.0
C      1  0.5030660000000  0.5949910000000  0.4887000000000 1.0
C      1  0.5569630000000  0.4657890000000  0.4352390000000 1.0
C      1  0.5092020000000  0.5540060000000  0.4902650000000 1.0
C      1  0.5739430000000  0.4462920000000  0.4574500000000 1.0
C      1  0.4440050000000  0.5171480000000  0.5680680000000 1.0
C      1  0.5108760000000  0.5851460000000  0.5152000000000 1.0
C      1  0.5271630000000  0.5539730000000  0.4686660000000 1.0
C      1  0.4636710000000  0.4433420000000  0.4669700000000 1.0
C      1  0.4332630000000  0.5586870000000  0.5234330000000 1.0
C      1  0.4097820000000  0.4928840000000  0.5459120000000 1.0
C      1  0.5387900000000  0.5132840000000  0.5633990000000 1.0
C      1  0.5500280000000  0.4644370000000  0.5444600000000 1.0
C      1  0.5472180000000  0.4348440000000  0.5482620000000 1.0
C      1  0.4108190000000  0.5176250000000  0.5052120000000 1.0
C      1  0.4243790000000  0.4743730000000  0.5623190000000 1.0
C      1  0.4111260000000  0.4909160000000  0.5166800000000 1.0
C      1  0.4578400000000  0.4274650000000  0.5447420000000 1.0
C      1  0.5658140000000  0.4176160000000  0.5255120000000 1.0
C      1  0.5083980000000  0.5162240000000  0.4754320000000 1.0
C      1  0.5470270000000  0.5003820000000  0.5124480000000 1.0
C      1  0.5748450000000  0.5491880000000  0.5238990000000 1.0
C      1  0.5108120000000  0.4202010000000  0.4675570000000 1.0
C      1  0.4823700000000  0.4392940000000  0.5603580000000 1.0
C      1  0.5134250000000  0.4307400000000  0.5488170000000 1.0
C      1  0.4757710000000  0.4704730000000  0.5735400000000 1.0
C      1  0.5259080000000  0.4589340000000  0.4235460000000 1.0
C      1  0.5691540000000  0.5101960000000  0.5277190000000 1.0
C      1  0.4384450000000  0.4515310000000  0.4866930000000 1.0
C      1  0.4590840000000  0.4671830000000  0.5440450000000 1.0
C      1  0.4166540000000  0.5361410000000  0.5275260000000 1.0
C      1  0.5406380000000  0.5197670000000  0.4223100000000 1.0
C      1  0.4621270000000  0.5563710000000  0.5381830000000 1.0
C      1  0.5397870000000  0.4888140000000  0.4174970000000 1.0
C      1  0.4343350000000  0.4676600000000  0.4568730000000 1.0
C      1  0.4866040000000  0.4911570000000  0.5057990000000 1.0
C      1  0.5103900000000  0.4949930000000  0.4304420000000 1.0
C      1  0.4691670000000  0.4339820000000  0.5052680000000 1.0
C      1  0.4586690000000  0.5065900000000  0.4679950000000 1.0
C      1  0.4913250000000  0.5735500000000  0.5352390000000 1.0
C      1  0.4990030000000  0.4192170000000  0.5053140000000 1.0
C      1  0.4588550000000  0.5779050000000  0.4817720000000 1.0
C      1  0.4497460000000  0.5121900000000  0.4296930000000 1.0
C      1  0.4277690000000  0.5198280000000  0.4800790000000 1.0
C      1  0.4303270000000  0.4986440000000  0.4535910000000 1.0
C      1  0.4314870000000  0.4482130000000  0.5475190000000 1.0
C      1  0.5139970000000  0.5534240000000  0.4438050000000 1.0
C      1  0.5005640000000  0.4858720000000  0.5825900000000 1.0
C      1  0.4192720000000  0.5202940000000  0.5520330000000 1.0
C      1  0.4718270000000  0.4880510000000  0.4226970000000 1.0
C      1  0.4857310000000  0.5875180000000  0.4683010000000 1.0
C      1  0.5788790000000  0.4196940000000  0.5022390000000 1.0
C      1  0.4992930000000  0.4611480000000  0.5425930000000 1.0
C      1  0.4863000000000  0.5203590000000  0.5327790000000 1.0
C      1  0.5301060000000  0.4274540000000  0.4932950000000 1.0
C      1  0.5231540000000  0.5500990000000  0.5410610000000 1.0
C      1  0.5211720000000  0.4976690000000  0.5427210000000 1.0
C      1  0.5545080000000  0.5673160000000  0.4946260000000 1.0
C      1  0.4686710000000  0.5404620000000  0.4319940000000 1.0
C      1  0.5924760000000  0.5024340000000  0.4647080000000 1.0
C      1  0.5464690000000  0.4803380000000  0.5679850000000 1.0
C      1  0.5072490000000  0.5133970000000  0.5766640000000 1.0
C      1  0.5114350000000  0.5315280000000  0.5239890000000 1.0
C      1  0.5388930000000  0.5769520000000  0.5161190000000 1.0
C      1  0.5789480000000  0.5433200000000  0.4923650000000 1.0
C      1  0.5247210000000  0.5167310000000  0.5034390000000 1.0
C      1  0.5099560000000  0.4865440000000  0.4598490000000 1.0
C      1  0.5104800000000  0.4406170000000  0.4448000000000 1.0
C      1  0.4798450000000  0.4172260000000  0.4775420000000 1.0
C      1  0.4851340000000  0.5596810000000  0.4509220000000 1.0
C      1  0.5004510000000  0.4673310000000  0.4935980000000 1.0
C      1  0.5941190000000  0.5057140000000  0.5153970000000 1.0
C      1  0.5948420000000  0.5167640000000  0.4891010000000 1.0
C      1  0.4389010000000  0.4354300000000  0.5168900000000 1.0
C      1  0.5570270000000  0.5478600000000  0.4674150000000 1.0
C      1  0.5326640000000  0.4158070000000  0.5248760000000 1.0
C      1  0.5413250000000  0.4784210000000  0.4698000000000 1.0
C      1  0.4315590000000  0.5713300000000  0.4982330000000 1.0
C      1  0.5445880000000  0.4720040000000  0.5172660000000 1.0
C      1  0.4374720000000  0.5420670000000  0.4413230000000 1.0
C      1  0.4909180000000  0.5367090000000  0.5731800000000 1.0
C      1  0.4839480000000  0.5611500000000  0.4979560000000 1.0
C      1  0.5793960000000  0.4290380000000  0.4767790000000 1.0
C      1  0.5392780000000  0.4577770000000  0.4932440000000 1.0
C      1  0.4639340000000  0.5365300000000  0.5641300000000 1.0
END
