TITL C-2778432-5617-1067 -0.00162641584635028 125000 -200.553106940441 0 0 35 (C1) n - 1
REM
REM in /home/nfs/bkarasulu/CARBON/AIRSS/Generating-Clusters/REBO/Only-C1/SD-CG/HFTN-CG
REM
REM
REM
REM
REM
REM ./C.cell (11c1c37f851c82e70ff6c80c92926a4b)
REM
REM compiler GCC version 9.2.1 20190827 (Red Hat 9.2.1-1)
REM options -cpp -mtune=generic -march=x86-64 -g -O0 -fpre-include=/usr/include/finclude/math-vector-fortran.h
REM seed 2051708899 -594323098 -1216763799 -1826365892 -898010410 357316191 -752700269 1716869864 1380084355 2145809090 -662663803 -775183654 -706605507 1838679794 809463660 873114681 -1897291132 245097823 -1921115917 -1426941712 1580866357 -829411528 -1148181010 1888595227 1750774388 -208682027 -1933981383 -1985699123 404703108 -697628660 1989456680 1892105961 -895615469
REM
CELL 1.54180   50.00000   50.00000   50.00000   90.00000   90.00000   90.00000
LATT -1
SFAC C  
C      1  0.4673430000000  0.5423260000000  0.5048690000000 1.0
C      1  0.5447890000000  0.5087360000000  0.4488540000000 1.0
C      1  0.4422200000000  0.5334000000000  0.5030020000000 1.0
C      1  0.4910420000000  0.4489310000000  0.5012290000000 1.0
C      1  0.5629920000000  0.5302890000000  0.4915690000000 1.0
C      1  0.4196940000000  0.5185600000000  0.4968540000000 1.0
C      1  0.5935330000000  0.4930800000000  0.5487710000000 1.0
C      1  0.4978190000000  0.4719140000000  0.5206590000000 1.0
C      1  0.4447610000000  0.4728830000000  0.5013100000000 1.0
C      1  0.4509580000000  0.4744260000000  0.5292370000000 1.0
C      1  0.5008810000000  0.5587610000000  0.4726070000000 1.0
C      1  0.5385420000000  0.5365340000000  0.4455720000000 1.0
C      1  0.5179310000000  0.4894940000000  0.5123440000000 1.0
C      1  0.4773590000000  0.4780510000000  0.5394940000000 1.0
C      1  0.4824290000000  0.4896190000000  0.5643050000000 1.0
C      1  0.4933880000000  0.4554220000000  0.4687060000000 1.0
C      1  0.5298000000000  0.4851150000000  0.4869510000000 1.0
C      1  0.5555510000000  0.5013700000000  0.4780350000000 1.0
C      1  0.3913520000000  0.4918980000000  0.4886330000000 1.0
C      1  0.4899010000000  0.4360130000000  0.4491140000000 1.0
C      1  0.4216770000000  0.4865590000000  0.4921550000000 1.0
C      1  0.5768580000000  0.5051880000000  0.5043950000000 1.0
C      1  0.4661470000000  0.4648900000000  0.4859260000000 1.0
C      1  0.4939300000000  0.5479450000000  0.4989930000000 1.0
C      1  0.5289570000000  0.5538040000000  0.4664720000000 1.0
C      1  0.4872020000000  0.5005070000000  0.5876600000000 1.0
C      1  0.5259460000000  0.4881200000000  0.4412400000000 1.0
C      1  0.3880690000000  0.5219850000000  0.4925970000000 1.0
C      1  0.5251600000000  0.5144250000000  0.5259430000000 1.0
C      1  0.4943370000000  0.4230660000000  0.5101270000000 1.0
C      1  0.5410380000000  0.5474280000000  0.4927370000000 1.0
C      1  0.5158160000000  0.4748010000000  0.4643990000000 1.0
C      1  0.5743120000000  0.5029600000000  0.5323780000000 1.0
C      1  0.5192880000000  0.5391150000000  0.5111950000000 1.0
C      1  0.5489790000000  0.5123840000000  0.5416690000000 1.0
END
