TITL C-2778428-5639-335 -0.500818496545888 125000 -1034.03275818883 0 0 175 (C1) n - 1
REM
REM in /home/nfs/bkarasulu/CARBON/AIRSS/Generating-Clusters/REBO/Only-C1/SD-CG/HFTN-CG
REM
REM
REM
REM
REM
REM ./C.cell (11c1c37f851c82e70ff6c80c92926a4b)
REM
REM compiler GCC version 9.2.1 20190827 (Red Hat 9.2.1-1)
REM options -cpp -mtune=generic -march=x86-64 -g -O0 -fpre-include=/usr/include/finclude/math-vector-fortran.h
REM seed -37818935 2143016623 296702273 935465919 -2040634750 -881182061 -801118181 151299119 -1016157364 -140457404 -1785896445 -353545738 736206528 -286048539 397692843 -1548132672 1564716142 -638547033 1072138025 1113392504 -1124225002 -266049745 -1986848483 136542102 -1974605839 -827731115 -1694848845 -722151381 954311572 757477487 18636690 -1890708759 -1381028922
REM
CELL 1.54180   50.00000   50.00000   50.00000   90.00000   90.00000   90.00000
LATT -1
SFAC C  
C      1  0.5829930000000  0.5869610000000  0.4962840000000 1.0
C      1  0.4453970000000  0.4715500000000  0.5936740000000 1.0
C      1  0.4528870000000  0.4828640000000  0.4529280000000 1.0
C      1  0.4323770000000  0.4181260000000  0.5150340000000 1.0
C      1  0.5658490000000  0.4728770000000  0.4705150000000 1.0
C      1  0.4535360000000  0.5452210000000  0.5015380000000 1.0
C      1  0.4583890000000  0.4175950000000  0.5343460000000 1.0
C      1  0.4905060000000  0.5126450000000  0.4791290000000 1.0
C      1  0.5801500000000  0.5324020000000  0.4667470000000 1.0
C      1  0.4422370000000  0.5248940000000  0.4291710000000 1.0
C      1  0.5025060000000  0.4783230000000  0.5459370000000 1.0
C      1  0.4468460000000  0.5169220000000  0.5582320000000 1.0
C      1  0.4216400000000  0.4758280000000  0.5635680000000 1.0
C      1  0.5584260000000  0.5721960000000  0.4472960000000 1.0
C      1  0.4585580000000  0.5375200000000  0.4493730000000 1.0
C      1  0.5321390000000  0.5520810000000  0.4702690000000 1.0
C      1  0.4566680000000  0.5109980000000  0.4087210000000 1.0
C      1  0.5583430000000  0.4272090000000  0.4466200000000 1.0
C      1  0.4936650000000  0.5199000000000  0.5883410000000 1.0
C      1  0.5077870000000  0.5982200000000  0.4932660000000 1.0
C      1  0.4744840000000  0.5643540000000  0.5911750000000 1.0
C      1  0.6066140000000  0.4399900000000  0.4547040000000 1.0
C      1  0.5801850000000  0.4384030000000  0.5084880000000 1.0
C      1  0.5272520000000  0.5485560000000  0.5190290000000 1.0
C      1  0.4815890000000  0.5228630000000  0.4013490000000 1.0
C      1  0.3988940000000  0.5324490000000  0.4499950000000 1.0
C      1  0.4604580000000  0.5755250000000  0.5133550000000 1.0
C      1  0.5279080000000  0.4589380000000  0.5723470000000 1.0
C      1  0.5474130000000  0.4187230000000  0.5391280000000 1.0
C      1  0.4834030000000  0.6071500000000  0.5241250000000 1.0
C      1  0.4457710000000  0.5246670000000  0.5893930000000 1.0
C      1  0.5446970000000  0.5619280000000  0.5550130000000 1.0
C      1  0.4763680000000  0.5267840000000  0.5043480000000 1.0
C      1  0.5762520000000  0.4987370000000  0.5202850000000 1.0
C      1  0.4816220000000  0.4324060000000  0.4520630000000 1.0
C      1  0.4824180000000  0.4786010000000  0.4464310000000 1.0
C      1  0.5224000000000  0.5179510000000  0.4876870000000 1.0
C      1  0.5183980000000  0.5303610000000  0.5677410000000 1.0
C      1  0.5288640000000  0.5207650000000  0.5366490000000 1.0
C      1  0.5167860000000  0.3989070000000  0.4913700000000 1.0
C      1  0.4230420000000  0.5676320000000  0.5244070000000 1.0
C      1  0.5247200000000  0.4296800000000  0.5595920000000 1.0
C      1  0.5568290000000  0.5477650000000  0.4236580000000 1.0
C      1  0.5601150000000  0.5039000000000  0.5751060000000 1.0
C      1  0.5756080000000  0.4613540000000  0.5527370000000 1.0
C      1  0.5484090000000  0.4781200000000  0.5817260000000 1.0
C      1  0.4916060000000  0.5513740000000  0.4169960000000 1.0
C      1  0.4546470000000  0.5776300000000  0.5749780000000 1.0
C      1  0.5217350000000  0.4861570000000  0.3969850000000 1.0
C      1  0.5067770000000  0.5901980000000  0.5670100000000 1.0
C      1  0.4705200000000  0.4686760000000  0.5714860000000 1.0
C      1  0.6018100000000  0.4880130000000  0.5048400000000 1.0
C      1  0.4769380000000  0.4680350000000  0.4084590000000 1.0
C      1  0.4450050000000  0.4684470000000  0.5414060000000 1.0
C      1  0.6004140000000  0.5387890000000  0.5301240000000 1.0
C      1  0.5074180000000  0.5097210000000  0.3848160000000 1.0
C      1  0.5507300000000  0.4434510000000  0.4706790000000 1.0
C      1  0.4633110000000  0.4939260000000  0.5489560000000 1.0
C      1  0.4107410000000  0.5491030000000  0.4773530000000 1.0
C      1  0.4738160000000  0.4699180000000  0.6116480000000 1.0
C      1  0.5580880000000  0.4001240000000  0.4760110000000 1.0
C      1  0.4457380000000  0.5983690000000  0.5154250000000 1.0
C      1  0.4526030000000  0.4825000000000  0.4071680000000 1.0
C      1  0.5292940000000  0.4056400000000  0.4632540000000 1.0
C      1  0.4073530000000  0.4640460000000  0.4781150000000 1.0
C      1  0.3966720000000  0.4650200000000  0.5592930000000 1.0
C      1  0.4784370000000  0.5044960000000  0.5250060000000 1.0
C      1  0.5829310000000  0.4324260000000  0.4352640000000 1.0
C      1  0.5820830000000  0.5269080000000  0.4151870000000 1.0
C      1  0.5014960000000  0.4676910000000  0.5842300000000 1.0
C      1  0.5518380000000  0.4951520000000  0.4505430000000 1.0
C      1  0.5215960000000  0.5468160000000  0.5973610000000 1.0
C      1  0.4844710000000  0.5267620000000  0.4525660000000 1.0
C      1  0.5069750000000  0.5154510000000  0.4355420000000 1.0
C      1  0.4217780000000  0.4942300000000  0.5039260000000 1.0
C      1  0.4401380000000  0.5721570000000  0.5512190000000 1.0
C      1  0.5393790000000  0.4664150000000  0.4085880000000 1.0
C      1  0.5112320000000  0.5542650000000  0.5481330000000 1.0
C      1  0.4651680000000  0.4397640000000  0.5985000000000 1.0
C      1  0.5499540000000  0.4826060000000  0.5171610000000 1.0
C      1  0.4130410000000  0.4505760000000  0.5258020000000 1.0
C      1  0.4298370000000  0.4313460000000  0.5471820000000 1.0
C      1  0.6066510000000  0.4574030000000  0.5045190000000 1.0
C      1  0.4393230000000  0.4424610000000  0.5767420000000 1.0
C      1  0.3835100000000  0.5281880000000  0.4801340000000 1.0
C      1  0.5192890000000  0.5901210000000  0.5212000000000 1.0
C      1  0.4837620000000  0.5909380000000  0.5479790000000 1.0
C      1  0.4535030000000  0.5902860000000  0.4770510000000 1.0
C      1  0.4099110000000  0.4878340000000  0.4300700000000 1.0
C      1  0.5202600000000  0.4419120000000  0.4197520000000 1.0
C      1  0.5668550000000  0.5242430000000  0.5078240000000 1.0
C      1  0.5505310000000  0.4508380000000  0.5099500000000 1.0
C      1  0.4701740000000  0.4109010000000  0.4754290000000 1.0
C      1  0.5024690000000  0.5713440000000  0.5888150000000 1.0
C      1  0.5286790000000  0.5375140000000  0.4219010000000 1.0
C      1  0.6014370000000  0.4322330000000  0.4827880000000 1.0
C      1  0.5721670000000  0.4329970000000  0.5382420000000 1.0
C      1  0.5435180000000  0.4603690000000  0.5421530000000 1.0
C      1  0.5170470000000  0.5825180000000  0.4724650000000 1.0
C      1  0.4602010000000  0.5844170000000  0.4466690000000 1.0
C      1  0.4151680000000  0.4403780000000  0.4946830000000 1.0
C      1  0.4379930000000  0.4688600000000  0.5107930000000 1.0
C      1  0.4311040000000  0.4705680000000  0.4217970000000 1.0
C      1  0.4913970000000  0.4613160000000  0.5013100000000 1.0
C      1  0.4992120000000  0.4922490000000  0.6074230000000 1.0
C      1  0.4881740000000  0.4009610000000  0.4949340000000 1.0
C      1  0.4775160000000  0.5577160000000  0.5441580000000 1.0
C      1  0.4525660000000  0.4448270000000  0.4651800000000 1.0
C      1  0.5267220000000  0.5009010000000  0.5126960000000 1.0
C      1  0.5227200000000  0.5162760000000  0.6129210000000 1.0
C      1  0.6074400000000  0.4924310000000  0.4456010000000 1.0
C      1  0.4674090000000  0.4442900000000  0.5486330000000 1.0
C      1  0.5202000000000  0.4909600000000  0.4508440000000 1.0
C      1  0.4559760000000  0.4300650000000  0.4196910000000 1.0
C      1  0.4930810000000  0.5690410000000  0.5159450000000 1.0
C      1  0.5932540000000  0.5487180000000  0.4921200000000 1.0
C      1  0.5122320000000  0.4346640000000  0.4645190000000 1.0
C      1  0.5667970000000  0.5459460000000  0.5755330000000 1.0
C      1  0.5881950000000  0.4999190000000  0.4196680000000 1.0
C      1  0.5266490000000  0.4375590000000  0.4942170000000 1.0
C      1  0.5320660000000  0.4716880000000  0.4754360000000 1.0
C      1  0.5915680000000  0.5695010000000  0.5191020000000 1.0
C      1  0.5036730000000  0.5446650000000  0.4982390000000 1.0
C      1  0.4217610000000  0.5051660000000  0.5751770000000 1.0
C      1  0.5120290000000  0.5559730000000  0.4430200000000 1.0
C      1  0.4816600000000  0.4038750000000  0.5227900000000 1.0
C      1  0.4496240000000  0.5545860000000  0.4710250000000 1.0
C      1  0.4251690000000  0.5365670000000  0.5155450000000 1.0
C      1  0.5493710000000  0.5226870000000  0.4674060000000 1.0
C      1  0.5494910000000  0.5272340000000  0.5951200000000 1.0
C      1  0.4322210000000  0.4863130000000  0.4714310000000 1.0
C      1  0.4704650000000  0.5716580000000  0.4283910000000 1.0
C      1  0.4479150000000  0.5411500000000  0.5407450000000 1.0
C      1  0.5040920000000  0.4360480000000  0.5153800000000 1.0
C      1  0.4839700000000  0.4837860000000  0.4777860000000 1.0
C      1  0.3952400000000  0.5188440000000  0.5677160000000 1.0
C      1  0.6084390000000  0.5209740000000  0.5049830000000 1.0
C      1  0.6027030000000  0.5118990000000  0.4730740000000 1.0
C      1  0.5568020000000  0.5218570000000  0.5463910000000 1.0
C      1  0.5340080000000  0.4178970000000  0.4318780000000 1.0
C      1  0.4992570000000  0.4482000000000  0.5466360000000 1.0
C      1  0.5312010000000  0.5832100000000  0.4453940000000 1.0
C      1  0.5138940000000  0.5396480000000  0.3936930000000 1.0
C      1  0.5014580000000  0.4861590000000  0.5170850000000 1.0
C      1  0.3932100000000  0.4771420000000  0.4501020000000 1.0
C      1  0.4984450000000  0.4963380000000  0.5676790000000 1.0
C      1  0.5692440000000  0.5520530000000  0.5364010000000 1.0
C      1  0.3937470000000  0.4959590000000  0.4761610000000 1.0
C      1  0.4703880000000  0.5366130000000  0.5962580000000 1.0
C      1  0.4870700000000  0.4394030000000  0.4191790000000 1.0
C      1  0.5889830000000  0.5260950000000  0.5588340000000 1.0
C      1  0.5833160000000  0.4930280000000  0.5526410000000 1.0
C      1  0.5924120000000  0.4641220000000  0.4355370000000 1.0
C      1  0.3880940000000  0.4678050000000  0.5320400000000 1.0
C      1  0.5094600000000  0.4601810000000  0.4447520000000 1.0
C      1  0.4596420000000  0.4634380000000  0.4900390000000 1.0
C      1  0.3931170000000  0.4954220000000  0.5211780000000 1.0
C      1  0.5513180000000  0.5477220000000  0.4982770000000 1.0
C      1  0.5936840000000  0.4795970000000  0.4739790000000 1.0
C      1  0.3979010000000  0.5254030000000  0.5094410000000 1.0
C      1  0.5677740000000  0.5691080000000  0.4760660000000 1.0
C      1  0.5634920000000  0.4784160000000  0.4246050000000 1.0
C      1  0.4781150000000  0.6049640000000  0.4931860000000 1.0
C      1  0.4400580000000  0.4202530000000  0.4833020000000 1.0
C      1  0.4980440000000  0.4893530000000  0.4178160000000 1.0
C      1  0.3850710000000  0.5169700000000  0.5447010000000 1.0
C      1  0.5802880000000  0.4077610000000  0.4829950000000 1.0
C      1  0.5856030000000  0.5455570000000  0.4404430000000 1.0
C      1  0.4215140000000  0.5168940000000  0.4788190000000 1.0
C      1  0.4149120000000  0.5165820000000  0.4330480000000 1.0
C      1  0.5295320000000  0.5894130000000  0.5482360000000 1.0
C      1  0.4400690000000  0.4466010000000  0.4356650000000 1.0
C      1  0.5084920000000  0.4104540000000  0.5380930000000 1.0
C      1  0.4271910000000  0.5730060000000  0.4908940000000 1.0
C      1  0.5316730000000  0.4035600000000  0.5157360000000 1.0
END
