TITL C-2778428-5639-623 0.00429819134110825 125000 -239.551450542299 0 0 42 (C1) n - 1
REM
REM in /home/nfs/bkarasulu/CARBON/AIRSS/Generating-Clusters/REBO/Only-C1/SD-CG/HFTN-CG
REM
REM
REM
REM
REM
REM ./C.cell (11c1c37f851c82e70ff6c80c92926a4b)
REM
REM compiler GCC version 9.2.1 20190827 (Red Hat 9.2.1-1)
REM options -cpp -mtune=generic -march=x86-64 -g -O0 -fpre-include=/usr/include/finclude/math-vector-fortran.h
REM seed 339879144 216775251 1128559849 -1761024003 1867175743 -25578823 -2097302156 1725329399 1939954856 244837844 1950619141 -1785450744 -1081687264 529445941 -93449700 511071835 -520916116 1198295059 -748706401 -331514483 2129262189 -65720834 -828247191 -753068420 -602086944 -2087016777 1506354620 -1286111359 1447476784 -1093841234 1249088477 -1532254816 210016569
REM
CELL 1.54180   50.00000   50.00000   50.00000   90.00000   90.00000   90.00000
LATT -1
SFAC C  
C      1  0.4744640000000  0.5058510000000  0.4464920000000 1.0
C      1  0.5304890000000  0.5293610000000  0.4938100000000 1.0
C      1  0.4707310000000  0.5233330000000  0.5311650000000 1.0
C      1  0.5569660000000  0.4841160000000  0.5414940000000 1.0
C      1  0.5021260000000  0.4744950000000  0.5412620000000 1.0
C      1  0.5623140000000  0.4866600000000  0.4949270000000 1.0
C      1  0.5086970000000  0.5571190000000  0.4069000000000 1.0
C      1  0.5047900000000  0.5346070000000  0.4764180000000 1.0
C      1  0.4786220000000  0.5556380000000  0.4808110000000 1.0
C      1  0.4476180000000  0.5174290000000  0.5106010000000 1.0
C      1  0.4781070000000  0.5818810000000  0.4812110000000 1.0
C      1  0.4521610000000  0.4611040000000  0.4858700000000 1.0
C      1  0.5563440000000  0.5144100000000  0.5027280000000 1.0
C      1  0.4711070000000  0.4775520000000  0.4453480000000 1.0
C      1  0.4889550000000  0.4576230000000  0.4589290000000 1.0
C      1  0.5380860000000  0.5307350000000  0.5459540000000 1.0
C      1  0.4512980000000  0.4685170000000  0.5334200000000 1.0
C      1  0.5249680000000  0.5299190000000  0.5709820000000 1.0
C      1  0.5184420000000  0.4671060000000  0.4840440000000 1.0
C      1  0.4808190000000  0.5180960000000  0.5565360000000 1.0
C      1  0.4992880000000  0.4859720000000  0.4942240000000 1.0
C      1  0.4549850000000  0.5338730000000  0.4837690000000 1.0
C      1  0.5058660000000  0.5402100000000  0.4258030000000 1.0
C      1  0.4457240000000  0.4845480000000  0.5069120000000 1.0
C      1  0.5139760000000  0.4837040000000  0.5662580000000 1.0
C      1  0.4718850000000  0.4956250000000  0.4882000000000 1.0
C      1  0.4805310000000  0.4514020000000  0.4870630000000 1.0
C      1  0.5589680000000  0.5127790000000  0.5328420000000 1.0
C      1  0.5540900000000  0.4677780000000  0.5164660000000 1.0
C      1  0.5238810000000  0.4972160000000  0.4460640000000 1.0
C      1  0.4855570000000  0.5227390000000  0.5011380000000 1.0
C      1  0.4461220000000  0.4679350000000  0.4584090000000 1.0
C      1  0.5039460000000  0.5105060000000  0.5719260000000 1.0
C      1  0.5214440000000  0.5199810000000  0.5214490000000 1.0
C      1  0.5424040000000  0.4793110000000  0.5658550000000 1.0
C      1  0.5288830000000  0.4737870000000  0.4587850000000 1.0
C      1  0.5024460000000  0.5197770000000  0.4486450000000 1.0
C      1  0.5300960000000  0.4536140000000  0.5087590000000 1.0
C      1  0.4759090000000  0.4576180000000  0.5376220000000 1.0
C      1  0.5072830000000  0.4952850000000  0.5204380000000 1.0
C      1  0.4531200000000  0.5198330000000  0.4572250000000 1.0
C      1  0.4964930000000  0.4509560000000  0.5132430000000 1.0
END
