TITL C-2778430-5657-1386 0.00284182388070563 125000 -186.989887985139 0 0 35 (C1) n - 1
REM
REM in /home/nfs/bkarasulu/CARBON/AIRSS/Generating-Clusters/REBO/Only-C1/SD-CG/HFTN-CG
REM
REM
REM
REM
REM
REM ./C.cell (11c1c37f851c82e70ff6c80c92926a4b)
REM
REM compiler GCC version 9.2.1 20190827 (Red Hat 9.2.1-1)
REM options -cpp -mtune=generic -march=x86-64 -g -O0 -fpre-include=/usr/include/finclude/math-vector-fortran.h
REM seed 1322557941 1184549237 -1173927082 178945105 -412766991 783836597 1917363664 1525514407 -1289370799 1478704264 1577072426 -1165739170 -318122726 -1496618893 -465169040 -1079306284 -1110060167 1835775329 1540926910 -965990977 -1428549 -640852686 -1448835751 809272581 1395694073 2055841115 997176659 -593657366 -1258538325 352775963 -1897460531 1335441015 -1676745883
REM
CELL 1.54180   50.00000   50.00000   50.00000   90.00000   90.00000   90.00000
LATT -1
SFAC C  
C      1  0.5951120000000  0.5006980000000  0.4752590000000 1.0
C      1  0.4860260000000  0.5033230000000  0.5283510000000 1.0
C      1  0.4687530000000  0.5507920000000  0.5171630000000 1.0
C      1  0.4503140000000  0.5093730000000  0.5476830000000 1.0
C      1  0.4936560000000  0.4645260000000  0.5266620000000 1.0
C      1  0.5132980000000  0.5697600000000  0.5368610000000 1.0
C      1  0.4436850000000  0.5128830000000  0.4978170000000 1.0
C      1  0.4931540000000  0.5294370000000  0.5587820000000 1.0
C      1  0.4423460000000  0.4799930000000  0.5439130000000 1.0
C      1  0.4723470000000  0.5587550000000  0.4907950000000 1.0
C      1  0.5139690000000  0.4985970000000  0.5227530000000 1.0
C      1  0.4341720000000  0.4692350000000  0.5191540000000 1.0
C      1  0.4589250000000  0.5216690000000  0.5196400000000 1.0
C      1  0.5192260000000  0.5104640000000  0.4434370000000 1.0
C      1  0.4789860000000  0.4253830000000  0.4325520000000 1.0
C      1  0.4932550000000  0.5040470000000  0.4890690000000 1.0
C      1  0.4973870000000  0.5145010000000  0.4595890000000 1.0
C      1  0.4972460000000  0.5471920000000  0.5331430000000 1.0
C      1  0.5700150000000  0.4643400000000  0.4586590000000 1.0
C      1  0.5542690000000  0.4873450000000  0.4991680000000 1.0
C      1  0.4705660000000  0.4561300000000  0.4750420000000 1.0
C      1  0.4907300000000  0.5411860000000  0.4747810000000 1.0
C      1  0.5490150000000  0.4656720000000  0.5171670000000 1.0
C      1  0.4834360000000  0.4763000000000  0.4987640000000 1.0
C      1  0.5006860000000  0.5311690000000  0.5041020000000 1.0
C      1  0.5691610000000  0.4896290000000  0.4716510000000 1.0
C      1  0.5324450000000  0.5236500000000  0.4788980000000 1.0
C      1  0.4512070000000  0.4671910000000  0.4974160000000 1.0
C      1  0.4748320000000  0.4405530000000  0.4535150000000 1.0
C      1  0.5433760000000  0.5108070000000  0.4231240000000 1.0
C      1  0.4749810000000  0.5101270000000  0.5658380000000 1.0
C      1  0.5332570000000  0.5076440000000  0.5026320000000 1.0
C      1  0.4757970000000  0.4792100000000  0.5502570000000 1.0
C      1  0.5509300000000  0.5092340000000  0.4562750000000 1.0
C      1  0.5234380000000  0.4691840000000  0.5300880000000 1.0
END
