TITL C-2778429-3646-297 -0.00650654263354094 125000 -870.428051969604 0 0 152 (C1) n - 1
REM
REM in /home/nfs/bkarasulu/CARBON/AIRSS/Generating-Clusters/REBO/Only-C1/SD-CG/HFTN-CG
REM
REM
REM
REM
REM
REM ./C.cell (11c1c37f851c82e70ff6c80c92926a4b)
REM
REM compiler GCC version 9.2.1 20190827 (Red Hat 9.2.1-1)
REM options -cpp -mtune=generic -march=x86-64 -g -O0 -fpre-include=/usr/include/finclude/math-vector-fortran.h
REM seed -1250414009 -2033037860 1841386655 302134015 -601905890 1127395800 1208058063 1417432174 -101464448 837003520 1722009844 2007564500 -1219538823 -682009967 -288048577 281810666 1358522070 511203203 -1631609927 -1122324408 -77056656 -295715643 -816621903 198115199 768761277 212076396 593866814 -1573164341 -1953459432 1843150741 17891964 -360632737 -1529991728
REM
CELL 1.54180   50.00000   50.00000   50.00000   90.00000   90.00000   90.00000
LATT -1
SFAC C  
C      1  0.5462270000000  0.4601750000000  0.4272940000000 1.0
C      1  0.5603400000000  0.5214800000000  0.5849850000000 1.0
C      1  0.4994820000000  0.5942530000000  0.5159020000000 1.0
C      1  0.4511860000000  0.4771160000000  0.5109710000000 1.0
C      1  0.4978700000000  0.4950690000000  0.3883140000000 1.0
C      1  0.4548930000000  0.5423760000000  0.5787380000000 1.0
C      1  0.4816780000000  0.4375980000000  0.5213370000000 1.0
C      1  0.4661280000000  0.5381250000000  0.5151260000000 1.0
C      1  0.5195670000000  0.4384510000000  0.4262990000000 1.0
C      1  0.5686830000000  0.4712150000000  0.4773090000000 1.0
C      1  0.4667200000000  0.4548280000000  0.5732090000000 1.0
C      1  0.5873820000000  0.5461430000000  0.5133640000000 1.0
C      1  0.4446750000000  0.5534050000000  0.4766240000000 1.0
C      1  0.4574350000000  0.5770170000000  0.4552560000000 1.0
C      1  0.5047570000000  0.5599500000000  0.4319760000000 1.0
C      1  0.5291490000000  0.5384390000000  0.4622430000000 1.0
C      1  0.4656290000000  0.4001990000000  0.4480420000000 1.0
C      1  0.5001810000000  0.5539260000000  0.4712260000000 1.0
C      1  0.5489950000000  0.4400280000000  0.5550270000000 1.0
C      1  0.5995660000000  0.4986190000000  0.5560550000000 1.0
C      1  0.4797880000000  0.4451520000000  0.4779530000000 1.0
C      1  0.4674680000000  0.5171390000000  0.5407820000000 1.0
C      1  0.5666520000000  0.4993630000000  0.5473310000000 1.0
C      1  0.4645990000000  0.5351830000000  0.4331110000000 1.0
C      1  0.4403540000000  0.4967480000000  0.5866220000000 1.0
C      1  0.5498100000000  0.5770920000000  0.4799000000000 1.0
C      1  0.5494850000000  0.4482980000000  0.5219040000000 1.0
C      1  0.5551660000000  0.4005670000000  0.4846230000000 1.0
C      1  0.6176890000000  0.4258210000000  0.5094900000000 1.0
C      1  0.4965010000000  0.5345300000000  0.6094110000000 1.0
C      1  0.4398080000000  0.5517910000000  0.4436890000000 1.0
C      1  0.5237340000000  0.5776360000000  0.4633940000000 1.0
C      1  0.5048500000000  0.5312670000000  0.5438740000000 1.0
C      1  0.5485870000000  0.4954110000000  0.5827710000000 1.0
C      1  0.5355130000000  0.5223280000000  0.5319100000000 1.0
C      1  0.4860960000000  0.4498160000000  0.4467400000000 1.0
C      1  0.4265980000000  0.5313090000000  0.4872240000000 1.0
C      1  0.5205910000000  0.4723870000000  0.5454090000000 1.0
C      1  0.4260330000000  0.4464950000000  0.5515370000000 1.0
C      1  0.4419540000000  0.5075340000000  0.4155300000000 1.0
C      1  0.5532780000000  0.5618660000000  0.5614740000000 1.0
C      1  0.5222580000000  0.4873190000000  0.5057480000000 1.0
C      1  0.4450720000000  0.4783210000000  0.4201310000000 1.0
C      1  0.6080330000000  0.5256210000000  0.4957170000000 1.0
C      1  0.4934860000000  0.4131850000000  0.5712010000000 1.0
C      1  0.4792370000000  0.5556930000000  0.5955000000000 1.0
C      1  0.5644150000000  0.4796270000000  0.4449980000000 1.0
C      1  0.4412100000000  0.5577200000000  0.5250130000000 1.0
C      1  0.5371550000000  0.5604100000000  0.4372090000000 1.0
C      1  0.5066500000000  0.5226710000000  0.4958290000000 1.0
C      1  0.5564500000000  0.4131180000000  0.4604900000000 1.0
C      1  0.4322260000000  0.5062300000000  0.4676240000000 1.0
C      1  0.4301110000000  0.4809580000000  0.4842740000000 1.0
C      1  0.4458780000000  0.4193530000000  0.5109970000000 1.0
C      1  0.4832820000000  0.5103640000000  0.6150620000000 1.0
C      1  0.4150330000000  0.4631820000000  0.4270750000000 1.0
C      1  0.5219030000000  0.5708180000000  0.5214880000000 1.0
C      1  0.4461170000000  0.4198550000000  0.5446240000000 1.0
C      1  0.5706060000000  0.5745030000000  0.5221680000000 1.0
C      1  0.6107950000000  0.5005890000000  0.5112380000000 1.0
C      1  0.5184470000000  0.5504500000000  0.5934470000000 1.0
C      1  0.5908080000000  0.4927390000000  0.4622400000000 1.0
C      1  0.4175040000000  0.4976660000000  0.5506810000000 1.0
C      1  0.5334380000000  0.4968640000000  0.5544650000000 1.0
C      1  0.5808180000000  0.4920840000000  0.5087990000000 1.0
C      1  0.5790650000000  0.5512920000000  0.5459540000000 1.0
C      1  0.3950990000000  0.5282270000000  0.4998640000000 1.0
C      1  0.4049680000000  0.4842540000000  0.5255890000000 1.0
C      1  0.4030310000000  0.4681080000000  0.4893500000000 1.0
C      1  0.5106980000000  0.4058560000000  0.4996960000000 1.0
C      1  0.4160560000000  0.5389940000000  0.5249510000000 1.0
C      1  0.5960210000000  0.5201150000000  0.4691690000000 1.0
C      1  0.4759510000000  0.4797970000000  0.4776420000000 1.0
C      1  0.5086830000000  0.4795430000000  0.4767920000000 1.0
C      1  0.5450830000000  0.4158690000000  0.5311820000000 1.0
C      1  0.4601190000000  0.4689820000000  0.4495260000000 1.0
C      1  0.4879280000000  0.4074770000000  0.4676230000000 1.0
C      1  0.4784340000000  0.5173790000000  0.4826040000000 1.0
C      1  0.4597490000000  0.5550190000000  0.5505390000000 1.0
C      1  0.4608870000000  0.4972100000000  0.6064670000000 1.0
C      1  0.5972320000000  0.4409910000000  0.5078640000000 1.0
C      1  0.5078130000000  0.4361340000000  0.4911440000000 1.0
C      1  0.5727080000000  0.4591780000000  0.5059140000000 1.0
C      1  0.5221250000000  0.5073980000000  0.4347950000000 1.0
C      1  0.5117810000000  0.4205060000000  0.4546280000000 1.0
C      1  0.4739750000000  0.5878210000000  0.5014730000000 1.0
C      1  0.4258720000000  0.5081680000000  0.5132330000000 1.0
C      1  0.4215700000000  0.4414940000000  0.5005360000000 1.0
C      1  0.4545520000000  0.4512200000000  0.5332920000000 1.0
C      1  0.5253000000000  0.4153710000000  0.5591100000000 1.0
C      1  0.4695950000000  0.4268980000000  0.5665850000000 1.0
C      1  0.5484590000000  0.4293040000000  0.4413770000000 1.0
C      1  0.4852930000000  0.4767890000000  0.4129980000000 1.0
C      1  0.4482220000000  0.4918390000000  0.5419080000000 1.0
C      1  0.5006150000000  0.5728560000000  0.5766160000000 1.0
C      1  0.4589220000000  0.4491810000000  0.4116680000000 1.0
C      1  0.5150260000000  0.5332130000000  0.4132060000000 1.0
C      1  0.4897430000000  0.5586750000000  0.5483940000000 1.0
C      1  0.4616590000000  0.5108240000000  0.4568660000000 1.0
C      1  0.4772180000000  0.4119630000000  0.4996880000000 1.0
C      1  0.5482380000000  0.4898710000000  0.4101540000000 1.0
C      1  0.5531350000000  0.5902670000000  0.5058980000000 1.0
C      1  0.5493980000000  0.4942220000000  0.5183020000000 1.0
C      1  0.4131800000000  0.5266760000000  0.5546160000000 1.0
C      1  0.5355540000000  0.5750200000000  0.5447020000000 1.0
C      1  0.6193060000000  0.4962330000000  0.5376790000000 1.0
C      1  0.4352320000000  0.4480930000000  0.4438210000000 1.0
C      1  0.5158700000000  0.4530110000000  0.4630920000000 1.0
C      1  0.5374920000000  0.4004770000000  0.5068170000000 1.0
C      1  0.4280320000000  0.6055060000000  0.5146630000000 1.0
C      1  0.4320640000000  0.5229580000000  0.5779300000000 1.0
C      1  0.5530240000000  0.5099240000000  0.4444020000000 1.0
C      1  0.5443320000000  0.5456060000000  0.5836030000000 1.0
C      1  0.5686810000000  0.5221890000000  0.4986510000000 1.0
C      1  0.4830700000000  0.5256620000000  0.5696810000000 1.0
C      1  0.4932820000000  0.5322750000000  0.4463910000000 1.0
C      1  0.5141840000000  0.4521800000000  0.5696780000000 1.0
C      1  0.4928210000000  0.4454850000000  0.4079350000000 1.0
C      1  0.4914820000000  0.5227520000000  0.3938230000000 1.0
C      1  0.5603020000000  0.5393240000000  0.4320450000000 1.0
C      1  0.5466690000000  0.5216920000000  0.4069540000000 1.0
C      1  0.4846100000000  0.5009040000000  0.4354470000000 1.0
C      1  0.4454990000000  0.5858820000000  0.5139170000000 1.0
C      1  0.4415220000000  0.4709850000000  0.5670250000000 1.0
C      1  0.4847640000000  0.4692520000000  0.5091690000000 1.0
C      1  0.3897870000000  0.4977420000000  0.4996740000000 1.0
C      1  0.4899420000000  0.4959060000000  0.5546810000000 1.0
C      1  0.4897550000000  0.4707270000000  0.5707940000000 1.0
C      1  0.4891640000000  0.5834990000000  0.4446200000000 1.0
C      1  0.4757230000000  0.5575750000000  0.4901330000000 1.0
C      1  0.5070070000000  0.6039320000000  0.4663180000000 1.0
C      1  0.5449650000000  0.4651410000000  0.5761230000000 1.0
C      1  0.5171470000000  0.4836120000000  0.4131240000000 1.0
C      1  0.5061150000000  0.4355310000000  0.5409460000000 1.0
C      1  0.5523480000000  0.5460550000000  0.4831980000000 1.0
C      1  0.4279560000000  0.5206950000000  0.4378290000000 1.0
C      1  0.5285590000000  0.5441010000000  0.5078330000000 1.0
C      1  0.4649910000000  0.5248190000000  0.4040320000000 1.0
C      1  0.4093510000000  0.4549740000000  0.5265590000000 1.0
C      1  0.5221070000000  0.5072860000000  0.4694220000000 1.0
C      1  0.4987720000000  0.5902230000000  0.5474310000000 1.0
C      1  0.5821140000000  0.5255250000000  0.5622890000000 1.0
C      1  0.4562920000000  0.5099210000000  0.5033270000000 1.0
C      1  0.5010660000000  0.5042920000000  0.5235050000000 1.0
C      1  0.5166000000000  0.4561590000000  0.5156830000000 1.0
C      1  0.4539850000000  0.4464900000000  0.4935880000000 1.0
C      1  0.4476350000000  0.4225320000000  0.4297510000000 1.0
C      1  0.5761670000000  0.5386520000000  0.4598670000000 1.0
C      1  0.4815970000000  0.4227250000000  0.4291740000000 1.0
C      1  0.4751540000000  0.5982520000000  0.4723960000000 1.0
C      1  0.5548440000000  0.5015630000000  0.4770090000000 1.0
C      1  0.5236360000000  0.6021950000000  0.4960630000000 1.0
END
