TITL C-2778426-5645-146 0.002715454454907 125000 -494.668050553052 0 0 89 (C1) n - 1
REM
REM in /home/nfs/bkarasulu/CARBON/AIRSS/Generating-Clusters/REBO/Only-C1/SD-CG/HFTN-CG
REM
REM
REM
REM
REM
REM ./C.cell (11c1c37f851c82e70ff6c80c92926a4b)
REM
REM compiler GCC version 9.2.1 20190827 (Red Hat 9.2.1-1)
REM options -cpp -mtune=generic -march=x86-64 -g -O0 -fpre-include=/usr/include/finclude/math-vector-fortran.h
REM seed 1720817096 -393778704 857624505 212173016 791653077 -1470526421 -1289840318 2031332972 1256525480 1293286610 -1900122982 1747391982 148701951 1030223610 -711111385 957808114 -1493211029 -969626014 -305416910 1581783958 1462096836 -252101545 -1636105335 -1757844034 719081772 448454696 -288763226 -1257952182 -561372835 -245864301 1953275491 -1851842129 -937151467
REM
CELL 1.54180   50.00000   50.00000   50.00000   90.00000   90.00000   90.00000
LATT -1
SFAC C  
C      1  0.5111450000000  0.4423990000000  0.4399320000000 1.0
C      1  0.5737680000000  0.5289920000000  0.5029790000000 1.0
C      1  0.4879320000000  0.4557850000000  0.4244530000000 1.0
C      1  0.5331390000000  0.4910080000000  0.5222690000000 1.0
C      1  0.4848010000000  0.4748960000000  0.5386440000000 1.0
C      1  0.4767420000000  0.5613010000000  0.4440220000000 1.0
C      1  0.4799360000000  0.4852770000000  0.4529980000000 1.0
C      1  0.4852480000000  0.4291180000000  0.5166820000000 1.0
C      1  0.5385820000000  0.4952890000000  0.4828820000000 1.0
C      1  0.4595080000000  0.5163770000000  0.4201010000000 1.0
C      1  0.4642580000000  0.4806110000000  0.4790760000000 1.0
C      1  0.4688900000000  0.5293720000000  0.5641880000000 1.0
C      1  0.5496000000000  0.4863070000000  0.5494130000000 1.0
C      1  0.4956150000000  0.4805410000000  0.4135420000000 1.0
C      1  0.4806070000000  0.4437990000000  0.5663860000000 1.0
C      1  0.4961800000000  0.5224310000000  0.5791660000000 1.0
C      1  0.5305250000000  0.4630700000000  0.4848180000000 1.0
C      1  0.5107670000000  0.4708210000000  0.5198390000000 1.0
C      1  0.4488520000000  0.4454710000000  0.5049340000000 1.0
C      1  0.5424890000000  0.5471340000000  0.4703390000000 1.0
C      1  0.5038270000000  0.5531110000000  0.4399510000000 1.0
C      1  0.4315560000000  0.5280600000000  0.4674290000000 1.0
C      1  0.5181610000000  0.5590270000000  0.5504480000000 1.0
C      1  0.5152410000000  0.5513170000000  0.5080900000000 1.0
C      1  0.5004420000000  0.4695260000000  0.5749940000000 1.0
C      1  0.5781200000000  0.4589540000000  0.5135020000000 1.0
C      1  0.4613940000000  0.4687740000000  0.5167710000000 1.0
C      1  0.5260180000000  0.5626910000000  0.4550330000000 1.0
C      1  0.4738160000000  0.5786110000000  0.4667690000000 1.0
C      1  0.5657080000000  0.5084800000000  0.5546830000000 1.0
C      1  0.4185610000000  0.5336900000000  0.4986080000000 1.0
C      1  0.5727380000000  0.4747200000000  0.4836270000000 1.0
C      1  0.4952910000000  0.5831510000000  0.4927610000000 1.0
C      1  0.5424380000000  0.5433390000000  0.5230580000000 1.0
C      1  0.5546960000000  0.4978800000000  0.4335300000000 1.0
C      1  0.4814500000000  0.4342490000000  0.4852240000000 1.0
C      1  0.5732240000000  0.5420870000000  0.5345690000000 1.0
C      1  0.4851860000000  0.5141700000000  0.5310900000000 1.0
C      1  0.4537380000000  0.5175110000000  0.4900500000000 1.0
C      1  0.5659510000000  0.4897210000000  0.5132100000000 1.0
C      1  0.4581210000000  0.4886720000000  0.4297480000000 1.0
C      1  0.5594810000000  0.4566300000000  0.4580680000000 1.0
C      1  0.5084650000000  0.4732470000000  0.6039980000000 1.0
C      1  0.4974630000000  0.5505520000000  0.4819850000000 1.0
C      1  0.5862200000000  0.5117390000000  0.5288370000000 1.0
C      1  0.4463350000000  0.5513550000000  0.5388080000000 1.0
C      1  0.4663440000000  0.4321070000000  0.5381810000000 1.0
C      1  0.5580100000000  0.4340020000000  0.5146180000000 1.0
C      1  0.5409060000000  0.4351790000000  0.5426210000000 1.0
C      1  0.4636880000000  0.5345620000000  0.5147390000000 1.0
C      1  0.4650470000000  0.5576610000000  0.4899460000000 1.0
C      1  0.4885990000000  0.5459280000000  0.5437570000000 1.0
C      1  0.4926540000000  0.4975590000000  0.5600100000000 1.0
C      1  0.4507700000000  0.5723440000000  0.5131630000000 1.0
C      1  0.4721660000000  0.4389150000000  0.4468130000000 1.0
C      1  0.5061410000000  0.4746810000000  0.4628170000000 1.0
C      1  0.5037600000000  0.5782450000000  0.5257500000000 1.0
C      1  0.4886640000000  0.5097120000000  0.4151940000000 1.0
C      1  0.4485150000000  0.5138190000000  0.5523730000000 1.0
C      1  0.5231090000000  0.4939160000000  0.4279410000000 1.0
C      1  0.5334490000000  0.4660530000000  0.4449990000000 1.0
C      1  0.5082170000000  0.5225130000000  0.4358200000000 1.0
C      1  0.5595860000000  0.4278580000000  0.4644280000000 1.0
C      1  0.4989250000000  0.4595870000000  0.4913220000000 1.0
C      1  0.5196900000000  0.5375550000000  0.5758500000000 1.0
C      1  0.4424060000000  0.4914400000000  0.5032290000000 1.0
C      1  0.5472230000000  0.5418670000000  0.5563690000000 1.0
C      1  0.4526460000000  0.4568430000000  0.5538970000000 1.0
C      1  0.4543430000000  0.4863690000000  0.5516870000000 1.0
C      1  0.5247660000000  0.5189900000000  0.5119710000000 1.0
C      1  0.5532820000000  0.5254410000000  0.4844980000000 1.0
C      1  0.4345300000000  0.4732430000000  0.4684920000000 1.0
C      1  0.5078720000000  0.5049510000000  0.4888040000000 1.0
C      1  0.4538110000000  0.5377990000000  0.4432420000000 1.0
C      1  0.4823050000000  0.4936620000000  0.5040080000000 1.0
C      1  0.4979200000000  0.4226460000000  0.4593420000000 1.0
C      1  0.4200240000000  0.4990490000000  0.5185330000000 1.0
C      1  0.4513810000000  0.4437340000000  0.4717110000000 1.0
C      1  0.5618220000000  0.4600830000000  0.5434530000000 1.0
C      1  0.4988320000000  0.5245080000000  0.4673600000000 1.0
C      1  0.4723860000000  0.5736140000000  0.5374250000000 1.0
C      1  0.4693150000000  0.5163660000000  0.4623420000000 1.0
C      1  0.5446540000000  0.4364430000000  0.4891270000000 1.0
C      1  0.5153030000000  0.6068800000000  0.5329660000000 1.0
C      1  0.4209430000000  0.4965470000000  0.4613300000000 1.0
C      1  0.4254810000000  0.5279990000000  0.5315680000000 1.0
C      1  0.5630950000000  0.4961770000000  0.4596030000000 1.0
C      1  0.5132690000000  0.4420150000000  0.5601850000000 1.0
C      1  0.5119310000000  0.4398740000000  0.5270120000000 1.0
END
