TITL C-2778435-5768-1017 0.000481468118641514 125000 -631.958664069789 0 0 110 (C1) n - 1
REM
REM in /home/nfs/bkarasulu/CARBON/AIRSS/Generating-Clusters/REBO/Only-C1/SD-CG/HFTN-CG
REM
REM
REM
REM
REM
REM ./C.cell (11c1c37f851c82e70ff6c80c92926a4b)
REM
REM compiler GCC version 9.2.1 20190827 (Red Hat 9.2.1-1)
REM options -cpp -mtune=generic -march=x86-64 -g -O0 -fpre-include=/usr/include/finclude/math-vector-fortran.h
REM seed -1101170473 -869025416 1751105991 -1887908444 -1379190826 -1073847562 -1127516412 -729235060 -293234008 166318370 -658658132 1849741831 207902465 -1107755633 -1509831162 -338663959 -1731036156 1542006536 -558066360 -749258375 228325416 -1303202736 -1485854082 513139079 -2078050534 -1253823017 -1697308729 152269431 1925149638 955578783 812857866 182354532 -984905856
REM
CELL 1.54180   50.00000   50.00000   50.00000   90.00000   90.00000   90.00000
LATT -1
SFAC C  
C      1  0.5859500000000  0.4655650000000  0.5277780000000 1.0
C      1  0.4135200000000  0.4635810000000  0.4962730000000 1.0
C      1  0.4860170000000  0.4602470000000  0.4692350000000 1.0
C      1  0.5774220000000  0.4518190000000  0.5042770000000 1.0
C      1  0.4292030000000  0.4680970000000  0.4422350000000 1.0
C      1  0.4308600000000  0.4876690000000  0.5684350000000 1.0
C      1  0.5468560000000  0.5681520000000  0.4572260000000 1.0
C      1  0.5736770000000  0.5417700000000  0.4816420000000 1.0
C      1  0.5154880000000  0.4580250000000  0.4849350000000 1.0
C      1  0.5773060000000  0.5222100000000  0.4551210000000 1.0
C      1  0.4892390000000  0.5571210000000  0.5026990000000 1.0
C      1  0.5222300000000  0.5792810000000  0.4552210000000 1.0
C      1  0.4499930000000  0.4370810000000  0.5264870000000 1.0
C      1  0.5613530000000  0.4927850000000  0.5073240000000 1.0
C      1  0.4218510000000  0.5231070000000  0.5190820000000 1.0
C      1  0.5791380000000  0.4989080000000  0.4783980000000 1.0
C      1  0.5703170000000  0.5085780000000  0.4265890000000 1.0
C      1  0.4319510000000  0.4974400000000  0.4691490000000 1.0
C      1  0.5058640000000  0.4400280000000  0.5100520000000 1.0
C      1  0.4876370000000  0.4770230000000  0.5054490000000 1.0
C      1  0.5185280000000  0.4767070000000  0.5199290000000 1.0
C      1  0.5204810000000  0.4772400000000  0.5725510000000 1.0
C      1  0.4172430000000  0.5188910000000  0.4869730000000 1.0
C      1  0.4741630000000  0.5263860000000  0.5769380000000 1.0
C      1  0.4474120000000  0.5060980000000  0.5446460000000 1.0
C      1  0.4893860000000  0.4572940000000  0.4260920000000 1.0
C      1  0.5389140000000  0.5125510000000  0.4508440000000 1.0
C      1  0.5434160000000  0.4348420000000  0.5420330000000 1.0
C      1  0.4984740000000  0.5641970000000  0.5502990000000 1.0
C      1  0.5162750000000  0.5205410000000  0.5176880000000 1.0
C      1  0.4904150000000  0.5555720000000  0.5760580000000 1.0
C      1  0.4229360000000  0.4399670000000  0.5189290000000 1.0
C      1  0.5105940000000  0.5442470000000  0.4714560000000 1.0
C      1  0.4881620000000  0.5078010000000  0.4148810000000 1.0
C      1  0.4844670000000  0.4490380000000  0.5724950000000 1.0
C      1  0.5163510000000  0.4907690000000  0.4905700000000 1.0
C      1  0.5497730000000  0.4887080000000  0.5679490000000 1.0
C      1  0.4414970000000  0.5717010000000  0.5098960000000 1.0
C      1  0.4981810000000  0.5024810000000  0.5804390000000 1.0
C      1  0.4937520000000  0.4076620000000  0.4842550000000 1.0
C      1  0.4264980000000  0.4974370000000  0.4356220000000 1.0
C      1  0.4457830000000  0.4761390000000  0.5334310000000 1.0
C      1  0.4736490000000  0.4837190000000  0.4164660000000 1.0
C      1  0.5035680000000  0.5296300000000  0.4444260000000 1.0
C      1  0.5051640000000  0.4349010000000  0.4544210000000 1.0
C      1  0.4675980000000  0.5614110000000  0.4508720000000 1.0
C      1  0.4306050000000  0.5503480000000  0.4856660000000 1.0
C      1  0.5158640000000  0.4656270000000  0.4435090000000 1.0
C      1  0.4930170000000  0.5726760000000  0.4661970000000 1.0
C      1  0.4726360000000  0.4331140000000  0.4436280000000 1.0
C      1  0.5966720000000  0.5103460000000  0.5025100000000 1.0
C      1  0.5154960000000  0.4467420000000  0.5580530000000 1.0
C      1  0.4940190000000  0.5410930000000  0.5303680000000 1.0
C      1  0.5620780000000  0.4619570000000  0.5506670000000 1.0
C      1  0.4443890000000  0.5408150000000  0.5222310000000 1.0
C      1  0.5452710000000  0.4214700000000  0.4882500000000 1.0
C      1  0.5433130000000  0.4896710000000  0.4268950000000 1.0
C      1  0.5038420000000  0.4863280000000  0.5445970000000 1.0
C      1  0.4730160000000  0.4297100000000  0.4775230000000 1.0
C      1  0.5620320000000  0.5410180000000  0.5483970000000 1.0
C      1  0.5191570000000  0.5137120000000  0.5569180000000 1.0
C      1  0.4533160000000  0.5761090000000  0.4785480000000 1.0
C      1  0.5207270000000  0.5485780000000  0.5017960000000 1.0
C      1  0.4903670000000  0.5884820000000  0.5272380000000 1.0
C      1  0.4622540000000  0.5737870000000  0.5352360000000 1.0
C      1  0.5525640000000  0.5419310000000  0.4415970000000 1.0
C      1  0.5716820000000  0.5002560000000  0.5450930000000 1.0
C      1  0.4556680000000  0.5379200000000  0.4687730000000 1.0
C      1  0.5496290000000  0.4652380000000  0.4470830000000 1.0
C      1  0.4614180000000  0.4390210000000  0.5564580000000 1.0
C      1  0.5275660000000  0.5364400000000  0.4214680000000 1.0
C      1  0.5595360000000  0.4303410000000  0.5118310000000 1.0
C      1  0.5541140000000  0.5234720000000  0.4974210000000 1.0
C      1  0.5287730000000  0.5161500000000  0.4802010000000 1.0
C      1  0.4732130000000  0.5175230000000  0.5370110000000 1.0
C      1  0.4816140000000  0.5869880000000  0.4943940000000 1.0
C      1  0.4836730000000  0.5021790000000  0.4715450000000 1.0
C      1  0.5485450000000  0.5231020000000  0.5673600000000 1.0
C      1  0.4801320000000  0.4744950000000  0.5838010000000 1.0
C      1  0.4752430000000  0.4738440000000  0.5426740000000 1.0
C      1  0.5227010000000  0.5811050000000  0.5340250000000 1.0
C      1  0.4588970000000  0.4971440000000  0.5817940000000 1.0
C      1  0.4679370000000  0.4493850000000  0.5028220000000 1.0
C      1  0.4595170000000  0.4789240000000  0.4773260000000 1.0
C      1  0.5086330000000  0.4965970000000  0.4517830000000 1.0
C      1  0.4348590000000  0.4562180000000  0.5581070000000 1.0
C      1  0.4929400000000  0.4495340000000  0.5338480000000 1.0
C      1  0.4086890000000  0.4932020000000  0.5080030000000 1.0
C      1  0.5411250000000  0.5075930000000  0.5314130000000 1.0
C      1  0.5223580000000  0.4202730000000  0.5208490000000 1.0
C      1  0.4660200000000  0.5372380000000  0.4985200000000 1.0
C      1  0.5199760000000  0.4142610000000  0.4743890000000 1.0
C      1  0.5599530000000  0.5675040000000  0.4826190000000 1.0
C      1  0.4854450000000  0.5110800000000  0.5053530000000 1.0
C      1  0.4497510000000  0.5145180000000  0.4235550000000 1.0
C      1  0.5466820000000  0.4693900000000  0.5225720000000 1.0
C      1  0.5683890000000  0.4682330000000  0.4757690000000 1.0
C      1  0.5967980000000  0.4925710000000  0.5268310000000 1.0
C      1  0.4576030000000  0.5119590000000  0.4556540000000 1.0
C      1  0.5517910000000  0.5661870000000  0.5400690000000 1.0
C      1  0.4605660000000  0.5451460000000  0.5518530000000 1.0
C      1  0.4551630000000  0.4589310000000  0.4309540000000 1.0
C      1  0.5755280000000  0.5262120000000  0.5238700000000 1.0
C      1  0.4141080000000  0.4992440000000  0.5410960000000 1.0
C      1  0.4432980000000  0.4710430000000  0.5043400000000 1.0
C      1  0.5420670000000  0.5699070000000  0.5080790000000 1.0
C      1  0.4753510000000  0.5361130000000  0.4294560000000 1.0
C      1  0.5408680000000  0.4483420000000  0.4733640000000 1.0
C      1  0.4157100000000  0.4596830000000  0.4646870000000 1.0
C      1  0.5172860000000  0.5075640000000  0.4143040000000 1.0
END
