TITL C-2778429-3646-958 -0.00219375742926052 125000 -805.46551894523 0 0 137 (C1) n - 1
REM
REM in /home/nfs/bkarasulu/CARBON/AIRSS/Generating-Clusters/REBO/Only-C1/SD-CG/HFTN-CG
REM
REM
REM
REM
REM
REM ./C.cell (11c1c37f851c82e70ff6c80c92926a4b)
REM
REM compiler GCC version 9.2.1 20190827 (Red Hat 9.2.1-1)
REM options -cpp -mtune=generic -march=x86-64 -g -O0 -fpre-include=/usr/include/finclude/math-vector-fortran.h
REM seed -744987421 2104819357 -945062900 1373648110 -1978653885 607516392 983766806 -330988370 2109460013 1856269468 -868299094 -1373583551 -809614570 1004830903 -1406661080 1862404887 1538984634 1940838825 -33836997 461303464 -864662528 1937710919 -1048601556 928507738 418345247 -1785767723 1663382328 -101983021 189896288 -1485087123 -1159537810 -516054352 -1072574748
REM
CELL 1.54180   50.00000   50.00000   50.00000   90.00000   90.00000   90.00000
LATT -1
SFAC C  
C      1  0.4696970000000  0.5412280000000  0.5234310000000 1.0
C      1  0.4925720000000  0.5429800000000  0.4889800000000 1.0
C      1  0.4230670000000  0.4478070000000  0.5319830000000 1.0
C      1  0.5329540000000  0.5948680000000  0.4962330000000 1.0
C      1  0.5952310000000  0.5124220000000  0.4795710000000 1.0
C      1  0.4537370000000  0.4894870000000  0.4294900000000 1.0
C      1  0.4425590000000  0.5332620000000  0.5390020000000 1.0
C      1  0.5489620000000  0.5672860000000  0.4724040000000 1.0
C      1  0.4441260000000  0.4322710000000  0.5418180000000 1.0
C      1  0.5437790000000  0.5262090000000  0.5364810000000 1.0
C      1  0.5175230000000  0.4814380000000  0.4491070000000 1.0
C      1  0.5332750000000  0.5496510000000  0.5815020000000 1.0
C      1  0.4986160000000  0.4654890000000  0.4178440000000 1.0
C      1  0.4854410000000  0.4847470000000  0.4721260000000 1.0
C      1  0.4848790000000  0.5766190000000  0.5688930000000 1.0
C      1  0.5169180000000  0.4947460000000  0.4801520000000 1.0
C      1  0.4767380000000  0.4700210000000  0.4431540000000 1.0
C      1  0.5892360000000  0.4618500000000  0.5508890000000 1.0
C      1  0.4625580000000  0.5165590000000  0.4209600000000 1.0
C      1  0.4117330000000  0.5522530000000  0.4996230000000 1.0
C      1  0.5600170000000  0.4224450000000  0.4887570000000 1.0
C      1  0.5255910000000  0.4559770000000  0.4701890000000 1.0
C      1  0.4264750000000  0.5612350000000  0.5512950000000 1.0
C      1  0.4912960000000  0.4975230000000  0.5269620000000 1.0
C      1  0.4940040000000  0.4617800000000  0.5441110000000 1.0
C      1  0.4813210000000  0.5812060000000  0.4858010000000 1.0
C      1  0.5328190000000  0.5585580000000  0.5359620000000 1.0
C      1  0.4641330000000  0.4498980000000  0.5554040000000 1.0
C      1  0.5747560000000  0.4923220000000  0.5582990000000 1.0
C      1  0.4920720000000  0.5236810000000  0.5833530000000 1.0
C      1  0.5947750000000  0.4876090000000  0.4645710000000 1.0
C      1  0.4499320000000  0.5381870000000  0.4335270000000 1.0
C      1  0.5584790000000  0.4275090000000  0.4612850000000 1.0
C      1  0.5278200000000  0.5887460000000  0.4653950000000 1.0
C      1  0.4528310000000  0.4652710000000  0.4818220000000 1.0
C      1  0.4580560000000  0.5658350000000  0.4397960000000 1.0
C      1  0.4157120000000  0.4730700000000  0.4863180000000 1.0
C      1  0.4870510000000  0.4048520000000  0.4909840000000 1.0
C      1  0.5668000000000  0.5023640000000  0.4244150000000 1.0
C      1  0.5898180000000  0.4663200000000  0.4829480000000 1.0
C      1  0.5088420000000  0.5811330000000  0.4458480000000 1.0
C      1  0.5106680000000  0.4740890000000  0.5169540000000 1.0
C      1  0.4263700000000  0.5014900000000  0.5020700000000 1.0
C      1  0.5391800000000  0.5209130000000  0.5846860000000 1.0
C      1  0.4341750000000  0.5716620000000  0.4987440000000 1.0
C      1  0.5132760000000  0.4308960000000  0.4543760000000 1.0
C      1  0.4811460000000  0.4047250000000  0.5206200000000 1.0
C      1  0.4532500000000  0.5018700000000  0.6017010000000 1.0
C      1  0.5139340000000  0.4931800000000  0.4128640000000 1.0
C      1  0.5693390000000  0.5338630000000  0.4801860000000 1.0
C      1  0.4551410000000  0.4355150000000  0.4823410000000 1.0
C      1  0.4917890000000  0.5905970000000  0.5168320000000 1.0
C      1  0.5290950000000  0.4138260000000  0.5320190000000 1.0
C      1  0.5466600000000  0.4742210000000  0.5504980000000 1.0
C      1  0.5816160000000  0.5732390000000  0.5121570000000 1.0
C      1  0.4091300000000  0.5269160000000  0.4767850000000 1.0
C      1  0.4540010000000  0.4128610000000  0.5239880000000 1.0
C      1  0.5904150000000  0.4885440000000  0.5298260000000 1.0
C      1  0.5377630000000  0.5413400000000  0.4865250000000 1.0
C      1  0.4640110000000  0.4433420000000  0.4503260000000 1.0
C      1  0.4124010000000  0.4993290000000  0.4647350000000 1.0
C      1  0.3944050000000  0.5240210000000  0.5075780000000 1.0
C      1  0.5523570000000  0.5554030000000  0.4255600000000 1.0
C      1  0.4529900000000  0.5644860000000  0.5681760000000 1.0
C      1  0.4364790000000  0.5429650000000  0.4644090000000 1.0
C      1  0.4047970000000  0.4698660000000  0.5411400000000 1.0
C      1  0.4807030000000  0.5812920000000  0.4556240000000 1.0
C      1  0.4497350000000  0.5076540000000  0.5527570000000 1.0
C      1  0.5695100000000  0.4751090000000  0.5072440000000 1.0
C      1  0.4474490000000  0.5186310000000  0.4846010000000 1.0
C      1  0.5609120000000  0.5752540000000  0.5380520000000 1.0
C      1  0.4913080000000  0.4545020000000  0.5843920000000 1.0
C      1  0.5374750000000  0.5063390000000  0.5569680000000 1.0
C      1  0.4926290000000  0.5181810000000  0.4177110000000 1.0
C      1  0.5721530000000  0.4663130000000  0.5800720000000 1.0
C      1  0.5460710000000  0.4323230000000  0.5523580000000 1.0
C      1  0.5374590000000  0.4132520000000  0.5043160000000 1.0
C      1  0.4622350000000  0.3987840000000  0.4683650000000 1.0
C      1  0.4659080000000  0.5119190000000  0.5788360000000 1.0
C      1  0.5459370000000  0.4336420000000  0.4316060000000 1.0
C      1  0.5168430000000  0.5262830000000  0.4713740000000 1.0
C      1  0.5418880000000  0.4542340000000  0.5775830000000 1.0
C      1  0.4109890000000  0.5410340000000  0.5309390000000 1.0
C      1  0.5427400000000  0.4518760000000  0.5250420000000 1.0
C      1  0.5595260000000  0.5067140000000  0.4632410000000 1.0
C      1  0.5738720000000  0.4411920000000  0.5354130000000 1.0
C      1  0.4156380000000  0.4581600000000  0.4563860000000 1.0
C      1  0.4368840000000  0.4066940000000  0.4600890000000 1.0
C      1  0.5237690000000  0.4504840000000  0.5005920000000 1.0
C      1  0.5796620000000  0.5652450000000  0.4850470000000 1.0
C      1  0.5860100000000  0.5113120000000  0.5084150000000 1.0
C      1  0.5731430000000  0.5611700000000  0.4515090000000 1.0
C      1  0.4437060000000  0.4861010000000  0.4610620000000 1.0
C      1  0.5132380000000  0.4214470000000  0.4860670000000 1.0
C      1  0.5105650000000  0.5764750000000  0.5406100000000 1.0
C      1  0.5014910000000  0.4119530000000  0.5388680000000 1.0
C      1  0.5768700000000  0.4421550000000  0.5030580000000 1.0
C      1  0.4842790000000  0.4204900000000  0.4588690000000 1.0
C      1  0.5385760000000  0.4874870000000  0.5024410000000 1.0
C      1  0.4633190000000  0.5585900000000  0.4991330000000 1.0
C      1  0.4605800000000  0.4893720000000  0.5291210000000 1.0
C      1  0.5503140000000  0.5976930000000  0.5164600000000 1.0
C      1  0.4347900000000  0.4717020000000  0.5147830000000 1.0
C      1  0.4431370000000  0.4173020000000  0.4981380000000 1.0
C      1  0.4778690000000  0.5180460000000  0.4702840000000 1.0
C      1  0.5100560000000  0.4897800000000  0.5534910000000 1.0
C      1  0.4708960000000  0.5846610000000  0.5387190000000 1.0
C      1  0.5409850000000  0.5061980000000  0.4102400000000 1.0
C      1  0.5694880000000  0.5300560000000  0.4404120000000 1.0
C      1  0.4765950000000  0.5479670000000  0.5532230000000 1.0
C      1  0.5564840000000  0.5126570000000  0.5116680000000 1.0
C      1  0.4459830000000  0.5756280000000  0.4679100000000 1.0
C      1  0.4839240000000  0.4585090000000  0.3942300000000 1.0
C      1  0.4234040000000  0.4906640000000  0.5578960000000 1.0
C      1  0.5365140000000  0.5348150000000  0.4056580000000 1.0
C      1  0.5107240000000  0.5709280000000  0.4966690000000 1.0
C      1  0.5178540000000  0.4425190000000  0.4254240000000 1.0
C      1  0.5815410000000  0.4825250000000  0.4386930000000 1.0
C      1  0.5527120000000  0.5669560000000  0.5694450000000 1.0
C      1  0.4953150000000  0.5242260000000  0.5167490000000 1.0
C      1  0.4072400000000  0.5012740000000  0.5294830000000 1.0
C      1  0.4316640000000  0.4347960000000  0.4503710000000 1.0
C      1  0.5017610000000  0.5105480000000  0.4467530000000 1.0
C      1  0.4206480000000  0.4840270000000  0.4352840000000 1.0
C      1  0.5654600000000  0.4562230000000  0.4447460000000 1.0
C      1  0.4460700000000  0.5769950000000  0.5301120000000 1.0
C      1  0.5196070000000  0.5647120000000  0.4257070000000 1.0
C      1  0.5154950000000  0.4725190000000  0.5817700000000 1.0
C      1  0.5481700000000  0.4796580000000  0.4603160000000 1.0
C      1  0.4644470000000  0.4916330000000  0.4968410000000 1.0
C      1  0.5243370000000  0.5371720000000  0.5131850000000 1.0
C      1  0.5072250000000  0.5428830000000  0.4079910000000 1.0
C      1  0.5040570000000  0.5514670000000  0.5802800000000 1.0
C      1  0.4674350000000  0.4658000000000  0.5918720000000 1.0
C      1  0.5140510000000  0.5048970000000  0.5900530000000 1.0
C      1  0.4928050000000  0.4321850000000  0.5594820000000 1.0
C      1  0.4472820000000  0.4728430000000  0.5721200000000 1.0
END
