TITL C-2778425-5191-1500 0.0456058650209514 125000 -383.990452687079 0 0 67 (C1) n - 1
REM
REM in /home/nfs/bkarasulu/CARBON/AIRSS/Generating-Clusters/REBO/Only-C1/SD-CG/HFTN-CG
REM
REM
REM
REM
REM
REM ./C.cell (11c1c37f851c82e70ff6c80c92926a4b)
REM
REM compiler GCC version 9.2.1 20190827 (Red Hat 9.2.1-1)
REM options -cpp -mtune=generic -march=x86-64 -g -O0 -fpre-include=/usr/include/finclude/math-vector-fortran.h
REM seed 1573395788 -545718873 1224615684 683651836 -1382998082 1051044855 -181699442 -2113673278 -476107455 -481234235 -2121019101 1818743919 -275919417 1570690768 126931437 434131915 -2122365381 2098911301 205704350 -1625008131 -1624964356 1095413888 1062596268 2036784413 1443283035 614120195 385182137 -199308929 1107174677 -2135930720 2029166426 -714953689 -1588573660
REM
CELL 1.54180   50.00000   50.00000   50.00000   90.00000   90.00000   90.00000
LATT -1
SFAC C  
C      1  0.5742380000000  0.4665330000000  0.4946610000000 1.0
C      1  0.4562830000000  0.5669030000000  0.4773030000000 1.0
C      1  0.5063560000000  0.4707320000000  0.5369660000000 1.0
C      1  0.4503640000000  0.4861660000000  0.4723620000000 1.0
C      1  0.4614210000000  0.5267700000000  0.5606800000000 1.0
C      1  0.4875250000000  0.5731990000000  0.4869120000000 1.0
C      1  0.4772560000000  0.4795190000000  0.4529580000000 1.0
C      1  0.5199930000000  0.5579470000000  0.4507320000000 1.0
C      1  0.4272710000000  0.4995630000000  0.4820350000000 1.0
C      1  0.5641280000000  0.4992690000000  0.4614470000000 1.0
C      1  0.4610700000000  0.4470170000000  0.4176620000000 1.0
C      1  0.4647760000000  0.4757900000000  0.5392920000000 1.0
C      1  0.5450540000000  0.4843600000000  0.5425570000000 1.0
C      1  0.4976590000000  0.5127860000000  0.5693460000000 1.0
C      1  0.4883260000000  0.5500400000000  0.4618860000000 1.0
C      1  0.5235090000000  0.5540030000000  0.4802890000000 1.0
C      1  0.4741330000000  0.4551580000000  0.5194010000000 1.0
C      1  0.5244450000000  0.4435410000000  0.5338330000000 1.0
C      1  0.4965350000000  0.4996910000000  0.5218580000000 1.0
C      1  0.5212660000000  0.4091080000000  0.4873240000000 1.0
C      1  0.5149290000000  0.4862510000000  0.4894380000000 1.0
C      1  0.5640860000000  0.4488480000000  0.4746010000000 1.0
C      1  0.5055240000000  0.4545460000000  0.4670370000000 1.0
C      1  0.4566130000000  0.5376710000000  0.4637960000000 1.0
C      1  0.4220420000000  0.5245860000000  0.5288620000000 1.0
C      1  0.4231710000000  0.4991710000000  0.5102550000000 1.0
C      1  0.5512270000000  0.4571330000000  0.5374440000000 1.0
C      1  0.4890690000000  0.4657090000000  0.4914430000000 1.0
C      1  0.5646300000000  0.4897870000000  0.4313000000000 1.0
C      1  0.4900810000000  0.4310170000000  0.4558670000000 1.0
C      1  0.5694150000000  0.4947300000000  0.4884640000000 1.0
C      1  0.5212460000000  0.5502850000000  0.5518970000000 1.0
C      1  0.5303510000000  0.4964950000000  0.5179960000000 1.0
C      1  0.4271470000000  0.5254210000000  0.4687360000000 1.0
C      1  0.5440070000000  0.4229940000000  0.4755950000000 1.0
C      1  0.4518360000000  0.5724860000000  0.5259290000000 1.0
C      1  0.4937860000000  0.5117620000000  0.4904950000000 1.0
C      1  0.5445500000000  0.5186970000000  0.5804590000000 1.0
C      1  0.5556010000000  0.5117380000000  0.5076300000000 1.0
C      1  0.4272420000000  0.5511660000000  0.5213990000000 1.0
C      1  0.5201710000000  0.5309610000000  0.5728070000000 1.0
C      1  0.5565510000000  0.5390290000000  0.5134930000000 1.0
C      1  0.4859570000000  0.5214170000000  0.5403480000000 1.0
C      1  0.4810510000000  0.5724970000000  0.5205090000000 1.0
C      1  0.5019280000000  0.5234930000000  0.4466280000000 1.0
C      1  0.4988490000000  0.5466070000000  0.5280610000000 1.0
C      1  0.5738360000000  0.4548450000000  0.5207220000000 1.0
C      1  0.5295090000000  0.5343810000000  0.4331100000000 1.0
C      1  0.5333310000000  0.4514400000000  0.4652150000000 1.0
C      1  0.5364170000000  0.5630060000000  0.5273610000000 1.0
C      1  0.5149370000000  0.4181400000000  0.5132770000000 1.0
C      1  0.5125920000000  0.5789310000000  0.5094230000000 1.0
C      1  0.5360290000000  0.5038570000000  0.4431870000000 1.0
C      1  0.5056060000000  0.5391980000000  0.4971560000000 1.0
C      1  0.5075080000000  0.4933870000000  0.4577330000000 1.0
C      1  0.4368030000000  0.5146320000000  0.5541250000000 1.0
C      1  0.5539400000000  0.4982770000000  0.5649530000000 1.0
C      1  0.4404020000000  0.4898640000000  0.5356010000000 1.0
C      1  0.4729460000000  0.5094140000000  0.4696910000000 1.0
C      1  0.4582660000000  0.4518920000000  0.4910720000000 1.0
C      1  0.4872020000000  0.4856400000000  0.5580500000000 1.0
C      1  0.4370170000000  0.5709800000000  0.4977690000000 1.0
C      1  0.5458720000000  0.5623190000000  0.4951830000000 1.0
C      1  0.4993800000000  0.4067970000000  0.4680260000000 1.0
C      1  0.4758710000000  0.4522300000000  0.4403520000000 1.0
C      1  0.4922390000000  0.4338480000000  0.5300430000000 1.0
C      1  0.4376260000000  0.4443320000000  0.4779560000000 1.0
END
