TITL C-2778430-5657-726 0.000462697497585638 125000 -655.348035426604 0 0 113 (C1) n - 1
REM
REM in /home/nfs/bkarasulu/CARBON/AIRSS/Generating-Clusters/REBO/Only-C1/SD-CG/HFTN-CG
REM
REM
REM
REM
REM
REM ./C.cell (11c1c37f851c82e70ff6c80c92926a4b)
REM
REM compiler GCC version 9.2.1 20190827 (Red Hat 9.2.1-1)
REM options -cpp -mtune=generic -march=x86-64 -g -O0 -fpre-include=/usr/include/finclude/math-vector-fortran.h
REM seed -333468895 1588749427 -1437915788 -864657216 214050228 1981563440 626814982 1375674784 1899082814 357367631 -2004176871 1956616265 -1636649649 2094795286 1319534760 782990789 -1102713953 126339907 685955135 1830743291 -474916019 -1557992683 -682406787 -375451940 -1601279990 415405303 356153063 -1663298999 -502884384 623980377 -855535739 1325911370 445335013
REM
CELL 1.54180   50.00000   50.00000   50.00000   90.00000   90.00000   90.00000
LATT -1
SFAC C  
C      1  0.4426980000000  0.4706600000000  0.5644130000000 1.0
C      1  0.4587710000000  0.4162160000000  0.5338520000000 1.0
C      1  0.4308880000000  0.5205160000000  0.4885070000000 1.0
C      1  0.4626480000000  0.5814810000000  0.4761610000000 1.0
C      1  0.4937010000000  0.5405510000000  0.5070790000000 1.0
C      1  0.4533510000000  0.5363500000000  0.4493460000000 1.0
C      1  0.4962020000000  0.4719400000000  0.5189610000000 1.0
C      1  0.5066460000000  0.5577870000000  0.4579170000000 1.0
C      1  0.4679040000000  0.5144080000000  0.5662340000000 1.0
C      1  0.5649430000000  0.4987310000000  0.5024330000000 1.0
C      1  0.4298500000000  0.4588860000000  0.5408310000000 1.0
C      1  0.4627240000000  0.4947950000000  0.5209180000000 1.0
C      1  0.4743780000000  0.4606790000000  0.5724740000000 1.0
C      1  0.5122810000000  0.4309570000000  0.5495850000000 1.0
C      1  0.4952610000000  0.5402890000000  0.4225360000000 1.0
C      1  0.5398890000000  0.5031430000000  0.4662630000000 1.0
C      1  0.5404000000000  0.4557500000000  0.4552740000000 1.0
C      1  0.4613250000000  0.5390340000000  0.5435840000000 1.0
C      1  0.5448690000000  0.5535070000000  0.4474600000000 1.0
C      1  0.5914880000000  0.5196000000000  0.4971980000000 1.0
C      1  0.4244620000000  0.4908780000000  0.4631150000000 1.0
C      1  0.4312440000000  0.4813390000000  0.5201220000000 1.0
C      1  0.4352970000000  0.4350310000000  0.5231440000000 1.0
C      1  0.5751840000000  0.5524480000000  0.5122480000000 1.0
C      1  0.5727070000000  0.4599050000000  0.4538710000000 1.0
C      1  0.5654060000000  0.4490980000000  0.4857070000000 1.0
C      1  0.4659730000000  0.4620800000000  0.5242140000000 1.0
C      1  0.4843300000000  0.5095510000000  0.5301910000000 1.0
C      1  0.5809610000000  0.5232410000000  0.5294130000000 1.0
C      1  0.5289500000000  0.4249680000000  0.4537190000000 1.0
C      1  0.6005870000000  0.4644970000000  0.5170050000000 1.0
C      1  0.4687660000000  0.5667230000000  0.4489120000000 1.0
C      1  0.5114860000000  0.5321100000000  0.5687180000000 1.0
C      1  0.4364970000000  0.4590810000000  0.4642480000000 1.0
C      1  0.5222940000000  0.4489310000000  0.4293330000000 1.0
C      1  0.4692640000000  0.4237510000000  0.4548150000000 1.0
C      1  0.5590070000000  0.4851760000000  0.4361310000000 1.0
C      1  0.4687020000000  0.5326370000000  0.4126030000000 1.0
C      1  0.5372250000000  0.5256690000000  0.4893360000000 1.0
C      1  0.4468970000000  0.4736270000000  0.4911810000000 1.0
C      1  0.5167230000000  0.5842310000000  0.5015250000000 1.0
C      1  0.5578990000000  0.4749720000000  0.5503950000000 1.0
C      1  0.4647320000000  0.5062950000000  0.4206060000000 1.0
C      1  0.4967010000000  0.5636610000000  0.4864730000000 1.0
C      1  0.5277180000000  0.5399950000000  0.4289960000000 1.0
C      1  0.5693800000000  0.5397170000000  0.4523790000000 1.0
C      1  0.4340280000000  0.4433320000000  0.4947550000000 1.0
C      1  0.5499220000000  0.5507790000000  0.5310120000000 1.0
C      1  0.4400360000000  0.5564020000000  0.4738860000000 1.0
C      1  0.4807130000000  0.5173010000000  0.4777960000000 1.0
C      1  0.4208280000000  0.5145450000000  0.5489960000000 1.0
C      1  0.5163090000000  0.5103540000000  0.4165370000000 1.0
C      1  0.4097400000000  0.5160640000000  0.5213830000000 1.0
C      1  0.4398690000000  0.4990280000000  0.5646090000000 1.0
C      1  0.4543510000000  0.5021330000000  0.4509190000000 1.0
C      1  0.4881890000000  0.4905590000000  0.5695630000000 1.0
C      1  0.5614930000000  0.4816430000000  0.4766140000000 1.0
C      1  0.4660110000000  0.4224930000000  0.4842970000000 1.0
C      1  0.4987740000000  0.5271840000000  0.4532010000000 1.0
C      1  0.5070990000000  0.4515210000000  0.5697510000000 1.0
C      1  0.5331540000000  0.5089240000000  0.5814850000000 1.0
C      1  0.5847190000000  0.5452970000000  0.4800770000000 1.0
C      1  0.5342870000000  0.4142760000000  0.5109180000000 1.0
C      1  0.5393400000000  0.4308560000000  0.4857160000000 1.0
C      1  0.5370890000000  0.4936230000000  0.5346590000000 1.0
C      1  0.5377250000000  0.4291860000000  0.5354750000000 1.0
C      1  0.5095670000000  0.5196700000000  0.5394660000000 1.0
C      1  0.5598990000000  0.4476320000000  0.5358870000000 1.0
C      1  0.4627750000000  0.4550920000000  0.4472420000000 1.0
C      1  0.4080160000000  0.5498950000000  0.4754920000000 1.0
C      1  0.5047210000000  0.4981080000000  0.5922270000000 1.0
C      1  0.5060000000000  0.4421380000000  0.5118290000000 1.0
C      1  0.5780870000000  0.4476670000000  0.5137650000000 1.0
C      1  0.5300610000000  0.4768020000000  0.5700850000000 1.0
C      1  0.4461970000000  0.5626340000000  0.5136300000000 1.0
C      1  0.4203890000000  0.5450220000000  0.5068730000000 1.0
C      1  0.4861660000000  0.4641820000000  0.4242330000000 1.0
C      1  0.5659770000000  0.5123040000000  0.4468140000000 1.0
C      1  0.4751530000000  0.4451950000000  0.4981730000000 1.0
C      1  0.5213460000000  0.5692110000000  0.5296740000000 1.0
C      1  0.4335880000000  0.5411140000000  0.5443650000000 1.0
C      1  0.4128610000000  0.4940370000000  0.4953670000000 1.0
C      1  0.5086260000000  0.4813270000000  0.5438670000000 1.0
C      1  0.5560710000000  0.5488070000000  0.5631510000000 1.0
C      1  0.5361990000000  0.5242330000000  0.5219240000000 1.0
C      1  0.4949400000000  0.4692040000000  0.4847670000000 1.0
C      1  0.5102260000000  0.4967130000000  0.4533870000000 1.0
C      1  0.5267070000000  0.5591080000000  0.5617980000000 1.0
C      1  0.5285590000000  0.4823410000000  0.4285170000000 1.0
C      1  0.4917900000000  0.5532560000000  0.5360910000000 1.0
C      1  0.5034600000000  0.4119710000000  0.4963150000000 1.0
C      1  0.4826420000000  0.5437950000000  0.5757010000000 1.0
C      1  0.5714960000000  0.5062270000000  0.5505250000000 1.0
C      1  0.5591240000000  0.5215870000000  0.5711260000000 1.0
C      1  0.4904110000000  0.4163470000000  0.5279270000000 1.0
C      1  0.4755220000000  0.5724530000000  0.5587500000000 1.0
C      1  0.5269730000000  0.4631060000000  0.4845470000000 1.0
C      1  0.4636240000000  0.5427220000000  0.4930930000000 1.0
C      1  0.5525760000000  0.5513970000000  0.4866280000000 1.0
C      1  0.4887870000000  0.4906140000000  0.4166210000000 1.0
C      1  0.5004920000000  0.4153120000000  0.4654870000000 1.0
C      1  0.4560880000000  0.5036480000000  0.4907890000000 1.0
C      1  0.5321650000000  0.4886640000000  0.5026440000000 1.0
C      1  0.4222810000000  0.5247540000000  0.4572300000000 1.0
C      1  0.5962340000000  0.4905430000000  0.5129490000000 1.0
C      1  0.4826090000000  0.5894430000000  0.5018110000000 1.0
C      1  0.4927550000000  0.5773620000000  0.4357640000000 1.0
C      1  0.4657880000000  0.4431930000000  0.5475920000000 1.0
C      1  0.4804070000000  0.4818220000000  0.4594890000000 1.0
C      1  0.4647010000000  0.5813470000000  0.5283720000000 1.0
C      1  0.5333050000000  0.5721330000000  0.4739190000000 1.0
C      1  0.4944490000000  0.4335360000000  0.4362810000000 1.0
C      1  0.5079040000000  0.5119420000000  0.4967360000000 1.0
END
