TITL C-2778429-3646-1030 -0.000772677968405691 125000 -1026.11320064028 0 0 178 (C1) n - 1
REM
REM in /home/nfs/bkarasulu/CARBON/AIRSS/Generating-Clusters/REBO/Only-C1/SD-CG/HFTN-CG
REM
REM
REM
REM
REM
REM ./C.cell (11c1c37f851c82e70ff6c80c92926a4b)
REM
REM compiler GCC version 9.2.1 20190827 (Red Hat 9.2.1-1)
REM options -cpp -mtune=generic -march=x86-64 -g -O0 -fpre-include=/usr/include/finclude/math-vector-fortran.h
REM seed -777223949 555778612 397404762 -1353377768 -1538575106 -233904769 -1766621010 -1122795188 -698089743 -156219605 -179789245 1717722739 2028379559 478641278 -2104671697 -15319670 129683599 70027537 1112862443 1361878431 -1466722316 1489059638 552292698 1036390285 1553776738 -1700330395 -1705354253 946558275 1709417185 695300511 1816731546 -525903840 -1465837941
REM
CELL 1.54180   50.00000   50.00000   50.00000   90.00000   90.00000   90.00000
LATT -1
SFAC C  
C      1  0.4999960000000  0.5653810000000  0.4499150000000 1.0
C      1  0.4216540000000  0.5498270000000  0.5407840000000 1.0
C      1  0.5022960000000  0.5347120000000  0.4011290000000 1.0
C      1  0.4416480000000  0.5641640000000  0.4370500000000 1.0
C      1  0.4316440000000  0.5190480000000  0.5012460000000 1.0
C      1  0.4540910000000  0.4628160000000  0.5838840000000 1.0
C      1  0.4098340000000  0.5219650000000  0.5249110000000 1.0
C      1  0.5309710000000  0.5633200000000  0.4348090000000 1.0
C      1  0.3947560000000  0.4446830000000  0.5351420000000 1.0
C      1  0.4745060000000  0.4599770000000  0.4897080000000 1.0
C      1  0.4175980000000  0.4482900000000  0.4935650000000 1.0
C      1  0.5194690000000  0.4782360000000  0.4565280000000 1.0
C      1  0.4474760000000  0.5285350000000  0.5929950000000 1.0
C      1  0.5624430000000  0.5276230000000  0.5807360000000 1.0
C      1  0.4691600000000  0.6031110000000  0.4952380000000 1.0
C      1  0.5049810000000  0.4293500000000  0.5942150000000 1.0
C      1  0.4771560000000  0.4323570000000  0.5073860000000 1.0
C      1  0.4736510000000  0.5083480000000  0.6021660000000 1.0
C      1  0.5760240000000  0.4912020000000  0.4202530000000 1.0
C      1  0.4749140000000  0.4916490000000  0.5520820000000 1.0
C      1  0.4931310000000  0.4190940000000  0.4626970000000 1.0
C      1  0.5445310000000  0.4975500000000  0.4437790000000 1.0
C      1  0.5444940000000  0.4719240000000  0.4755340000000 1.0
C      1  0.4688220000000  0.3854040000000  0.4569800000000 1.0
C      1  0.5588350000000  0.4958880000000  0.5282000000000 1.0
C      1  0.4754590000000  0.5451100000000  0.4029930000000 1.0
C      1  0.4922510000000  0.5025150000000  0.5059940000000 1.0
C      1  0.4436470000000  0.3930890000000  0.5052650000000 1.0
C      1  0.4324600000000  0.5879500000000  0.4927670000000 1.0
C      1  0.4965700000000  0.4438810000000  0.5579500000000 1.0
C      1  0.4201170000000  0.5518410000000  0.4604920000000 1.0
C      1  0.3953010000000  0.4937840000000  0.4778800000000 1.0
C      1  0.5517340000000  0.4246220000000  0.5438880000000 1.0
C      1  0.4820910000000  0.4222560000000  0.5728390000000 1.0
C      1  0.4567310000000  0.4371810000000  0.5314220000000 1.0
C      1  0.4857130000000  0.4096200000000  0.4888020000000 1.0
C      1  0.5535710000000  0.5173980000000  0.5515040000000 1.0
C      1  0.6009680000000  0.5456250000000  0.4778710000000 1.0
C      1  0.4673450000000  0.5687400000000  0.4175500000000 1.0
C      1  0.4216710000000  0.4810460000000  0.4600090000000 1.0
C      1  0.4944740000000  0.5746550000000  0.5818950000000 1.0
C      1  0.5380810000000  0.5462500000000  0.5892340000000 1.0
C      1  0.5417380000000  0.5759910000000  0.5760530000000 1.0
C      1  0.4814660000000  0.6157170000000  0.4704390000000 1.0
C      1  0.5232740000000  0.4798930000000  0.4962320000000 1.0
C      1  0.4992690000000  0.4223400000000  0.6201690000000 1.0
C      1  0.5168220000000  0.5899970000000  0.5766100000000 1.0
C      1  0.5749750000000  0.5343810000000  0.4607230000000 1.0
C      1  0.4450270000000  0.5810990000000  0.4664080000000 1.0
C      1  0.5281350000000  0.4656320000000  0.4263230000000 1.0
C      1  0.5285000000000  0.4078270000000  0.5264380000000 1.0
C      1  0.5767080000000  0.5071600000000  0.4495150000000 1.0
C      1  0.5933000000000  0.4287580000000  0.4951610000000 1.0
C      1  0.5717310000000  0.4792970000000  0.4893610000000 1.0
C      1  0.5998390000000  0.4901140000000  0.4630540000000 1.0
C      1  0.4189320000000  0.4224890000000  0.4750140000000 1.0
C      1  0.4613950000000  0.4147470000000  0.5542790000000 1.0
C      1  0.5124440000000  0.5215460000000  0.4851510000000 1.0
C      1  0.5490390000000  0.5367500000000  0.4802810000000 1.0
C      1  0.5807000000000  0.4635820000000  0.4266480000000 1.0
C      1  0.5022650000000  0.5005990000000  0.5350050000000 1.0
C      1  0.5677910000000  0.5115250000000  0.4926780000000 1.0
C      1  0.5526050000000  0.4465790000000  0.4315760000000 1.0
C      1  0.5723430000000  0.4957430000000  0.5793360000000 1.0
C      1  0.5170500000000  0.4977510000000  0.5829760000000 1.0
C      1  0.4769710000000  0.5303410000000  0.5013460000000 1.0
C      1  0.4185350000000  0.5273600000000  0.5656340000000 1.0
C      1  0.5517280000000  0.4339820000000  0.4858390000000 1.0
C      1  0.5439310000000  0.6110730000000  0.4872530000000 1.0
C      1  0.5765080000000  0.4720750000000  0.5650010000000 1.0
C      1  0.4064020000000  0.4930160000000  0.4122600000000 1.0
C      1  0.4426250000000  0.5497190000000  0.4949090000000 1.0
C      1  0.5325460000000  0.5241870000000  0.4562600000000 1.0
C      1  0.5390970000000  0.4045010000000  0.4786720000000 1.0
C      1  0.5214540000000  0.5454020000000  0.5606240000000 1.0
C      1  0.4491510000000  0.4852730000000  0.5302880000000 1.0
C      1  0.4728270000000  0.5615160000000  0.4617000000000 1.0
C      1  0.5367660000000  0.4946740000000  0.4108690000000 1.0
C      1  0.4163020000000  0.3972670000000  0.4938570000000 1.0
C      1  0.5199400000000  0.5862900000000  0.5269970000000 1.0
C      1  0.4151750000000  0.5164930000000  0.4428740000000 1.0
C      1  0.4494710000000  0.4034110000000  0.4731170000000 1.0
C      1  0.5920540000000  0.4541880000000  0.4785720000000 1.0
C      1  0.4697960000000  0.4945730000000  0.4494210000000 1.0
C      1  0.5892550000000  0.5480170000000  0.5258360000000 1.0
C      1  0.5018400000000  0.6057750000000  0.5317560000000 1.0
C      1  0.4651400000000  0.5707390000000  0.5665030000000 1.0
C      1  0.5546530000000  0.4490850000000  0.5674890000000 1.0
C      1  0.4630760000000  0.5081780000000  0.4799070000000 1.0
C      1  0.4547050000000  0.4921860000000  0.5841290000000 1.0
C      1  0.6003320000000  0.5205110000000  0.5526400000000 1.0
C      1  0.3927470000000  0.5211040000000  0.4953150000000 1.0
C      1  0.4708390000000  0.5690860000000  0.4939450000000 1.0
C      1  0.4421260000000  0.5133330000000  0.5462400000000 1.0
C      1  0.4251660000000  0.4401280000000  0.5223470000000 1.0
C      1  0.4764110000000  0.5998240000000  0.5249370000000 1.0
C      1  0.5372610000000  0.5072520000000  0.5043920000000 1.0
C      1  0.4952750000000  0.3794870000000  0.4644360000000 1.0
C      1  0.5812950000000  0.5452910000000  0.5588040000000 1.0
C      1  0.5635120000000  0.5622200000000  0.4448020000000 1.0
C      1  0.4421860000000  0.4639590000000  0.4798740000000 1.0
C      1  0.4715510000000  0.5262910000000  0.5508980000000 1.0
C      1  0.4555220000000  0.5205470000000  0.4077880000000 1.0
C      1  0.5902270000000  0.4731020000000  0.5373710000000 1.0
C      1  0.4934700000000  0.5178370000000  0.4569880000000 1.0
C      1  0.4749810000000  0.4337010000000  0.4480610000000 1.0
C      1  0.5759440000000  0.4149720000000  0.4689410000000 1.0
C      1  0.5917580000000  0.5046180000000  0.5304770000000 1.0
C      1  0.5302130000000  0.6044350000000  0.4638310000000 1.0
C      1  0.5094810000000  0.5590040000000  0.5332870000000 1.0
C      1  0.5212050000000  0.4378670000000  0.5508660000000 1.0
C      1  0.4237780000000  0.5046020000000  0.5891350000000 1.0
C      1  0.4635440000000  0.5747290000000  0.5352630000000 1.0
C      1  0.4817280000000  0.6121740000000  0.4438750000000 1.0
C      1  0.3794040000000  0.4609530000000  0.5183150000000 1.0
C      1  0.4947120000000  0.4829720000000  0.4780910000000 1.0
C      1  0.4413110000000  0.5310100000000  0.4338970000000 1.0
C      1  0.6084310000000  0.4951120000000  0.4896410000000 1.0
C      1  0.4824840000000  0.5061290000000  0.4206570000000 1.0
C      1  0.4750770000000  0.5404310000000  0.5785000000000 1.0
C      1  0.4020620000000  0.4917000000000  0.5716710000000 1.0
C      1  0.5724350000000  0.4023440000000  0.5004970000000 1.0
C      1  0.5105060000000  0.5235570000000  0.4306970000000 1.0
C      1  0.5599790000000  0.5166960000000  0.4122710000000 1.0
C      1  0.5739140000000  0.4587370000000  0.5143160000000 1.0
C      1  0.3935370000000  0.4918960000000  0.4437450000000 1.0
C      1  0.5109340000000  0.4319160000000  0.5129970000000 1.0
C      1  0.4382270000000  0.5533720000000  0.5708870000000 1.0
C      1  0.5433740000000  0.5890780000000  0.5084610000000 1.0
C      1  0.5205740000000  0.5769710000000  0.4708250000000 1.0
C      1  0.5449910000000  0.3883880000000  0.5046720000000 1.0
C      1  0.5156840000000  0.3789450000000  0.5151990000000 1.0
C      1  0.6097970000000  0.4757390000000  0.5095780000000 1.0
C      1  0.5186920000000  0.4019080000000  0.4535960000000 1.0
C      1  0.5737520000000  0.4270690000000  0.5230790000000 1.0
C      1  0.5639520000000  0.4522060000000  0.4611120000000 1.0
C      1  0.4272550000000  0.5220680000000  0.4701910000000 1.0
C      1  0.4341860000000  0.4966040000000  0.4138950000000 1.0
C      1  0.5157050000000  0.5931080000000  0.4350070000000 1.0
C      1  0.5963660000000  0.5237950000000  0.5029830000000 1.0
C      1  0.4434570000000  0.4848900000000  0.4386860000000 1.0
C      1  0.5327140000000  0.5580320000000  0.4920500000000 1.0
C      1  0.5005340000000  0.5523590000000  0.4948840000000 1.0
C      1  0.4958160000000  0.3811700000000  0.4955320000000 1.0
C      1  0.3926330000000  0.4670470000000  0.4947260000000 1.0
C      1  0.5283380000000  0.4945230000000  0.5535250000000 1.0
C      1  0.5014730000000  0.4602860000000  0.4113190000000 1.0
C      1  0.5487440000000  0.4176260000000  0.4484300000000 1.0
C      1  0.5952870000000  0.5778360000000  0.5148570000000 1.0
C      1  0.5502840000000  0.5442540000000  0.5336140000000 1.0
C      1  0.5910110000000  0.5705220000000  0.4625970000000 1.0
C      1  0.4463150000000  0.4904830000000  0.5009040000000 1.0
C      1  0.5452390000000  0.4678770000000  0.5405190000000 1.0
C      1  0.4795060000000  0.5471050000000  0.5287990000000 1.0
C      1  0.4362350000000  0.5687310000000  0.5207440000000 1.0
C      1  0.5640830000000  0.5681590000000  0.5146660000000 1.0
C      1  0.4633830000000  0.5331850000000  0.4567280000000 1.0
C      1  0.4922300000000  0.4841770000000  0.3995730000000 1.0
C      1  0.5530900000000  0.5420450000000  0.4203450000000 1.0
C      1  0.4800270000000  0.4612080000000  0.5383040000000 1.0
C      1  0.4080650000000  0.5494970000000  0.4906800000000 1.0
C      1  0.4290330000000  0.4642090000000  0.5416060000000 1.0
C      1  0.5045680000000  0.5448870000000  0.5948860000000 1.0
C      1  0.5002770000000  0.5139000000000  0.5972180000000 1.0
C      1  0.5129050000000  0.5060050000000  0.3949310000000 1.0
C      1  0.5310420000000  0.4416580000000  0.5892440000000 1.0
C      1  0.5004270000000  0.4639170000000  0.5123970000000 1.0
C      1  0.4830650000000  0.4433090000000  0.4234340000000 1.0
C      1  0.4837880000000  0.5906020000000  0.4235540000000 1.0
C      1  0.4383380000000  0.4512850000000  0.5679070000000 1.0
C      1  0.5410910000000  0.4478870000000  0.5132840000000 1.0
C      1  0.5594130000000  0.5699290000000  0.5541080000000 1.0
C      1  0.5203990000000  0.5273730000000  0.5321940000000 1.0
C      1  0.6000740000000  0.4632430000000  0.4481880000000 1.0
C      1  0.4528640000000  0.3973740000000  0.5311470000000 1.0
C      1  0.4129690000000  0.4941250000000  0.5441830000000 1.0
C      1  0.4380400000000  0.6162410000000  0.4993810000000 1.0
C      1  0.4477850000000  0.4354230000000  0.4617300000000 1.0
END
