TITL C-2778424-3986-1113 0.00631416696737557 125000 -1018.04770305162 0 0 176 (C1) n - 1
REM
REM in /home/nfs/bkarasulu/CARBON/AIRSS/Generating-Clusters/REBO/Only-C1/SD-CG/HFTN-CG
REM
REM
REM
REM
REM
REM ./C.cell (11c1c37f851c82e70ff6c80c92926a4b)
REM
REM compiler GCC version 9.2.1 20190827 (Red Hat 9.2.1-1)
REM options -cpp -mtune=generic -march=x86-64 -g -O0 -fpre-include=/usr/include/finclude/math-vector-fortran.h
REM seed 488822410 685255359 1306929043 1123163246 -1284769152 -1846752102 874594579 200433516 -1096651755 -1422273121 -155269514 -1582503231 -1796223079 -808406702 -1911915546 -774693693 -598785674 608515154 751024425 -1728371377 -1917376807 -814068574 -1638658405 -323628303 1151421700 1431861763 -170947841 600669533 904148480 -2088909683 -1339327817 -1012176710 678845178
REM
CELL 1.54180   50.00000   50.00000   50.00000   90.00000   90.00000   90.00000
LATT -1
SFAC C  
C      1  0.4439810000000  0.5243680000000  0.4855530000000 1.0
C      1  0.5056330000000  0.5599800000000  0.5583610000000 1.0
C      1  0.5399350000000  0.4082840000000  0.4667860000000 1.0
C      1  0.5968630000000  0.4506720000000  0.4588040000000 1.0
C      1  0.4744300000000  0.4846630000000  0.5643720000000 1.0
C      1  0.4935800000000  0.4954480000000  0.4078310000000 1.0
C      1  0.4223700000000  0.4956370000000  0.4727440000000 1.0
C      1  0.3826240000000  0.5306260000000  0.4864520000000 1.0
C      1  0.4260600000000  0.4639160000000  0.5598560000000 1.0
C      1  0.4995010000000  0.5691340000000  0.4929170000000 1.0
C      1  0.5386500000000  0.5120820000000  0.6027340000000 1.0
C      1  0.4113170000000  0.4239780000000  0.4721670000000 1.0
C      1  0.4387240000000  0.4935240000000  0.4439140000000 1.0
C      1  0.4644300000000  0.4937510000000  0.3997160000000 1.0
C      1  0.5051730000000  0.4510080000000  0.4581860000000 1.0
C      1  0.5108970000000  0.4839170000000  0.5987970000000 1.0
C      1  0.4431880000000  0.5896050000000  0.4456430000000 1.0
C      1  0.4615290000000  0.5737360000000  0.5395220000000 1.0
C      1  0.5544300000000  0.4903090000000  0.4713230000000 1.0
C      1  0.4855630000000  0.5815560000000  0.5205150000000 1.0
C      1  0.5437470000000  0.4800510000000  0.6069530000000 1.0
C      1  0.4948570000000  0.4916110000000  0.4808890000000 1.0
C      1  0.4960970000000  0.4732270000000  0.4368240000000 1.0
C      1  0.4004320000000  0.4938880000000  0.5546260000000 1.0
C      1  0.5669350000000  0.5414600000000  0.4644090000000 1.0
C      1  0.4644350000000  0.4596510000000  0.5128930000000 1.0
C      1  0.4322980000000  0.4552510000000  0.4345270000000 1.0
C      1  0.5012290000000  0.5727830000000  0.4240630000000 1.0
C      1  0.4265470000000  0.4741140000000  0.5060730000000 1.0
C      1  0.4010840000000  0.4463620000000  0.5194880000000 1.0
C      1  0.4037020000000  0.5077330000000  0.4316890000000 1.0
C      1  0.4273260000000  0.4270610000000  0.5296960000000 1.0
C      1  0.5279670000000  0.4363430000000  0.5747710000000 1.0
C      1  0.5156640000000  0.4950740000000  0.5057880000000 1.0
C      1  0.5216050000000  0.4970370000000  0.4664610000000 1.0
C      1  0.4787080000000  0.4659610000000  0.4838860000000 1.0
C      1  0.5624130000000  0.5465440000000  0.5707860000000 1.0
C      1  0.5149270000000  0.4966300000000  0.5363730000000 1.0
C      1  0.5787760000000  0.4745710000000  0.5042810000000 1.0
C      1  0.4771400000000  0.5466280000000  0.5533600000000 1.0
C      1  0.5444870000000  0.3957180000000  0.5182680000000 1.0
C      1  0.5529720000000  0.4544950000000  0.4293400000000 1.0
C      1  0.5149760000000  0.5688720000000  0.5296790000000 1.0
C      1  0.4513180000000  0.5848990000000  0.4183610000000 1.0
C      1  0.4228690000000  0.4903310000000  0.5790460000000 1.0
C      1  0.4488000000000  0.5639370000000  0.4849900000000 1.0
C      1  0.4768080000000  0.5218440000000  0.4396800000000 1.0
C      1  0.5055610000000  0.5215360000000  0.4010840000000 1.0
C      1  0.3997300000000  0.4500550000000  0.4881990000000 1.0
C      1  0.5020440000000  0.5508060000000  0.5968850000000 1.0
C      1  0.4968000000000  0.4597220000000  0.5678370000000 1.0
C      1  0.4105870000000  0.5211640000000  0.5383800000000 1.0
C      1  0.5294410000000  0.4872430000000  0.3921590000000 1.0
C      1  0.4320370000000  0.4785440000000  0.5357920000000 1.0
C      1  0.5724660000000  0.4570230000000  0.5536390000000 1.0
C      1  0.6131500000000  0.5118180000000  0.5235850000000 1.0
C      1  0.5059120000000  0.5310070000000  0.4526350000000 1.0
C      1  0.4790180000000  0.5097260000000  0.5011110000000 1.0
C      1  0.5614210000000  0.4082830000000  0.4932630000000 1.0
C      1  0.4260960000000  0.4539700000000  0.4658340000000 1.0
C      1  0.4616840000000  0.4187450000000  0.4548330000000 1.0
C      1  0.5522810000000  0.4112170000000  0.5413330000000 1.0
C      1  0.4245950000000  0.5432580000000  0.5602600000000 1.0
C      1  0.5786570000000  0.5111780000000  0.4641780000000 1.0
C      1  0.5090250000000  0.4187540000000  0.4587940000000 1.0
C      1  0.6087550000000  0.4722320000000  0.5203060000000 1.0
C      1  0.5246470000000  0.3934950000000  0.4903840000000 1.0
C      1  0.4076400000000  0.4780530000000  0.4401620000000 1.0
C      1  0.5188940000000  0.4434770000000  0.5197640000000 1.0
C      1  0.4695510000000  0.5339010000000  0.4687290000000 1.0
C      1  0.4670400000000  0.4289250000000  0.5254130000000 1.0
C      1  0.5547680000000  0.5054350000000  0.4288300000000 1.0
C      1  0.5930490000000  0.5108090000000  0.5420920000000 1.0
C      1  0.5207770000000  0.5357690000000  0.5306130000000 1.0
C      1  0.4399090000000  0.5164150000000  0.5650180000000 1.0
C      1  0.5635350000000  0.4669690000000  0.5912780000000 1.0
C      1  0.4692900000000  0.4926910000000  0.4392930000000 1.0
C      1  0.5277210000000  0.4679160000000  0.5011540000000 1.0
C      1  0.5106300000000  0.5269660000000  0.5620270000000 1.0
C      1  0.4822250000000  0.5833280000000  0.4475080000000 1.0
C      1  0.4645770000000  0.4534630000000  0.5761990000000 1.0
C      1  0.5407990000000  0.4828740000000  0.5470040000000 1.0
C      1  0.5183380000000  0.5767980000000  0.5816720000000 1.0
C      1  0.4982200000000  0.5396140000000  0.4830620000000 1.0
C      1  0.5772020000000  0.5537210000000  0.5344860000000 1.0
C      1  0.5123210000000  0.5273630000000  0.3760660000000 1.0
C      1  0.5567280000000  0.4409300000000  0.5782210000000 1.0
C      1  0.4995180000000  0.4400270000000  0.4913020000000 1.0
C      1  0.5672550000000  0.5859330000000  0.4909050000000 1.0
C      1  0.5410520000000  0.5956940000000  0.4738500000000 1.0
C      1  0.4701520000000  0.3952940000000  0.4935120000000 1.0
C      1  0.4954380000000  0.4082130000000  0.4950660000000 1.0
C      1  0.5402640000000  0.5384180000000  0.4115870000000 1.0
C      1  0.5523590000000  0.4651630000000  0.5201210000000 1.0
C      1  0.5474320000000  0.4231910000000  0.4414550000000 1.0
C      1  0.4593340000000  0.5600450000000  0.4529450000000 1.0
C      1  0.4751930000000  0.5290950000000  0.5275150000000 1.0
C      1  0.5539360000000  0.5077890000000  0.5750150000000 1.0
C      1  0.5581360000000  0.5323610000000  0.5169990000000 1.0
C      1  0.4427160000000  0.4202240000000  0.4790900000000 1.0
C      1  0.4240010000000  0.5488620000000  0.4678460000000 1.0
C      1  0.5271480000000  0.4703220000000  0.5720360000000 1.0
C      1  0.4692880000000  0.4201310000000  0.5581980000000 1.0
C      1  0.5443410000000  0.5634620000000  0.5146020000000 1.0
C      1  0.5307500000000  0.5681960000000  0.4873070000000 1.0
C      1  0.5115260000000  0.3953020000000  0.5215020000000 1.0
C      1  0.4449310000000  0.5644540000000  0.5677420000000 1.0
C      1  0.5282350000000  0.6213820000000  0.4851710000000 1.0
C      1  0.4032920000000  0.4971820000000  0.5152830000000 1.0
C      1  0.5682940000000  0.4973510000000  0.5331290000000 1.0
C      1  0.5477890000000  0.5271140000000  0.5483770000000 1.0
C      1  0.4666420000000  0.4907710000000  0.5202800000000 1.0
C      1  0.5079090000000  0.4669980000000  0.4054690000000 1.0
C      1  0.5000830000000  0.4267350000000  0.5640600000000 1.0
C      1  0.5466390000000  0.4392800000000  0.5395490000000 1.0
C      1  0.4781080000000  0.5062780000000  0.5977610000000 1.0
C      1  0.4879560000000  0.5071010000000  0.5499130000000 1.0
C      1  0.5934350000000  0.4500280000000  0.4911990000000 1.0
C      1  0.5299540000000  0.4590210000000  0.4739520000000 1.0
C      1  0.4151550000000  0.5638620000000  0.5112700000000 1.0
C      1  0.5576200000000  0.4577360000000  0.4617290000000 1.0
C      1  0.4479440000000  0.4741690000000  0.4795330000000 1.0
C      1  0.4225810000000  0.5229340000000  0.4519220000000 1.0
C      1  0.6152020000000  0.4949090000000  0.4984810000000 1.0
C      1  0.4653560000000  0.5376240000000  0.4157630000000 1.0
C      1  0.3946380000000  0.4777490000000  0.4716640000000 1.0
C      1  0.4370680000000  0.4439590000000  0.5028920000000 1.0
C      1  0.4330670000000  0.5788960000000  0.5248160000000 1.0
C      1  0.4474540000000  0.4068570000000  0.5103830000000 1.0
C      1  0.5053280000000  0.6254240000000  0.4941310000000 1.0
C      1  0.5433190000000  0.5084450000000  0.4015930000000 1.0
C      1  0.4988940000000  0.4223530000000  0.5322620000000 1.0
C      1  0.5844060000000  0.4256670000000  0.5105690000000 1.0
C      1  0.5324440000000  0.5397530000000  0.5846670000000 1.0
C      1  0.4622290000000  0.4387450000000  0.4307790000000 1.0
C      1  0.5376110000000  0.5190550000000  0.4492550000000 1.0
C      1  0.5812600000000  0.5649800000000  0.4786420000000 1.0
C      1  0.4814710000000  0.6043580000000  0.4969110000000 1.0
C      1  0.4714110000000  0.5652440000000  0.4135820000000 1.0
C      1  0.5235180000000  0.5868180000000  0.4460170000000 1.0
C      1  0.5706460000000  0.4821350000000  0.4331320000000 1.0
C      1  0.5197980000000  0.5251240000000  0.5022140000000 1.0
C      1  0.4937990000000  0.4386760000000  0.4180320000000 1.0
C      1  0.4230700000000  0.5318740000000  0.5115270000000 1.0
C      1  0.5633470000000  0.5046800000000  0.5005490000000 1.0
C      1  0.5883520000000  0.5256490000000  0.4351010000000 1.0
C      1  0.5942350000000  0.4774500000000  0.4496240000000 1.0
C      1  0.5673380000000  0.5847130000000  0.5242580000000 1.0
C      1  0.4564440000000  0.4690970000000  0.4179910000000 1.0
C      1  0.4794220000000  0.4719080000000  0.6014990000000 1.0
C      1  0.4515810000000  0.4879500000000  0.5901520000000 1.0
C      1  0.5059720000000  0.5177400000000  0.6042840000000 1.0
C      1  0.5844180000000  0.5204020000000  0.5704960000000 1.0
C      1  0.5243450000000  0.4363080000000  0.4240170000000 1.0
C      1  0.4854970000000  0.4051790000000  0.4565190000000 1.0
C      1  0.5727700000000  0.4311800000000  0.4728940000000 1.0
C      1  0.3931470000000  0.4706480000000  0.5333340000000 1.0
C      1  0.4549440000000  0.5438560000000  0.5101050000000 1.0
C      1  0.5926570000000  0.4484560000000  0.5311350000000 1.0
C      1  0.4650560000000  0.5272100000000  0.5784500000000 1.0
C      1  0.4617360000000  0.5934200000000  0.4740620000000 1.0
C      1  0.5013790000000  0.5929840000000  0.4710970000000 1.0
C      1  0.4693210000000  0.5578490000000  0.5905060000000 1.0
C      1  0.5376640000000  0.5390840000000  0.4767950000000 1.0
C      1  0.5655310000000  0.5762340000000  0.5573870000000 1.0
C      1  0.5647710000000  0.5479170000000  0.4320860000000 1.0
C      1  0.5786990000000  0.4862250000000  0.5700320000000 1.0
C      1  0.3874780000000  0.5041760000000  0.4901960000000 1.0
C      1  0.4407580000000  0.4363950000000  0.5584480000000 1.0
C      1  0.5407290000000  0.5693660000000  0.4261470000000 1.0
C      1  0.5105020000000  0.5432960000000  0.4235930000000 1.0
C      1  0.4535640000000  0.5189310000000  0.3977660000000 1.0
C      1  0.4001480000000  0.5529360000000  0.4865020000000 1.0
C      1  0.5426370000000  0.5885300000000  0.5757480000000 1.0
C      1  0.6050220000000  0.4961620000000  0.4723800000000 1.0
C      1  0.4480340000000  0.5018410000000  0.5398670000000 1.0
END
