TITL C-2778427-5640-1329 -0.00914711659144137 125000 -1004.90840980054 0 0 172 (C1) n - 1
REM
REM in /home/nfs/bkarasulu/CARBON/AIRSS/Generating-Clusters/REBO/Only-C1/SD-CG/HFTN-CG
REM
REM
REM
REM
REM
REM ./C.cell (11c1c37f851c82e70ff6c80c92926a4b)
REM
REM compiler GCC version 9.2.1 20190827 (Red Hat 9.2.1-1)
REM options -cpp -mtune=generic -march=x86-64 -g -O0 -fpre-include=/usr/include/finclude/math-vector-fortran.h
REM seed 923458877 1841438427 -782958391 -1015631003 -1808592040 -1059701927 -733997738 334949173 1313259609 -1966406833 -566466200 -1924934658 -174967088 -806497326 -478854448 -269157328 -600179998 190362684 1629830731 -489722775 2080157467 1897033044 566657636 -1776198458 -1499505955 -1047840783 -493721474 1130294664 -292768888 -1676930242 -388228653 1762766708 1196779540
REM
CELL 1.54180   50.00000   50.00000   50.00000   90.00000   90.00000   90.00000
LATT -1
SFAC C  
C      1  0.5109390000000  0.5881220000000  0.5321310000000 1.0
C      1  0.5257550000000  0.4109950000000  0.4172950000000 1.0
C      1  0.5647010000000  0.5759460000000  0.5133860000000 1.0
C      1  0.4330840000000  0.5053910000000  0.4206880000000 1.0
C      1  0.4991030000000  0.5338590000000  0.4426440000000 1.0
C      1  0.5403270000000  0.5838910000000  0.5416380000000 1.0
C      1  0.4381940000000  0.5040610000000  0.5075270000000 1.0
C      1  0.5523720000000  0.5019840000000  0.5397340000000 1.0
C      1  0.4536080000000  0.4329180000000  0.4487040000000 1.0
C      1  0.5551090000000  0.5213800000000  0.4074780000000 1.0
C      1  0.4755820000000  0.4883910000000  0.4381260000000 1.0
C      1  0.3948280000000  0.4846360000000  0.4598100000000 1.0
C      1  0.5622490000000  0.5212410000000  0.4942860000000 1.0
C      1  0.5767070000000  0.5571100000000  0.5705430000000 1.0
C      1  0.4571530000000  0.3941120000000  0.5179580000000 1.0
C      1  0.4072360000000  0.4617230000000  0.4479090000000 1.0
C      1  0.5741470000000  0.5786100000000  0.5448120000000 1.0
C      1  0.5940760000000  0.4731630000000  0.5430140000000 1.0
C      1  0.5019230000000  0.4630560000000  0.4763040000000 1.0
C      1  0.4635100000000  0.4869530000000  0.5050230000000 1.0
C      1  0.4564460000000  0.4479020000000  0.4776030000000 1.0
C      1  0.4170220000000  0.5237520000000  0.4349330000000 1.0
C      1  0.5478390000000  0.5463550000000  0.4254230000000 1.0
C      1  0.5000480000000  0.4260180000000  0.5177650000000 1.0
C      1  0.5446460000000  0.4832950000000  0.5741020000000 1.0
C      1  0.4182440000000  0.5517200000000  0.5293280000000 1.0
C      1  0.4634160000000  0.4887880000000  0.5525950000000 1.0
C      1  0.5294480000000  0.5465680000000  0.4872430000000 1.0
C      1  0.5913140000000  0.4896510000000  0.4710940000000 1.0
C      1  0.5486210000000  0.4614740000000  0.4198500000000 1.0
C      1  0.5506850000000  0.4979980000000  0.4857100000000 1.0
C      1  0.5280050000000  0.5151180000000  0.3907400000000 1.0
C      1  0.4637370000000  0.5463570000000  0.5823720000000 1.0
C      1  0.5059640000000  0.4345680000000  0.4436380000000 1.0
C      1  0.5417850000000  0.5570580000000  0.4572330000000 1.0
C      1  0.5623200000000  0.4179900000000  0.4642410000000 1.0
C      1  0.4857150000000  0.5446080000000  0.5585340000000 1.0
C      1  0.4534470000000  0.5433430000000  0.4176210000000 1.0
C      1  0.4146950000000  0.4901250000000  0.5271050000000 1.0
C      1  0.5618320000000  0.4478210000000  0.4797000000000 1.0
C      1  0.4940350000000  0.4986160000000  0.4600060000000 1.0
C      1  0.4888050000000  0.4325900000000  0.5554750000000 1.0
C      1  0.4803890000000  0.3855290000000  0.5018950000000 1.0
C      1  0.5447950000000  0.5926920000000  0.5732930000000 1.0
C      1  0.4544790000000  0.4091150000000  0.4705670000000 1.0
C      1  0.5217550000000  0.5711780000000  0.5766940000000 1.0
C      1  0.4671550000000  0.5273260000000  0.4406150000000 1.0
C      1  0.5080880000000  0.5212100000000  0.5631580000000 1.0
C      1  0.4570240000000  0.4539590000000  0.5113670000000 1.0
C      1  0.3960440000000  0.5277860000000  0.4789070000000 1.0
C      1  0.4166160000000  0.4721680000000  0.5627080000000 1.0
C      1  0.5372320000000  0.4732370000000  0.5450790000000 1.0
C      1  0.4898930000000  0.5332340000000  0.5965430000000 1.0
C      1  0.4780300000000  0.4290080000000  0.4296020000000 1.0
C      1  0.4858530000000  0.5516610000000  0.4658610000000 1.0
C      1  0.5258500000000  0.4102520000000  0.5338760000000 1.0
C      1  0.5157350000000  0.5580160000000  0.4270910000000 1.0
C      1  0.4645490000000  0.5642040000000  0.5139620000000 1.0
C      1  0.5828820000000  0.5539260000000  0.4665300000000 1.0
C      1  0.5344290000000  0.4823630000000  0.5036310000000 1.0
C      1  0.5105970000000  0.4124820000000  0.4694080000000 1.0
C      1  0.4798560000000  0.5999130000000  0.4393150000000 1.0
C      1  0.4751590000000  0.4704090000000  0.4803050000000 1.0
C      1  0.4995330000000  0.4711910000000  0.5718420000000 1.0
C      1  0.4742630000000  0.5944930000000  0.5664430000000 1.0
C      1  0.5597840000000  0.5292670000000  0.5250630000000 1.0
C      1  0.4917120000000  0.5048560000000  0.5985210000000 1.0
C      1  0.4354040000000  0.4550350000000  0.4329390000000 1.0
C      1  0.4176610000000  0.4422940000000  0.4706190000000 1.0
C      1  0.4959250000000  0.5709000000000  0.5081780000000 1.0
C      1  0.3977940000000  0.5566380000000  0.4852130000000 1.0
C      1  0.4423660000000  0.4989320000000  0.5773560000000 1.0
C      1  0.5355310000000  0.5234300000000  0.4552940000000 1.0
C      1  0.4674170000000  0.5311790000000  0.5107660000000 1.0
C      1  0.5646140000000  0.5801870000000  0.4648450000000 1.0
C      1  0.4734670000000  0.5194500000000  0.5411080000000 1.0
C      1  0.5469910000000  0.4856060000000  0.4605140000000 1.0
C      1  0.4570600000000  0.4334790000000  0.5682410000000 1.0
C      1  0.4302430000000  0.4189940000000  0.4856170000000 1.0
C      1  0.4858650000000  0.4972110000000  0.5209410000000 1.0
C      1  0.5021550000000  0.5755290000000  0.4782000000000 1.0
C      1  0.5097700000000  0.4579770000000  0.5362030000000 1.0
C      1  0.4802930000000  0.5192640000000  0.4853080000000 1.0
C      1  0.5846370000000  0.5493080000000  0.5321990000000 1.0
C      1  0.4760450000000  0.4601610000000  0.5390620000000 1.0
C      1  0.4885850000000  0.4014150000000  0.5412530000000 1.0
C      1  0.5200780000000  0.4783740000000  0.4583040000000 1.0
C      1  0.4438980000000  0.4851460000000  0.4399200000000 1.0
C      1  0.5725280000000  0.4460820000000  0.4478540000000 1.0
C      1  0.4739130000000  0.5690160000000  0.4390530000000 1.0
C      1  0.5192770000000  0.5426360000000  0.5886860000000 1.0
C      1  0.5694270000000  0.4804490000000  0.5225240000000 1.0
C      1  0.5049610000000  0.6097170000000  0.5086000000000 1.0
C      1  0.3951450000000  0.4803180000000  0.4937330000000 1.0
C      1  0.5910820000000  0.5235910000000  0.5491400000000 1.0
C      1  0.5383510000000  0.4436180000000  0.5930930000000 1.0
C      1  0.4186550000000  0.4347280000000  0.5098320000000 1.0
C      1  0.4285240000000  0.5509050000000  0.4773700000000 1.0
C      1  0.5477320000000  0.4476880000000  0.5289450000000 1.0
C      1  0.5028980000000  0.4942590000000  0.5506630000000 1.0
C      1  0.4514150000000  0.5702180000000  0.4646120000000 1.0
C      1  0.4564550000000  0.4107680000000  0.5474130000000 1.0
C      1  0.3986030000000  0.5130710000000  0.4543500000000 1.0
C      1  0.4820150000000  0.5002740000000  0.4069170000000 1.0
C      1  0.5270220000000  0.6156110000000  0.4926930000000 1.0
C      1  0.4376590000000  0.5576140000000  0.5636280000000 1.0
C      1  0.5703120000000  0.4179190000000  0.5147440000000 1.0
C      1  0.5660860000000  0.4909910000000  0.4183360000000 1.0
C      1  0.3952390000000  0.5638580000000  0.5117960000000 1.0
C      1  0.5003710000000  0.5257660000000  0.4036250000000 1.0
C      1  0.5116810000000  0.4379470000000  0.4915080000000 1.0
C      1  0.6010800000000  0.5028080000000  0.5306720000000 1.0
C      1  0.5442300000000  0.5192950000000  0.5905860000000 1.0
C      1  0.5290190000000  0.5276910000000  0.5155820000000 1.0
C      1  0.5801020000000  0.4709280000000  0.4921640000000 1.0
C      1  0.4359370000000  0.5282460000000  0.5797890000000 1.0
C      1  0.4355090000000  0.5374440000000  0.5052000000000 1.0
C      1  0.5176860000000  0.4996870000000  0.5201580000000 1.0
C      1  0.5684160000000  0.5295400000000  0.4478840000000 1.0
C      1  0.5933640000000  0.5217480000000  0.4699310000000 1.0
C      1  0.4429590000000  0.4624250000000  0.5613110000000 1.0
C      1  0.5989240000000  0.5065150000000  0.5002640000000 1.0
C      1  0.5382170000000  0.4516000000000  0.4988190000000 1.0
C      1  0.4337210000000  0.5489050000000  0.4444110000000 1.0
C      1  0.4918750000000  0.6073300000000  0.4637960000000 1.0
C      1  0.4391320000000  0.4908990000000  0.4697960000000 1.0
C      1  0.4973220000000  0.5756690000000  0.5581820000000 1.0
C      1  0.4149480000000  0.5030240000000  0.5569430000000 1.0
C      1  0.4518990000000  0.5939580000000  0.5550310000000 1.0
C      1  0.5512670000000  0.4304630000000  0.4279410000000 1.0
C      1  0.4574960000000  0.5140000000000  0.4639970000000 1.0
C      1  0.4080120000000  0.4588000000000  0.5168690000000 1.0
C      1  0.4854020000000  0.5534170000000  0.4110610000000 1.0
C      1  0.4628160000000  0.5840890000000  0.4901160000000 1.0
C      1  0.5563340000000  0.4063440000000  0.4928690000000 1.0
C      1  0.5288740000000  0.3972230000000  0.4940730000000 1.0
C      1  0.5184720000000  0.4615700000000  0.5945740000000 1.0
C      1  0.5389720000000  0.5253750000000  0.5585920000000 1.0
C      1  0.5433920000000  0.5760600000000  0.4919300000000 1.0
C      1  0.4244440000000  0.4709710000000  0.4827010000000 1.0
C      1  0.5741390000000  0.4775060000000  0.4463790000000 1.0
C      1  0.5174420000000  0.4550750000000  0.4259400000000 1.0
C      1  0.4970900000000  0.4699040000000  0.4109210000000 1.0
C      1  0.5080880000000  0.3870050000000  0.5171330000000 1.0
C      1  0.4674200000000  0.4588600000000  0.4217230000000 1.0
C      1  0.5329480000000  0.4889240000000  0.4114320000000 1.0
C      1  0.5840870000000  0.4573670000000  0.5644150000000 1.0
C      1  0.4513330000000  0.5075860000000  0.3999270000000 1.0
C      1  0.5368190000000  0.4071170000000  0.4482890000000 1.0
C      1  0.4126920000000  0.5352880000000  0.5560350000000 1.0
C      1  0.4714460000000  0.4606920000000  0.5797110000000 1.0
C      1  0.5558610000000  0.4384850000000  0.5668960000000 1.0
C      1  0.5677400000000  0.4726370000000  0.5839890000000 1.0
C      1  0.5746100000000  0.5258230000000  0.5764450000000 1.0
C      1  0.4989620000000  0.4123340000000  0.4112320000000 1.0
C      1  0.5188690000000  0.5115690000000  0.4292900000000 1.0
C      1  0.5148870000000  0.5825580000000  0.4472960000000 1.0
C      1  0.4440870000000  0.5708240000000  0.5346180000000 1.0
C      1  0.5355010000000  0.5970950000000  0.4674210000000 1.0
C      1  0.4802930000000  0.3987670000000  0.4767360000000 1.0
C      1  0.5552170000000  0.4169790000000  0.5422270000000 1.0
C      1  0.5229430000000  0.4347080000000  0.5573320000000 1.0
C      1  0.5210700000000  0.4948070000000  0.5957360000000 1.0
C      1  0.5791640000000  0.4481560000000  0.5156940000000 1.0
C      1  0.4690660000000  0.4894310000000  0.5921290000000 1.0
C      1  0.5122610000000  0.5205450000000  0.4779920000000 1.0
C      1  0.5804540000000  0.5498340000000  0.4982520000000 1.0
C      1  0.5109490000000  0.5494510000000  0.5225150000000 1.0
C      1  0.4811500000000  0.6064390000000  0.4917960000000 1.0
C      1  0.5457670000000  0.5551210000000  0.5596580000000 1.0
C      1  0.4047790000000  0.5103040000000  0.5016000000000 1.0
C      1  0.4675160000000  0.4265040000000  0.5192070000000 1.0
END
