TITL C-2778428-5639-980 -0.00181649968804951 125000 -916.24115160767 0 0 160 (C1) n - 1
REM
REM in /home/nfs/bkarasulu/CARBON/AIRSS/Generating-Clusters/REBO/Only-C1/SD-CG/HFTN-CG
REM
REM
REM
REM
REM
REM ./C.cell (11c1c37f851c82e70ff6c80c92926a4b)
REM
REM compiler GCC version 9.2.1 20190827 (Red Hat 9.2.1-1)
REM options -cpp -mtune=generic -march=x86-64 -g -O0 -fpre-include=/usr/include/finclude/math-vector-fortran.h
REM seed 408616621 -1143631962 1259745061 1346740430 677489365 916597929 776756751 -1483661905 -1509746112 1980840429 -1952846539 1328235692 -1581220895 -1302499740 2124003370 -485339666 -1234186761 1151375275 -329406749 2137732918 -1354302909 543384291 -1013797614 -1373074788 1123171497 721520722 -1463445287 1994600347 2012784123 237018629 -1302100010 1446585467 -71083179
REM
CELL 1.54180   50.00000   50.00000   50.00000   90.00000   90.00000   90.00000
LATT -1
SFAC C  
C      1  0.5462820000000  0.4521370000000  0.4283920000000 1.0
C      1  0.4667110000000  0.4624580000000  0.4080100000000 1.0
C      1  0.4865570000000  0.4891850000000  0.4768590000000 1.0
C      1  0.4313270000000  0.5511370000000  0.4362780000000 1.0
C      1  0.5421330000000  0.5294130000000  0.4138160000000 1.0
C      1  0.4040520000000  0.4970390000000  0.5408700000000 1.0
C      1  0.4016330000000  0.4449270000000  0.5064070000000 1.0
C      1  0.4460560000000  0.5731390000000  0.4578050000000 1.0
C      1  0.4848970000000  0.5762770000000  0.5450570000000 1.0
C      1  0.4559420000000  0.4006950000000  0.4740260000000 1.0
C      1  0.5449650000000  0.5849640000000  0.4730350000000 1.0
C      1  0.5549180000000  0.5167660000000  0.5219260000000 1.0
C      1  0.4350190000000  0.4524770000000  0.5657190000000 1.0
C      1  0.5143060000000  0.4878590000000  0.5692830000000 1.0
C      1  0.5732550000000  0.5750920000000  0.4711230000000 1.0
C      1  0.5684470000000  0.5382000000000  0.4854670000000 1.0
C      1  0.5294020000000  0.5625710000000  0.5240410000000 1.0
C      1  0.5485420000000  0.4570500000000  0.5046600000000 1.0
C      1  0.4175820000000  0.5041400000000  0.4534770000000 1.0
C      1  0.4290190000000  0.4260600000000  0.5141600000000 1.0
C      1  0.4736170000000  0.4649520000000  0.5487680000000 1.0
C      1  0.5088710000000  0.4121610000000  0.4405620000000 1.0
C      1  0.5751190000000  0.4988800000000  0.4406540000000 1.0
C      1  0.5156500000000  0.4412460000000  0.4238420000000 1.0
C      1  0.4427130000000  0.4903610000000  0.4915770000000 1.0
C      1  0.5860660000000  0.5651000000000  0.4980550000000 1.0
C      1  0.4347880000000  0.5306920000000  0.4124210000000 1.0
C      1  0.5205000000000  0.4727610000000  0.5409470000000 1.0
C      1  0.5909780000000  0.4837750000000  0.5619690000000 1.0
C      1  0.5145730000000  0.5232220000000  0.5473940000000 1.0
C      1  0.4726900000000  0.5021150000000  0.5027370000000 1.0
C      1  0.4024470000000  0.4662950000000  0.5260760000000 1.0
C      1  0.5674230000000  0.4407210000000  0.4812140000000 1.0
C      1  0.4905800000000  0.4394160000000  0.5504440000000 1.0
C      1  0.4638740000000  0.4622090000000  0.5811960000000 1.0
C      1  0.4288360000000  0.5327760000000  0.4621590000000 1.0
C      1  0.4634810000000  0.5022830000000  0.4407200000000 1.0
C      1  0.4837760000000  0.4941430000000  0.5942950000000 1.0
C      1  0.5066200000000  0.4113360000000  0.4822160000000 1.0
C      1  0.5110780000000  0.4402040000000  0.5745630000000 1.0
C      1  0.5847260000000  0.5289460000000  0.4349230000000 1.0
C      1  0.5306200000000  0.5662460000000  0.5852820000000 1.0
C      1  0.5730600000000  0.4765370000000  0.4973930000000 1.0
C      1  0.4602670000000  0.5669430000000  0.4280020000000 1.0
C      1  0.4760430000000  0.5659520000000  0.5078450000000 1.0
C      1  0.4733240000000  0.3970060000000  0.5193270000000 1.0
C      1  0.5067160000000  0.4355160000000  0.5243050000000 1.0
C      1  0.4936850000000  0.5479990000000  0.5549340000000 1.0
C      1  0.5357530000000  0.4312920000000  0.5153130000000 1.0
C      1  0.5729380000000  0.5407320000000  0.5638080000000 1.0
C      1  0.5764500000000  0.4657090000000  0.4639780000000 1.0
C      1  0.4655860000000  0.5808940000000  0.4788020000000 1.0
C      1  0.5992280000000  0.5379820000000  0.5096700000000 1.0
C      1  0.4417750000000  0.4143240000000  0.4499040000000 1.0
C      1  0.5170570000000  0.5228560000000  0.4473200000000 1.0
C      1  0.5512620000000  0.4222870000000  0.5408660000000 1.0
C      1  0.5212640000000  0.5170150000000  0.5164220000000 1.0
C      1  0.5082500000000  0.5441560000000  0.5957900000000 1.0
C      1  0.5909370000000  0.4537200000000  0.5477580000000 1.0
C      1  0.5344060000000  0.5869360000000  0.4443970000000 1.0
C      1  0.5183260000000  0.5759580000000  0.4882000000000 1.0
C      1  0.5323300000000  0.4488630000000  0.4592700000000 1.0
C      1  0.4746950000000  0.5221880000000  0.5518840000000 1.0
C      1  0.5896030000000  0.4406860000000  0.5030330000000 1.0
C      1  0.5018660000000  0.6019780000000  0.4946530000000 1.0
C      1  0.4855540000000  0.4807080000000  0.4378750000000 1.0
C      1  0.4876460000000  0.3969860000000  0.4625970000000 1.0
C      1  0.5775880000000  0.5793810000000  0.5242350000000 1.0
C      1  0.5321850000000  0.4756800000000  0.4120230000000 1.0
C      1  0.4879410000000  0.4933920000000  0.5511460000000 1.0
C      1  0.5030640000000  0.5175460000000  0.5789570000000 1.0
C      1  0.4993650000000  0.4666120000000  0.4105490000000 1.0
C      1  0.4454430000000  0.4893720000000  0.5766070000000 1.0
C      1  0.5957860000000  0.4764900000000  0.5229730000000 1.0
C      1  0.5162780000000  0.4885820000000  0.6028530000000 1.0
C      1  0.5087650000000  0.4599910000000  0.5050390000000 1.0
C      1  0.4758570000000  0.5458100000000  0.5841410000000 1.0
C      1  0.4333070000000  0.5010050000000  0.4251820000000 1.0
C      1  0.4974450000000  0.5513030000000  0.4775600000000 1.0
C      1  0.4148290000000  0.5697150000000  0.4676150000000 1.0
C      1  0.4265050000000  0.5690070000000  0.5058040000000 1.0
C      1  0.5975540000000  0.5209250000000  0.4814840000000 1.0
C      1  0.5391390000000  0.5503630000000  0.4944340000000 1.0
C      1  0.4148530000000  0.4773810000000  0.5664200000000 1.0
C      1  0.5172760000000  0.4919710000000  0.4357050000000 1.0
C      1  0.4399110000000  0.4325230000000  0.5453280000000 1.0
C      1  0.4008350000000  0.5234040000000  0.4900120000000 1.0
C      1  0.5526550000000  0.5014740000000  0.4145570000000 1.0
C      1  0.6027370000000  0.5369110000000  0.4541970000000 1.0
C      1  0.4036570000000  0.5512310000000  0.4878430000000 1.0
C      1  0.4884230000000  0.4395560000000  0.4442700000000 1.0
C      1  0.4822200000000  0.4584470000000  0.4707200000000 1.0
C      1  0.5631460000000  0.5456620000000  0.4263510000000 1.0
C      1  0.5068950000000  0.5800190000000  0.4461400000000 1.0
C      1  0.4657220000000  0.5220280000000  0.4152060000000 1.0
C      1  0.6054600000000  0.4688340000000  0.4911110000000 1.0
C      1  0.4579670000000  0.5643090000000  0.5617340000000 1.0
C      1  0.5566330000000  0.5736470000000  0.5401840000000 1.0
C      1  0.5462360000000  0.4988770000000  0.4534600000000 1.0
C      1  0.4567760000000  0.5129030000000  0.5283580000000 1.0
C      1  0.4369050000000  0.5340200000000  0.5213900000000 1.0
C      1  0.5031880000000  0.5455320000000  0.5106880000000 1.0
C      1  0.5948840000000  0.4924170000000  0.4683080000000 1.0
C      1  0.5344190000000  0.4763090000000  0.4727610000000 1.0
C      1  0.5213960000000  0.5912800000000  0.5404250000000 1.0
C      1  0.4425800000000  0.5431220000000  0.4900610000000 1.0
C      1  0.4847520000000  0.5491730000000  0.4212170000000 1.0
C      1  0.4155400000000  0.5255730000000  0.5444020000000 1.0
C      1  0.4040670000000  0.4909140000000  0.4789670000000 1.0
C      1  0.4518730000000  0.4045970000000  0.5017270000000 1.0
C      1  0.4612430000000  0.5162420000000  0.5890510000000 1.0
C      1  0.6006680000000  0.5035090000000  0.5394750000000 1.0
C      1  0.4351840000000  0.4428770000000  0.4548010000000 1.0
C      1  0.4155680000000  0.4999680000000  0.5089810000000 1.0
C      1  0.4473250000000  0.5933050000000  0.5039130000000 1.0
C      1  0.5294970000000  0.5195590000000  0.6076480000000 1.0
C      1  0.4538180000000  0.5114200000000  0.4687470000000 1.0
C      1  0.4063860000000  0.4593880000000  0.4765630000000 1.0
C      1  0.4592300000000  0.4616310000000  0.4918250000000 1.0
C      1  0.4738340000000  0.5323260000000  0.4865830000000 1.0
C      1  0.5651130000000  0.4612000000000  0.5675610000000 1.0
C      1  0.5125170000000  0.5024810000000  0.4737910000000 1.0
C      1  0.4258990000000  0.5549640000000  0.5583560000000 1.0
C      1  0.5399180000000  0.4180780000000  0.4462010000000 1.0
C      1  0.5086290000000  0.4426550000000  0.4785350000000 1.0
C      1  0.4514100000000  0.5620030000000  0.5283890000000 1.0
C      1  0.4764210000000  0.5995890000000  0.5161720000000 1.0
C      1  0.5616050000000  0.5706250000000  0.4400460000000 1.0
C      1  0.5728890000000  0.4591840000000  0.4364860000000 1.0
C      1  0.4352460000000  0.4435980000000  0.4861600000000 1.0
C      1  0.4311440000000  0.4699020000000  0.5301210000000 1.0
C      1  0.5807600000000  0.4320480000000  0.5295040000000 1.0
C      1  0.5409620000000  0.5174210000000  0.5672000000000 1.0
C      1  0.5385220000000  0.5836480000000  0.5650780000000 1.0
C      1  0.4696180000000  0.4126950000000  0.4387270000000 1.0
C      1  0.4436560000000  0.4920190000000  0.5447220000000 1.0
C      1  0.5388680000000  0.4492020000000  0.5575780000000 1.0
C      1  0.5210470000000  0.4141060000000  0.5545780000000 1.0
C      1  0.4971370000000  0.4045950000000  0.5324350000000 1.0
C      1  0.5309160000000  0.4863080000000  0.5050930000000 1.0
C      1  0.5426810000000  0.4953090000000  0.5422330000000 1.0
C      1  0.5339300000000  0.4104870000000  0.4931170000000 1.0
C      1  0.5610590000000  0.4929910000000  0.5701830000000 1.0
C      1  0.4648520000000  0.4208040000000  0.5502240000000 1.0
C      1  0.4958040000000  0.4622130000000  0.5932170000000 1.0
C      1  0.4947290000000  0.4843330000000  0.5210640000000 1.0
C      1  0.4933320000000  0.5175270000000  0.3988010000000 1.0
C      1  0.4582390000000  0.4620420000000  0.5228380000000 1.0
C      1  0.5406330000000  0.5218870000000  0.4773370000000 1.0
C      1  0.5480620000000  0.5398530000000  0.5872870000000 1.0
C      1  0.4438040000000  0.5270630000000  0.5634430000000 1.0
C      1  0.4177430000000  0.4708130000000  0.4461700000000 1.0
C      1  0.4345530000000  0.4706260000000  0.4161700000000 1.0
C      1  0.5058100000000  0.6094600000000  0.5265950000000 1.0
C      1  0.4908270000000  0.5937630000000  0.4653910000000 1.0
C      1  0.5819410000000  0.5274330000000  0.5339830000000 1.0
C      1  0.5029040000000  0.5484300000000  0.4466430000000 1.0
C      1  0.4564730000000  0.4629310000000  0.4405950000000 1.0
C      1  0.5145140000000  0.5352790000000  0.4094680000000 1.0
C      1  0.5529340000000  0.4162790000000  0.4730020000000 1.0
END
