TITL C-2778437-8639-1496 0.00327229021051352 125000 -1028.50095683011 0 0 178 (C1) n - 1
REM
REM in /home/nfs/bkarasulu/CARBON/AIRSS/Generating-Clusters/REBO/Only-C1/SD-CG/HFTN-CG
REM
REM
REM
REM
REM
REM ./C.cell (11c1c37f851c82e70ff6c80c92926a4b)
REM
REM compiler GCC version 9.2.1 20190827 (Red Hat 9.2.1-1)
REM options -cpp -mtune=generic -march=x86-64 -g -O0 -fpre-include=/usr/include/finclude/math-vector-fortran.h
REM seed -1612782217 1016077426 -318228820 505121543 -651826589 -553420424 701921971 -1111983483 1980544766 718267534 1230445644 1357348699 -361347906 567350214 -1705309005 2113618478 -332152420 -1871741798 100806645 1068363830 199610949 1310890315 -264804747 -38528563 283810385 1725040562 548918827 -1139039496 2019638410 -1384299538 -1619176066 -357795771 -2004425734
REM
CELL 1.54180   50.00000   50.00000   50.00000   90.00000   90.00000   90.00000
LATT -1
SFAC C  
C      1  0.5653030000000  0.4911160000000  0.4832390000000 1.0
C      1  0.5184060000000  0.4658270000000  0.5123410000000 1.0
C      1  0.5041520000000  0.5221070000000  0.5648010000000 1.0
C      1  0.5670300000000  0.4611930000000  0.5417790000000 1.0
C      1  0.4556190000000  0.5858450000000  0.5488750000000 1.0
C      1  0.4768910000000  0.5792260000000  0.5235970000000 1.0
C      1  0.5695160000000  0.4399020000000  0.4510810000000 1.0
C      1  0.5448230000000  0.4798430000000  0.4963380000000 1.0
C      1  0.4888900000000  0.5436830000000  0.4334550000000 1.0
C      1  0.5017170000000  0.4635390000000  0.4653120000000 1.0
C      1  0.4412450000000  0.4965440000000  0.5546170000000 1.0
C      1  0.5626570000000  0.4978400000000  0.5818680000000 1.0
C      1  0.5027550000000  0.5676220000000  0.5653290000000 1.0
C      1  0.5684820000000  0.5229710000000  0.4836210000000 1.0
C      1  0.4886010000000  0.4930170000000  0.5731910000000 1.0
C      1  0.5599880000000  0.5371350000000  0.5113130000000 1.0
C      1  0.4603420000000  0.4163050000000  0.4304500000000 1.0
C      1  0.4340690000000  0.5427660000000  0.5700550000000 1.0
C      1  0.4086430000000  0.4845710000000  0.5166200000000 1.0
C      1  0.5779130000000  0.5298820000000  0.5365300000000 1.0
C      1  0.5007300000000  0.4476810000000  0.4939790000000 1.0
C      1  0.6021840000000  0.5033740000000  0.4925700000000 1.0
C      1  0.4841810000000  0.4677350000000  0.6124220000000 1.0
C      1  0.5692040000000  0.5476730000000  0.4592370000000 1.0
C      1  0.5176840000000  0.5059470000000  0.6097550000000 1.0
C      1  0.5154580000000  0.4160390000000  0.4338030000000 1.0
C      1  0.5874270000000  0.4595660000000  0.5156040000000 1.0
C      1  0.5481180000000  0.4195430000000  0.4864290000000 1.0
C      1  0.5966910000000  0.4888520000000  0.5156240000000 1.0
C      1  0.4343740000000  0.5264060000000  0.4990010000000 1.0
C      1  0.5303800000000  0.5636360000000  0.5846520000000 1.0
C      1  0.5475700000000  0.4820570000000  0.4044880000000 1.0
C      1  0.5338210000000  0.3918350000000  0.4948150000000 1.0
C      1  0.4493330000000  0.5126200000000  0.4333420000000 1.0
C      1  0.5244140000000  0.6081290000000  0.5215210000000 1.0
C      1  0.4741310000000  0.4434500000000  0.4644630000000 1.0
C      1  0.4840960000000  0.5011550000000  0.6056480000000 1.0
C      1  0.6002160000000  0.5354320000000  0.4810580000000 1.0
C      1  0.5106240000000  0.5515310000000  0.4009580000000 1.0
C      1  0.4300710000000  0.4722740000000  0.4264840000000 1.0
C      1  0.4956710000000  0.4398590000000  0.5542330000000 1.0
C      1  0.4177770000000  0.5574830000000  0.5226790000000 1.0
C      1  0.4445930000000  0.4693460000000  0.4572620000000 1.0
C      1  0.5881900000000  0.5494580000000  0.5573170000000 1.0
C      1  0.5349180000000  0.5086180000000  0.4174580000000 1.0
C      1  0.4772220000000  0.6120550000000  0.5459440000000 1.0
C      1  0.4500350000000  0.5463760000000  0.5959850000000 1.0
C      1  0.5156140000000  0.5574100000000  0.4881150000000 1.0
C      1  0.5426640000000  0.4462790000000  0.5008540000000 1.0
C      1  0.4650360000000  0.5701990000000  0.5779230000000 1.0
C      1  0.5342040000000  0.4703810000000  0.4591180000000 1.0
C      1  0.4870570000000  0.5951310000000  0.5710870000000 1.0
C      1  0.5191770000000  0.5539700000000  0.5189190000000 1.0
C      1  0.5554790000000  0.4185080000000  0.5634140000000 1.0
C      1  0.4892220000000  0.4225010000000  0.4134670000000 1.0
C      1  0.5469470000000  0.5578260000000  0.4906310000000 1.0
C      1  0.4928700000000  0.4894580000000  0.3916790000000 1.0
C      1  0.5394840000000  0.4538410000000  0.6043610000000 1.0
C      1  0.4187780000000  0.5431510000000  0.4552690000000 1.0
C      1  0.5282360000000  0.5340080000000  0.6016840000000 1.0
C      1  0.3847940000000  0.5181120000000  0.4866470000000 1.0
C      1  0.4843170000000  0.4230200000000  0.5038050000000 1.0
C      1  0.5770110000000  0.4193210000000  0.4760430000000 1.0
C      1  0.5880880000000  0.5012960000000  0.5393530000000 1.0
C      1  0.4965170000000  0.4101990000000  0.5274260000000 1.0
C      1  0.4076100000000  0.4616230000000  0.4703540000000 1.0
C      1  0.5036110000000  0.6069620000000  0.4874290000000 1.0
C      1  0.4589830000000  0.4642550000000  0.5117550000000 1.0
C      1  0.4501440000000  0.4966820000000  0.6043250000000 1.0
C      1  0.4344980000000  0.4741980000000  0.5330210000000 1.0
C      1  0.4747950000000  0.5395110000000  0.5658730000000 1.0
C      1  0.5418740000000  0.5741910000000  0.5569740000000 1.0
C      1  0.4294910000000  0.4620300000000  0.5706330000000 1.0
C      1  0.5584000000000  0.5884560000000  0.4908070000000 1.0
C      1  0.4299510000000  0.4418930000000  0.5430250000000 1.0
C      1  0.4744260000000  0.5402100000000  0.4591000000000 1.0
C      1  0.4168110000000  0.5376530000000  0.5439570000000 1.0
C      1  0.5468950000000  0.4395020000000  0.5306710000000 1.0
C      1  0.4771660000000  0.4960630000000  0.4637800000000 1.0
C      1  0.5462010000000  0.3863220000000  0.5197440000000 1.0
C      1  0.4747760000000  0.4003270000000  0.5502930000000 1.0
C      1  0.5015860000000  0.5155190000000  0.4207170000000 1.0
C      1  0.5299090000000  0.4371680000000  0.4556920000000 1.0
C      1  0.4793040000000  0.4205760000000  0.5762130000000 1.0
C      1  0.5890680000000  0.4872720000000  0.4371580000000 1.0
C      1  0.4272900000000  0.4954560000000  0.4047630000000 1.0
C      1  0.4149290000000  0.5111070000000  0.4605350000000 1.0
C      1  0.4767010000000  0.5344080000000  0.6051650000000 1.0
C      1  0.4931670000000  0.6070770000000  0.5185550000000 1.0
C      1  0.4868840000000  0.4045970000000  0.4487610000000 1.0
C      1  0.4747830000000  0.4009640000000  0.4803400000000 1.0
C      1  0.4093350000000  0.5488710000000  0.4936580000000 1.0
C      1  0.4545430000000  0.5437230000000  0.5150070000000 1.0
C      1  0.5017700000000  0.4838140000000  0.5288700000000 1.0
C      1  0.5283500000000  0.5246230000000  0.3900490000000 1.0
C      1  0.5628370000000  0.4102930000000  0.5322890000000 1.0
C      1  0.4952260000000  0.5232070000000  0.3882210000000 1.0
C      1  0.4402160000000  0.5682560000000  0.4468690000000 1.0
C      1  0.5386270000000  0.4622950000000  0.4262080000000 1.0
C      1  0.5062610000000  0.3939330000000  0.4752880000000 1.0
C      1  0.4487020000000  0.4238080000000  0.4608420000000 1.0
C      1  0.4747380000000  0.4960590000000  0.4296690000000 1.0
C      1  0.5060940000000  0.4682410000000  0.4316540000000 1.0
C      1  0.5164770000000  0.4243990000000  0.4800750000000 1.0
C      1  0.5162030000000  0.5085170000000  0.4915890000000 1.0
C      1  0.5405020000000  0.5481760000000  0.4174020000000 1.0
C      1  0.4336710000000  0.4415420000000  0.5101950000000 1.0
C      1  0.5463220000000  0.4298890000000  0.4282160000000 1.0
C      1  0.4520240000000  0.4221840000000  0.4939380000000 1.0
C      1  0.5493790000000  0.5112360000000  0.5393430000000 1.0
C      1  0.4383700000000  0.4963680000000  0.4729940000000 1.0
C      1  0.5121620000000  0.5654940000000  0.4439960000000 1.0
C      1  0.5088900000000  0.4467200000000  0.4047350000000 1.0
C      1  0.5024870000000  0.4672100000000  0.5703190000000 1.0
C      1  0.5733530000000  0.4981880000000  0.4146060000000 1.0
C      1  0.4946130000000  0.5564140000000  0.5358850000000 1.0
C      1  0.4787980000000  0.5271330000000  0.5284750000000 1.0
C      1  0.5347040000000  0.5311550000000  0.5619280000000 1.0
C      1  0.4302630000000  0.5525910000000  0.4182710000000 1.0
C      1  0.3885840000000  0.5551010000000  0.4484620000000 1.0
C      1  0.5248370000000  0.4195320000000  0.5723630000000 1.0
C      1  0.4493260000000  0.5302730000000  0.4550130000000 1.0
C      1  0.5025920000000  0.5115380000000  0.4543710000000 1.0
C      1  0.5683610000000  0.5294410000000  0.4117520000000 1.0
C      1  0.5388260000000  0.4855790000000  0.6011200000000 1.0
C      1  0.5794820000000  0.4705440000000  0.4620810000000 1.0
C      1  0.4910420000000  0.5732610000000  0.4183210000000 1.0
C      1  0.5345190000000  0.4725940000000  0.5697090000000 1.0
C      1  0.4780750000000  0.4646710000000  0.5387890000000 1.0
C      1  0.4916040000000  0.3785950000000  0.5338700000000 1.0
C      1  0.5514380000000  0.5149780000000  0.4447600000000 1.0
C      1  0.4300800000000  0.5804990000000  0.5059820000000 1.0
C      1  0.4170740000000  0.5096250000000  0.5381420000000 1.0
C      1  0.4786450000000  0.5943030000000  0.4695690000000 1.0
C      1  0.5806310000000  0.5629440000000  0.4857910000000 1.0
C      1  0.4510350000000  0.4219610000000  0.5567740000000 1.0
C      1  0.4527490000000  0.4480060000000  0.4185440000000 1.0
C      1  0.5821300000000  0.5258780000000  0.4420150000000 1.0
C      1  0.5006390000000  0.5498660000000  0.5944360000000 1.0
C      1  0.4071010000000  0.5095270000000  0.4996440000000 1.0
C      1  0.4667250000000  0.4700540000000  0.4830970000000 1.0
C      1  0.5560870000000  0.5289710000000  0.5858270000000 1.0
C      1  0.4603450000000  0.4537650000000  0.5657190000000 1.0
C      1  0.4245840000000  0.4417350000000  0.4555410000000 1.0
C      1  0.4767260000000  0.4485520000000  0.5944500000000 1.0
C      1  0.4819900000000  0.4491160000000  0.4340140000000 1.0
C      1  0.5207700000000  0.4960600000000  0.5497170000000 1.0
C      1  0.3851860000000  0.5459420000000  0.4767540000000 1.0
C      1  0.4707100000000  0.5809110000000  0.4445380000000 1.0
C      1  0.5168870000000  0.4737220000000  0.3936110000000 1.0
C      1  0.5892180000000  0.4491700000000  0.4843680000000 1.0
C      1  0.4531920000000  0.5536410000000  0.5439700000000 1.0
C      1  0.4921500000000  0.5065820000000  0.5087830000000 1.0
C      1  0.5727650000000  0.4847700000000  0.5579940000000 1.0
C      1  0.4695860000000  0.4752150000000  0.4067310000000 1.0
C      1  0.5363660000000  0.5979990000000  0.5449830000000 1.0
C      1  0.5170820000000  0.5838860000000  0.4696880000000 1.0
C      1  0.5546190000000  0.4458130000000  0.5762480000000 1.0
C      1  0.5531800000000  0.5652120000000  0.4414980000000 1.0
C      1  0.5375200000000  0.6073050000000  0.4947160000000 1.0
C      1  0.6033040000000  0.5091100000000  0.4590080000000 1.0
C      1  0.4680940000000  0.5089610000000  0.5541340000000 1.0
C      1  0.5435460000000  0.5884400000000  0.4527800000000 1.0
C      1  0.4081430000000  0.4835410000000  0.4501900000000 1.0
C      1  0.4474310000000  0.5826580000000  0.4769060000000 1.0
C      1  0.4106140000000  0.4595790000000  0.4983950000000 1.0
C      1  0.5256430000000  0.5352400000000  0.4458350000000 1.0
C      1  0.4325670000000  0.5243050000000  0.4118930000000 1.0
C      1  0.5793940000000  0.5478910000000  0.5809450000000 1.0
C      1  0.5435670000000  0.5503680000000  0.5368030000000 1.0
C      1  0.5167300000000  0.4419080000000  0.5881580000000 1.0
C      1  0.4332410000000  0.4888770000000  0.5844890000000 1.0
C      1  0.4626830000000  0.5087960000000  0.4918200000000 1.0
C      1  0.5800170000000  0.4268770000000  0.5093750000000 1.0
C      1  0.4663470000000  0.5662330000000  0.4975240000000 1.0
C      1  0.4865080000000  0.5519750000000  0.4808990000000 1.0
C      1  0.5208700000000  0.4253580000000  0.5407130000000 1.0
C      1  0.5310250000000  0.5007080000000  0.4652110000000 1.0
END
