TITL C-2778422-5617-1423 0.00123393818921124 125000 -257.32771279228 0 0 46 (C1) n - 1
REM
REM in /home/nfs/bkarasulu/CARBON/AIRSS/Generating-Clusters/REBO/Only-C1/SD-CG/HFTN-CG
REM
REM
REM
REM
REM
REM ./C.cell (11c1c37f851c82e70ff6c80c92926a4b)
REM
REM compiler GCC version 9.2.1 20190827 (Red Hat 9.2.1-1)
REM options -cpp -mtune=generic -march=x86-64 -g -O0 -fpre-include=/usr/include/finclude/math-vector-fortran.h
REM seed -1054376981 -1841161011 1896467530 805979431 -270907793 -1572582606 1641861780 1466595035 871275683 1083217927 39163296 -2054287535 -45901731 -1139047932 -846256773 1191615916 -971689184 -732952821 -1719236265 -31424954 -1413632025 1658570527 986586879 -606973723 -1707598405 -1408508903 -499483357 -1878854871 -1663481105 -945957615 -420892098 746264374 1895593604
REM
CELL 1.54180   50.00000   50.00000   50.00000   90.00000   90.00000   90.00000
LATT -1
SFAC C  
C      1  0.5482000000000  0.5144460000000  0.5170570000000 1.0
C      1  0.4971280000000  0.4962450000000  0.5410820000000 1.0
C      1  0.4568310000000  0.5022320000000  0.5746400000000 1.0
C      1  0.4946290000000  0.5444190000000  0.4583730000000 1.0
C      1  0.4722000000000  0.5435140000000  0.4760420000000 1.0
C      1  0.4676460000000  0.4846460000000  0.4827030000000 1.0
C      1  0.5118620000000  0.4547090000000  0.4820610000000 1.0
C      1  0.5189270000000  0.4522770000000  0.4319170000000 1.0
C      1  0.4330250000000  0.5173020000000  0.5167590000000 1.0
C      1  0.5162510000000  0.4488790000000  0.5370820000000 1.0
C      1  0.5272330000000  0.5678000000000  0.5143990000000 1.0
C      1  0.4791480000000  0.4189170000000  0.5557450000000 1.0
C      1  0.4582290000000  0.4652230000000  0.5440050000000 1.0
C      1  0.4429060000000  0.4863310000000  0.5551450000000 1.0
C      1  0.5381470000000  0.4609410000000  0.5236090000000 1.0
C      1  0.5180710000000  0.5256270000000  0.4877870000000 1.0
C      1  0.5464120000000  0.5166100000000  0.4392930000000 1.0
C      1  0.5444130000000  0.5330600000000  0.4675080000000 1.0
C      1  0.5387290000000  0.4598160000000  0.4952720000000 1.0
C      1  0.4529610000000  0.5328840000000  0.4937660000000 1.0
C      1  0.5284800000000  0.5070370000000  0.5437640000000 1.0
C      1  0.5617710000000  0.4985460000000  0.4580480000000 1.0
C      1  0.4857750000000  0.4727440000000  0.5274560000000 1.0
C      1  0.5036180000000  0.5295400000000  0.5422070000000 1.0
C      1  0.4894920000000  0.5447590000000  0.5742840000000 1.0
C      1  0.5155470000000  0.4803250000000  0.4373350000000 1.0
C      1  0.5549310000000  0.4779780000000  0.4815750000000 1.0
C      1  0.4845790000000  0.4436230000000  0.5450550000000 1.0
C      1  0.5229340000000  0.5372100000000  0.5183530000000 1.0
C      1  0.4801100000000  0.5157400000000  0.5628880000000 1.0
C      1  0.4250770000000  0.5019960000000  0.5390270000000 1.0
C      1  0.5212410000000  0.5568350000000  0.4688400000000 1.0
C      1  0.4488730000000  0.5056390000000  0.6007860000000 1.0
C      1  0.4757960000000  0.4803900000000  0.4336500000000 1.0
C      1  0.5252290000000  0.5769600000000  0.4907010000000 1.0
C      1  0.4554560000000  0.5198950000000  0.4484940000000 1.0
C      1  0.4512100000000  0.5011150000000  0.4972330000000 1.0
C      1  0.5071370000000  0.4810040000000  0.4648330000000 1.0
C      1  0.5207100000000  0.5080190000000  0.4295400000000 1.0
C      1  0.4989410000000  0.5078440000000  0.4750150000000 1.0
C      1  0.5492910000000  0.4848860000000  0.5340330000000 1.0
C      1  0.5146940000000  0.4369000000000  0.4550080000000 1.0
C      1  0.5572420000000  0.5107000000000  0.4897460000000 1.0
C      1  0.4994780000000  0.5267820000000  0.4361640000000 1.0
C      1  0.4728150000000  0.4986180000000  0.4547040000000 1.0
C      1  0.4866260000000  0.4690350000000  0.4970130000000 1.0
END
