TITL C-2778430-5657-1070 -0.000402878773019626 125000 -588.374159922504 0 0 102 (C1) n - 1
REM
REM in /home/nfs/bkarasulu/CARBON/AIRSS/Generating-Clusters/REBO/Only-C1/SD-CG/HFTN-CG
REM
REM
REM
REM
REM
REM ./C.cell (11c1c37f851c82e70ff6c80c92926a4b)
REM
REM compiler GCC version 9.2.1 20190827 (Red Hat 9.2.1-1)
REM options -cpp -mtune=generic -march=x86-64 -g -O0 -fpre-include=/usr/include/finclude/math-vector-fortran.h
REM seed -258357 1805369274 392874642 174012530 67164113 133024448 -1388788048 23647176 -1225989210 -1423975877 1702003134 2067937273 -1602568231 -1071961081 -185467705 -1622220764 -443887034 -1649036058 260853567 310169550 1007447992 -487464640 -1243509476 2078433517 1169849420 -1362793498 -1387635077 -2057499406 -304848058 -1270095919 978816337 1284816826 -143544767
REM
CELL 1.54180   50.00000   50.00000   50.00000   90.00000   90.00000   90.00000
LATT -1
SFAC C  
C      1  0.5344760000000  0.4792180000000  0.4306860000000 1.0
C      1  0.4315970000000  0.5368020000000  0.4730570000000 1.0
C      1  0.5440870000000  0.4553480000000  0.5632800000000 1.0
C      1  0.5564410000000  0.5430410000000  0.4116630000000 1.0
C      1  0.5562370000000  0.4402190000000  0.5026080000000 1.0
C      1  0.4423490000000  0.5408490000000  0.5692040000000 1.0
C      1  0.5626330000000  0.5413410000000  0.5426880000000 1.0
C      1  0.5030880000000  0.4611310000000  0.5881420000000 1.0
C      1  0.4784950000000  0.4557100000000  0.4215430000000 1.0
C      1  0.4565600000000  0.5499950000000  0.5224110000000 1.0
C      1  0.5625770000000  0.5571900000000  0.5137330000000 1.0
C      1  0.4468760000000  0.5483160000000  0.4289120000000 1.0
C      1  0.4576020000000  0.4924370000000  0.5454550000000 1.0
C      1  0.4914110000000  0.4267060000000  0.5159710000000 1.0
C      1  0.5385900000000  0.5314590000000  0.4507800000000 1.0
C      1  0.6109200000000  0.4893200000000  0.5100690000000 1.0
C      1  0.5030940000000  0.5576720000000  0.5345880000000 1.0
C      1  0.4392820000000  0.5227520000000  0.4269260000000 1.0
C      1  0.4663300000000  0.5651310000000  0.4365030000000 1.0
C      1  0.5092830000000  0.5154000000000  0.5586410000000 1.0
C      1  0.4857410000000  0.5606840000000  0.5605970000000 1.0
C      1  0.5222870000000  0.5223990000000  0.5038410000000 1.0
C      1  0.4098320000000  0.4710930000000  0.4963570000000 1.0
C      1  0.5495910000000  0.4450490000000  0.4696100000000 1.0
C      1  0.4947530000000  0.5558530000000  0.4325990000000 1.0
C      1  0.4741900000000  0.3770620000000  0.4781560000000 1.0
C      1  0.3835870000000  0.4777480000000  0.4956770000000 1.0
C      1  0.6040860000000  0.4648710000000  0.5095220000000 1.0
C      1  0.4992340000000  0.4381880000000  0.4305110000000 1.0
C      1  0.5474830000000  0.4449410000000  0.5351530000000 1.0
C      1  0.4469710000000  0.5339570000000  0.5959060000000 1.0
C      1  0.5258250000000  0.4983990000000  0.4084960000000 1.0
C      1  0.4913590000000  0.4566260000000  0.5321220000000 1.0
C      1  0.4792370000000  0.4000870000000  0.4894490000000 1.0
C      1  0.5385120000000  0.5617100000000  0.4560130000000 1.0
C      1  0.4971820000000  0.4994150000000  0.4005090000000 1.0
C      1  0.5063990000000  0.5381350000000  0.4591430000000 1.0
C      1  0.5588300000000  0.5096910000000  0.5392440000000 1.0
C      1  0.4823420000000  0.5350970000000  0.4829860000000 1.0
C      1  0.5372820000000  0.5323880000000  0.5636410000000 1.0
C      1  0.5347940000000  0.5268630000000  0.4112400000000 1.0
C      1  0.5482610000000  0.5665600000000  0.4851140000000 1.0
C      1  0.5765870000000  0.4567370000000  0.5224950000000 1.0
C      1  0.5356630000000  0.4197790000000  0.4871740000000 1.0
C      1  0.4527100000000  0.4686590000000  0.4138780000000 1.0
C      1  0.5524580000000  0.5087700000000  0.4505160000000 1.0
C      1  0.5198190000000  0.5474670000000  0.4882340000000 1.0
C      1  0.5199580000000  0.4889740000000  0.4777060000000 1.0
C      1  0.4967950000000  0.5868930000000  0.4696670000000 1.0
C      1  0.4202530000000  0.4464330000000  0.5077620000000 1.0
C      1  0.4458850000000  0.4519300000000  0.5696450000000 1.0
C      1  0.5546600000000  0.4762670000000  0.4578910000000 1.0
C      1  0.4599900000000  0.4763540000000  0.5692200000000 1.0
C      1  0.4352950000000  0.4314670000000  0.5553390000000 1.0
C      1  0.4839290000000  0.4809460000000  0.5841540000000 1.0
C      1  0.5240070000000  0.4177140000000  0.5861200000000 1.0
C      1  0.5331990000000  0.5752050000000  0.5136930000000 1.0
C      1  0.5007750000000  0.4618460000000  0.4995540000000 1.0
C      1  0.4553820000000  0.6118690000000  0.4559440000000 1.0
C      1  0.5045350000000  0.5763170000000  0.4979230000000 1.0
C      1  0.5207560000000  0.4434870000000  0.5207670000000 1.0
C      1  0.4929350000000  0.5439780000000  0.5811580000000 1.0
C      1  0.5241780000000  0.4443090000000  0.5802310000000 1.0
C      1  0.4467420000000  0.5654250000000  0.4728800000000 1.0
C      1  0.5469420000000  0.5034790000000  0.5767970000000 1.0
C      1  0.4914000000000  0.5064040000000  0.4393550000000 1.0
C      1  0.5017490000000  0.5283450000000  0.4193000000000 1.0
C      1  0.4926470000000  0.5101220000000  0.5856930000000 1.0
C      1  0.4945400000000  0.5091430000000  0.5136960000000 1.0
C      1  0.4699290000000  0.5228880000000  0.6057980000000 1.0
C      1  0.4613420000000  0.4172080000000  0.5109380000000 1.0
C      1  0.4581830000000  0.5614450000000  0.5530960000000 1.0
C      1  0.5145240000000  0.5756060000000  0.4485780000000 1.0
C      1  0.5507360000000  0.4791780000000  0.4902960000000 1.0
C      1  0.5278760000000  0.4498440000000  0.4446940000000 1.0
C      1  0.5247720000000  0.4832130000000  0.5109290000000 1.0
C      1  0.5509520000000  0.5106780000000  0.4984720000000 1.0
C      1  0.4837750000000  0.5529950000000  0.5071630000000 1.0
C      1  0.5293030000000  0.5053250000000  0.5330380000000 1.0
C      1  0.4495230000000  0.4447940000000  0.4996020000000 1.0
C      1  0.4311680000000  0.4862730000000  0.4849600000000 1.0
C      1  0.5724690000000  0.5274370000000  0.5065170000000 1.0
C      1  0.4690940000000  0.5154600000000  0.4591920000000 1.0
C      1  0.4663120000000  0.5865150000000  0.4604820000000 1.0
C      1  0.5915480000000  0.5094480000000  0.5232380000000 1.0
C      1  0.5775110000000  0.4832960000000  0.5408290000000 1.0
C      1  0.4753250000000  0.4786790000000  0.4449090000000 1.0
C      1  0.4366380000000  0.5525290000000  0.5004770000000 1.0
C      1  0.4457940000000  0.4929220000000  0.4357780000000 1.0
C      1  0.5011900000000  0.4401930000000  0.4636700000000 1.0
C      1  0.4881260000000  0.5278640000000  0.5378790000000 1.0
C      1  0.4562640000000  0.5229820000000  0.5438270000000 1.0
C      1  0.5334200000000  0.5576850000000  0.5410800000000 1.0
C      1  0.4758260000000  0.4822260000000  0.5231720000000 1.0
C      1  0.5157400000000  0.4931200000000  0.4526410000000 1.0
C      1  0.4834580000000  0.4650880000000  0.4714640000000 1.0
C      1  0.4364640000000  0.5078680000000  0.4639390000000 1.0
C      1  0.4733370000000  0.5041550000000  0.4898700000000 1.0
C      1  0.5055270000000  0.4199410000000  0.4857570000000 1.0
C      1  0.5569690000000  0.4802250000000  0.5659460000000 1.0
C      1  0.4327910000000  0.4238790000000  0.5283310000000 1.0
C      1  0.4606180000000  0.4738680000000  0.4939030000000 1.0
END
