TITL C-2778433-5640-1068 0.00553593174779575 125000 -829.51252056266 0 0 142 (C1) n - 1
REM
REM in /home/nfs/bkarasulu/CARBON/AIRSS/Generating-Clusters/REBO/Only-C1/SD-CG/HFTN-CG
REM
REM
REM
REM
REM
REM ./C.cell (11c1c37f851c82e70ff6c80c92926a4b)
REM
REM compiler GCC version 9.2.1 20190827 (Red Hat 9.2.1-1)
REM options -cpp -mtune=generic -march=x86-64 -g -O0 -fpre-include=/usr/include/finclude/math-vector-fortran.h
REM seed -1298152795 628137133 -1450788007 -225238442 2115791311 1138665629 420694003 1909101685 -2051100437 -388858382 -509242150 -521611298 -1813620073 765706755 140045976 -992801092 439911922 1240021021 1068788903 -1412898942 767408447 -1223027527 -2008470600 -1063444753 -1727799439 205816184 1039576372 -2124401640 1523851610 468993759 -1195731469 1663823028 404310790
REM
CELL 1.54180   50.00000   50.00000   50.00000   90.00000   90.00000   90.00000
LATT -1
SFAC C  
C      1  0.4783170000000  0.5441130000000  0.5805690000000 1.0
C      1  0.4749510000000  0.4194820000000  0.4401420000000 1.0
C      1  0.5386550000000  0.5321490000000  0.5603240000000 1.0
C      1  0.5004700000000  0.5045800000000  0.5620680000000 1.0
C      1  0.4456040000000  0.4373120000000  0.4437600000000 1.0
C      1  0.5078020000000  0.5091280000000  0.4569500000000 1.0
C      1  0.4853090000000  0.5597310000000  0.4211500000000 1.0
C      1  0.5312850000000  0.4669900000000  0.4557650000000 1.0
C      1  0.4520450000000  0.5323820000000  0.5790430000000 1.0
C      1  0.5955000000000  0.4508880000000  0.4851440000000 1.0
C      1  0.5282700000000  0.4376320000000  0.5044390000000 1.0
C      1  0.4960760000000  0.5183500000000  0.5901220000000 1.0
C      1  0.5733480000000  0.4693760000000  0.4396050000000 1.0
C      1  0.4304250000000  0.4997830000000  0.5720270000000 1.0
C      1  0.5199570000000  0.5234050000000  0.5022360000000 1.0
C      1  0.4497760000000  0.4203790000000  0.4911090000000 1.0
C      1  0.5398770000000  0.5003220000000  0.5666120000000 1.0
C      1  0.5439260000000  0.5454830000000  0.4793510000000 1.0
C      1  0.5415240000000  0.5690720000000  0.4472300000000 1.0
C      1  0.5238930000000  0.5456770000000  0.5820460000000 1.0
C      1  0.4676580000000  0.4305850000000  0.5428900000000 1.0
C      1  0.5774010000000  0.5474680000000  0.5181920000000 1.0
C      1  0.5260740000000  0.4212060000000  0.4321840000000 1.0
C      1  0.4017510000000  0.4979540000000  0.4570800000000 1.0
C      1  0.4391810000000  0.5365860000000  0.4369650000000 1.0
C      1  0.4265180000000  0.4329780000000  0.4716450000000 1.0
C      1  0.4504880000000  0.5307500000000  0.5123220000000 1.0
C      1  0.4246940000000  0.4733840000000  0.5665980000000 1.0
C      1  0.4991580000000  0.4407830000000  0.4964400000000 1.0
C      1  0.5411750000000  0.4645160000000  0.4878120000000 1.0
C      1  0.5963750000000  0.4896380000000  0.5246220000000 1.0
C      1  0.5552290000000  0.4704560000000  0.4181240000000 1.0
C      1  0.5396100000000  0.4492330000000  0.5408860000000 1.0
C      1  0.4258050000000  0.4419880000000  0.5244190000000 1.0
C      1  0.4254600000000  0.5603580000000  0.5063460000000 1.0
C      1  0.4881250000000  0.4029000000000  0.5375120000000 1.0
C      1  0.5132300000000  0.4069160000000  0.4805090000000 1.0
C      1  0.5680750000000  0.4381030000000  0.5011540000000 1.0
C      1  0.5897110000000  0.5286850000000  0.4989550000000 1.0
C      1  0.4652230000000  0.5920170000000  0.5231790000000 1.0
C      1  0.4500900000000  0.4698880000000  0.4664720000000 1.0
C      1  0.5152020000000  0.4764370000000  0.5665800000000 1.0
C      1  0.5119740000000  0.5398170000000  0.4175420000000 1.0
C      1  0.4991930000000  0.4779240000000  0.4593890000000 1.0
C      1  0.5124020000000  0.4903540000000  0.4085540000000 1.0
C      1  0.4879470000000  0.4619670000000  0.5153460000000 1.0
C      1  0.6021910000000  0.5021830000000  0.5001570000000 1.0
C      1  0.5131840000000  0.4656040000000  0.5362900000000 1.0
C      1  0.5126930000000  0.5781430000000  0.5533230000000 1.0
C      1  0.4261260000000  0.5516240000000  0.5359440000000 1.0
C      1  0.4827430000000  0.5315500000000  0.4022750000000 1.0
C      1  0.5498050000000  0.4525520000000  0.5699290000000 1.0
C      1  0.5031270000000  0.5497530000000  0.4491750000000 1.0
C      1  0.4949600000000  0.4469080000000  0.4671240000000 1.0
C      1  0.4104120000000  0.5271730000000  0.4431630000000 1.0
C      1  0.4450370000000  0.5840560000000  0.4966250000000 1.0
C      1  0.3955640000000  0.5246540000000  0.5003130000000 1.0
C      1  0.5711200000000  0.5406390000000  0.5818590000000 1.0
C      1  0.4754210000000  0.4455900000000  0.6229640000000 1.0
C      1  0.5155490000000  0.5859170000000  0.4604470000000 1.0
C      1  0.5679740000000  0.4635880000000  0.4705960000000 1.0
C      1  0.4359560000000  0.5084330000000  0.5248520000000 1.0
C      1  0.4579290000000  0.4673960000000  0.5134630000000 1.0
C      1  0.4862030000000  0.4631440000000  0.6045050000000 1.0
C      1  0.4568950000000  0.5461010000000  0.4639610000000 1.0
C      1  0.4806390000000  0.5214060000000  0.4661660000000 1.0
C      1  0.4293740000000  0.4979090000000  0.4382470000000 1.0
C      1  0.4440080000000  0.4528400000000  0.5478740000000 1.0
C      1  0.4304580000000  0.4544730000000  0.4977180000000 1.0
C      1  0.5369600000000  0.5207870000000  0.4566180000000 1.0
C      1  0.5015110000000  0.5607220000000  0.5728570000000 1.0
C      1  0.4897120000000  0.5253230000000  0.5177530000000 1.0
C      1  0.4690350000000  0.5591480000000  0.5161540000000 1.0
C      1  0.5694290000000  0.4831180000000  0.5274570000000 1.0
C      1  0.4931470000000  0.4316810000000  0.5647190000000 1.0
C      1  0.5554290000000  0.4978750000000  0.4082420000000 1.0
C      1  0.5493080000000  0.5044040000000  0.5341660000000 1.0
C      1  0.5327810000000  0.4926380000000  0.4969150000000 1.0
C      1  0.5658890000000  0.5717240000000  0.5026130000000 1.0
C      1  0.5827090000000  0.5172160000000  0.4452980000000 1.0
C      1  0.5008170000000  0.4889390000000  0.5065330000000 1.0
C      1  0.4988610000000  0.5874440000000  0.5254210000000 1.0
C      1  0.5389880000000  0.5418170000000  0.4324250000000 1.0
C      1  0.5364120000000  0.5355080000000  0.5270500000000 1.0
C      1  0.4874340000000  0.4987280000000  0.4011610000000 1.0
C      1  0.4557680000000  0.5187750000000  0.4137040000000 1.0
C      1  0.4864880000000  0.5789120000000  0.4479480000000 1.0
C      1  0.3938050000000  0.5268050000000  0.4730200000000 1.0
C      1  0.5565090000000  0.5316820000000  0.6001770000000 1.0
C      1  0.5052470000000  0.5075470000000  0.6270620000000 1.0
C      1  0.4136110000000  0.4793550000000  0.4899690000000 1.0
C      1  0.5606270000000  0.4572470000000  0.5219680000000 1.0
C      1  0.4970030000000  0.4019640000000  0.5046830000000 1.0
C      1  0.5041730000000  0.4463110000000  0.4354470000000 1.0
C      1  0.6018110000000  0.4834730000000  0.4776840000000 1.0
C      1  0.4729070000000  0.4253910000000  0.5098740000000 1.0
C      1  0.4747730000000  0.5287540000000  0.5438000000000 1.0
C      1  0.4961010000000  0.5550390000000  0.5023470000000 1.0
C      1  0.5446000000000  0.4361680000000  0.4536420000000 1.0
C      1  0.4562520000000  0.5525830000000  0.5450920000000 1.0
C      1  0.5230020000000  0.5637920000000  0.5175490000000 1.0
C      1  0.5465000000000  0.5880440000000  0.5220870000000 1.0
C      1  0.4353990000000  0.5361420000000  0.4845080000000 1.0
C      1  0.4272200000000  0.5300510000000  0.5601020000000 1.0
C      1  0.5799620000000  0.5323190000000  0.4700940000000 1.0
C      1  0.5765190000000  0.4311800000000  0.4646000000000 1.0
C      1  0.5662810000000  0.5679420000000  0.4692640000000 1.0
C      1  0.5523890000000  0.4749530000000  0.5811030000000 1.0
C      1  0.5171260000000  0.4991390000000  0.5338640000000 1.0
C      1  0.4818150000000  0.4930790000000  0.6082840000000 1.0
C      1  0.4681140000000  0.5018180000000  0.5588540000000 1.0
C      1  0.5317210000000  0.4208430000000  0.5339000000000 1.0
C      1  0.5129370000000  0.4107750000000  0.5523870000000 1.0
C      1  0.4779070000000  0.5067660000000  0.4932190000000 1.0
C      1  0.4355320000000  0.4664640000000  0.4294820000000 1.0
C      1  0.4632000000000  0.5758290000000  0.4687510000000 1.0
C      1  0.4605380000000  0.4851280000000  0.4157540000000 1.0
C      1  0.4778190000000  0.5940540000000  0.4922230000000 1.0
C      1  0.5403270000000  0.5850190000000  0.4837500000000 1.0
C      1  0.5423410000000  0.5758420000000  0.5501300000000 1.0
C      1  0.5653570000000  0.5506680000000  0.5498640000000 1.0
C      1  0.4106190000000  0.5027770000000  0.5123190000000 1.0
C      1  0.5239650000000  0.5267840000000  0.6081360000000 1.0
C      1  0.4526710000000  0.4892060000000  0.4900700000000 1.0
C      1  0.5246000000000  0.4913860000000  0.4327880000000 1.0
C      1  0.4754110000000  0.4476670000000  0.4216120000000 1.0
C      1  0.5913680000000  0.4902430000000  0.4513900000000 1.0
C      1  0.4283930000000  0.5073430000000  0.4770140000000 1.0
C      1  0.4191930000000  0.4639940000000  0.4596800000000 1.0
C      1  0.5093370000000  0.5924160000000  0.4932780000000 1.0
C      1  0.5010850000000  0.4103380000000  0.4523220000000 1.0
C      1  0.4515170000000  0.4852600000000  0.5397040000000 1.0
C      1  0.5620330000000  0.5204500000000  0.4252790000000 1.0
C      1  0.5445380000000  0.4209370000000  0.4826790000000 1.0
C      1  0.5546720000000  0.5143800000000  0.4849890000000 1.0
C      1  0.4652230000000  0.4421440000000  0.4712290000000 1.0
C      1  0.5118350000000  0.5445730000000  0.4763960000000 1.0
C      1  0.5334450000000  0.4519950000000  0.4188170000000 1.0
C      1  0.4591330000000  0.5105460000000  0.4464440000000 1.0
C      1  0.4987930000000  0.4549530000000  0.5808530000000 1.0
C      1  0.4579230000000  0.5023580000000  0.5906420000000 1.0
C      1  0.4720120000000  0.4725630000000  0.4444090000000 1.0
END
