TITL C-2778426-5645-439 -0.0122888328048891 125000 -670.142563856956 0 0 117 (C1) n - 1
REM
REM in /home/nfs/bkarasulu/CARBON/AIRSS/Generating-Clusters/REBO/Only-C1/SD-CG/HFTN-CG
REM
REM
REM
REM
REM
REM ./C.cell (11c1c37f851c82e70ff6c80c92926a4b)
REM
REM compiler GCC version 9.2.1 20190827 (Red Hat 9.2.1-1)
REM options -cpp -mtune=generic -march=x86-64 -g -O0 -fpre-include=/usr/include/finclude/math-vector-fortran.h
REM seed 1072507288 1998702457 -1891256906 2106572689 -616982753 1407652855 -1402630126 -1114561411 1011115580 1498109625 -960060713 -1690522881 -104263265 -1364406008 643355658 -1270245344 706059864 -2118256276 1411395873 1655189577 -1645799634 -247987132 1622389717 216395563 1343766401 1853049443 -1815543614 -638843168 1113672918 515073976 1258329004 -1410092879 -662431459
REM
CELL 1.54180   50.00000   50.00000   50.00000   90.00000   90.00000   90.00000
LATT -1
SFAC C  
C      1  0.4972610000000  0.5703650000000  0.4534150000000 1.0
C      1  0.4599920000000  0.4831200000000  0.5297110000000 1.0
C      1  0.5169150000000  0.5579770000000  0.4715230000000 1.0
C      1  0.4207270000000  0.4725380000000  0.4979770000000 1.0
C      1  0.5096120000000  0.5561820000000  0.5007610000000 1.0
C      1  0.4622170000000  0.4598430000000  0.4387280000000 1.0
C      1  0.4350720000000  0.4665310000000  0.5404840000000 1.0
C      1  0.5121260000000  0.4500230000000  0.4208880000000 1.0
C      1  0.4893400000000  0.4230100000000  0.4610940000000 1.0
C      1  0.4291660000000  0.5408850000000  0.4945160000000 1.0
C      1  0.4837760000000  0.4684240000000  0.5449230000000 1.0
C      1  0.5850790000000  0.4615420000000  0.5141940000000 1.0
C      1  0.4798320000000  0.4601880000000  0.4875150000000 1.0
C      1  0.4888840000000  0.4397740000000  0.5320690000000 1.0
C      1  0.4409360000000  0.5827810000000  0.5296990000000 1.0
C      1  0.4823420000000  0.5498530000000  0.4385060000000 1.0
C      1  0.4520240000000  0.5452160000000  0.5651150000000 1.0
C      1  0.4562140000000  0.5676710000000  0.4808220000000 1.0
C      1  0.5785540000000  0.5336700000000  0.5342870000000 1.0
C      1  0.4586470000000  0.5879040000000  0.5058530000000 1.0
C      1  0.4838990000000  0.5619730000000  0.5086110000000 1.0
C      1  0.4377000000000  0.5002600000000  0.4876410000000 1.0
C      1  0.4919080000000  0.4961830000000  0.4751910000000 1.0
C      1  0.4455640000000  0.5565140000000  0.5367340000000 1.0
C      1  0.5557660000000  0.4327290000000  0.5443840000000 1.0
C      1  0.4985020000000  0.5024980000000  0.4190460000000 1.0
C      1  0.4890760000000  0.4663190000000  0.4586580000000 1.0
C      1  0.5410350000000  0.4206270000000  0.4935500000000 1.0
C      1  0.5417560000000  0.4368630000000  0.4635790000000 1.0
C      1  0.4448330000000  0.4265920000000  0.5050590000000 1.0
C      1  0.5590260000000  0.4548750000000  0.4850710000000 1.0
C      1  0.5467220000000  0.4513490000000  0.5692020000000 1.0
C      1  0.4082810000000  0.5166370000000  0.4837710000000 1.0
C      1  0.5210450000000  0.5146060000000  0.5295800000000 1.0
C      1  0.4291810000000  0.4397280000000  0.5216340000000 1.0
C      1  0.4244940000000  0.5212870000000  0.5212310000000 1.0
C      1  0.5062980000000  0.5950530000000  0.5094500000000 1.0
C      1  0.4983370000000  0.5639040000000  0.5831810000000 1.0
C      1  0.5727460000000  0.5283200000000  0.4781730000000 1.0
C      1  0.4628730000000  0.4813350000000  0.4983270000000 1.0
C      1  0.5385880000000  0.5296630000000  0.4262880000000 1.0
C      1  0.5038830000000  0.5550350000000  0.5421530000000 1.0
C      1  0.5139160000000  0.4908230000000  0.5824840000000 1.0
C      1  0.5110820000000  0.4850030000000  0.5431400000000 1.0
C      1  0.5327330000000  0.5354250000000  0.5530260000000 1.0
C      1  0.5175130000000  0.4090190000000  0.5063110000000 1.0
C      1  0.4946210000000  0.4075890000000  0.4897970000000 1.0
C      1  0.5308060000000  0.4719570000000  0.5226170000000 1.0
C      1  0.5060200000000  0.5286800000000  0.4335330000000 1.0
C      1  0.5458650000000  0.4832630000000  0.5811290000000 1.0
C      1  0.5023630000000  0.5005120000000  0.5058390000000 1.0
C      1  0.4323480000000  0.5401470000000  0.4622860000000 1.0
C      1  0.5231860000000  0.4839760000000  0.4388620000000 1.0
C      1  0.5284390000000  0.4409670000000  0.5273690000000 1.0
C      1  0.4173020000000  0.5126770000000  0.4521270000000 1.0
C      1  0.5030760000000  0.4489180000000  0.5054130000000 1.0
C      1  0.4711940000000  0.5655540000000  0.5796150000000 1.0
C      1  0.4692040000000  0.5420300000000  0.4774530000000 1.0
C      1  0.4980650000000  0.4360990000000  0.5634680000000 1.0
C      1  0.4819680000000  0.5925520000000  0.4631730000000 1.0
C      1  0.5347040000000  0.4727700000000  0.4918030000000 1.0
C      1  0.4302990000000  0.4830550000000  0.4452390000000 1.0
C      1  0.5895450000000  0.5008620000000  0.4383260000000 1.0
C      1  0.5597720000000  0.4815820000000  0.5268330000000 1.0
C      1  0.4716380000000  0.5162620000000  0.4660790000000 1.0
C      1  0.5740760000000  0.5690340000000  0.5117390000000 1.0
C      1  0.4571780000000  0.4796850000000  0.4160120000000 1.0
C      1  0.4736500000000  0.5120190000000  0.5356370000000 1.0
C      1  0.5225300000000  0.5272140000000  0.4625550000000 1.0
C      1  0.5354910000000  0.5905410000000  0.5467620000000 1.0
C      1  0.5645240000000  0.4343930000000  0.5119100000000 1.0
C      1  0.5616840000000  0.5310320000000  0.5569780000000 1.0
C      1  0.5147040000000  0.4444620000000  0.4537960000000 1.0
C      1  0.4518670000000  0.5541490000000  0.4435970000000 1.0
C      1  0.5988000000000  0.4781160000000  0.4584490000000 1.0
C      1  0.3798250000000  0.4512140000000  0.5464970000000 1.0
C      1  0.5572590000000  0.5422850000000  0.4440400000000 1.0
C      1  0.4363930000000  0.5195230000000  0.5480950000000 1.0
C      1  0.5161730000000  0.4608420000000  0.5670290000000 1.0
C      1  0.4637140000000  0.5171250000000  0.5769910000000 1.0
C      1  0.5834690000000  0.5232840000000  0.5099430000000 1.0
C      1  0.4831420000000  0.4370090000000  0.4323210000000 1.0
C      1  0.5805290000000  0.4535460000000  0.5456220000000 1.0
C      1  0.5870380000000  0.4736360000000  0.4843110000000 1.0
C      1  0.4729930000000  0.4412240000000  0.5776390000000 1.0
C      1  0.4971290000000  0.5149870000000  0.5794870000000 1.0
C      1  0.5666720000000  0.5089350000000  0.5735990000000 1.0
C      1  0.4618670000000  0.5447760000000  0.5166030000000 1.0
C      1  0.4063120000000  0.4969910000000  0.5116010000000 1.0
C      1  0.5481780000000  0.5574020000000  0.4665770000000 1.0
C      1  0.4354520000000  0.4559600000000  0.4551900000000 1.0
C      1  0.4244640000000  0.4507510000000  0.4805780000000 1.0
C      1  0.5438340000000  0.5017820000000  0.4200040000000 1.0
C      1  0.5822450000000  0.5260400000000  0.4483060000000 1.0
C      1  0.5141040000000  0.5420520000000  0.5783110000000 1.0
C      1  0.4696430000000  0.4295370000000  0.4881820000000 1.0
C      1  0.5100510000000  0.4149180000000  0.5390670000000 1.0
C      1  0.5144780000000  0.5800960000000  0.5324430000000 1.0
C      1  0.4898080000000  0.5292570000000  0.5495270000000 1.0
C      1  0.4846460000000  0.5980350000000  0.4915340000000 1.0
C      1  0.4055590000000  0.4517930000000  0.5388510000000 1.0
C      1  0.5575870000000  0.5512510000000  0.4980370000000 1.0
C      1  0.5091330000000  0.4782630000000  0.4025750000000 1.0
C      1  0.5635770000000  0.4460550000000  0.4412460000000 1.0
C      1  0.5704300000000  0.4809690000000  0.5577920000000 1.0
C      1  0.5685420000000  0.4957130000000  0.5002040000000 1.0
C      1  0.4568390000000  0.4663980000000  0.5657260000000 1.0
C      1  0.4607630000000  0.5149780000000  0.5056540000000 1.0
C      1  0.5806050000000  0.4675160000000  0.4348840000000 1.0
C      1  0.4528590000000  0.5847840000000  0.4536330000000 1.0
C      1  0.5215970000000  0.4878440000000  0.4677250000000 1.0
C      1  0.4694690000000  0.5011430000000  0.4122410000000 1.0
C      1  0.5314410000000  0.5417980000000  0.5135610000000 1.0
C      1  0.5451890000000  0.5090800000000  0.4791640000000 1.0
C      1  0.4508950000000  0.5068020000000  0.4505570000000 1.0
C      1  0.5397640000000  0.4686010000000  0.4129120000000 1.0
C      1  0.4459430000000  0.4955900000000  0.5657930000000 1.0
END
