TITL C-2778430-5657-373 -0.00104840905467062 125000 -576.241732406839 0 0 101 (C1) n - 1
REM
REM in /home/nfs/bkarasulu/CARBON/AIRSS/Generating-Clusters/REBO/Only-C1/SD-CG/HFTN-CG
REM
REM
REM
REM
REM
REM ./C.cell (11c1c37f851c82e70ff6c80c92926a4b)
REM
REM compiler GCC version 9.2.1 20190827 (Red Hat 9.2.1-1)
REM options -cpp -mtune=generic -march=x86-64 -g -O0 -fpre-include=/usr/include/finclude/math-vector-fortran.h
REM seed 813556181 1107133837 -1845394827 1849949018 -805502922 436226090 -1479435513 -1246910191 2140912648 1549912669 1626708071 -1576454031 -1322428046 -1157118570 1809320183 395485075 -738109976 571118990 401157214 -138592497 1280867925 695561730 -202547455 -1709958405 -408255099 -1912752730 -14572643 -2126492971 -532500906 -1823729423 131866618 -1999900514 -1251909457
REM
CELL 1.54180   50.00000   50.00000   50.00000   90.00000   90.00000   90.00000
LATT -1
SFAC C  
C      1  0.4646300000000  0.4433710000000  0.4418710000000 1.0
C      1  0.5373060000000  0.5427930000000  0.5071350000000 1.0
C      1  0.4692720000000  0.5395810000000  0.5604350000000 1.0
C      1  0.4283230000000  0.5388860000000  0.4450080000000 1.0
C      1  0.5150510000000  0.5628620000000  0.4454930000000 1.0
C      1  0.4990920000000  0.5516990000000  0.5637850000000 1.0
C      1  0.5225450000000  0.5170470000000  0.4781690000000 1.0
C      1  0.5812040000000  0.5237390000000  0.5426130000000 1.0
C      1  0.4614790000000  0.5248520000000  0.4958970000000 1.0
C      1  0.4651750000000  0.4821220000000  0.5529990000000 1.0
C      1  0.5477600000000  0.4959440000000  0.5481170000000 1.0
C      1  0.5578830000000  0.4573500000000  0.4663880000000 1.0
C      1  0.5586120000000  0.4616280000000  0.5003210000000 1.0
C      1  0.4397100000000  0.4689290000000  0.5710580000000 1.0
C      1  0.4241520000000  0.5389540000000  0.5204140000000 1.0
C      1  0.4457250000000  0.5696580000000  0.4851080000000 1.0
C      1  0.5150610000000  0.4970570000000  0.5415630000000 1.0
C      1  0.4994180000000  0.4713010000000  0.5356640000000 1.0
C      1  0.4505500000000  0.5348370000000  0.4302000000000 1.0
C      1  0.4725170000000  0.3883510000000  0.5284900000000 1.0
C      1  0.4102060000000  0.4867190000000  0.5052040000000 1.0
C      1  0.4524900000000  0.4749020000000  0.4377100000000 1.0
C      1  0.4921010000000  0.5908760000000  0.4969130000000 1.0
C      1  0.4653820000000  0.5202980000000  0.4643590000000 1.0
C      1  0.5217880000000  0.4759330000000  0.4734170000000 1.0
C      1  0.4767020000000  0.4409340000000  0.4737090000000 1.0
C      1  0.4925830000000  0.4767200000000  0.5675530000000 1.0
C      1  0.5160340000000  0.4486310000000  0.4929250000000 1.0
C      1  0.5246440000000  0.4213530000000  0.4800450000000 1.0
C      1  0.5160420000000  0.5236970000000  0.4531400000000 1.0
C      1  0.5004280000000  0.5712580000000  0.4716340000000 1.0
C      1  0.5364350000000  0.4478000000000  0.4447650000000 1.0
C      1  0.5012560000000  0.5783620000000  0.5471160000000 1.0
C      1  0.5310250000000  0.4840380000000  0.5752710000000 1.0
C      1  0.4858630000000  0.4128450000000  0.5283970000000 1.0
C      1  0.5452820000000  0.4887210000000  0.5159650000000 1.0
C      1  0.5175220000000  0.4134070000000  0.5184850000000 1.0
C      1  0.5259410000000  0.4566830000000  0.5764770000000 1.0
C      1  0.4446810000000  0.4889860000000  0.5294530000000 1.0
C      1  0.5533310000000  0.4533280000000  0.5322150000000 1.0
C      1  0.5039070000000  0.5041210000000  0.5805860000000 1.0
C      1  0.5525840000000  0.5555130000000  0.4807010000000 1.0
C      1  0.4903340000000  0.4278080000000  0.4993720000000 1.0
C      1  0.4858520000000  0.4802670000000  0.5061430000000 1.0
C      1  0.4530710000000  0.5403090000000  0.5317050000000 1.0
C      1  0.4798850000000  0.5208920000000  0.5238300000000 1.0
C      1  0.5641980000000  0.5391520000000  0.4287740000000 1.0
C      1  0.5706400000000  0.5368830000000  0.3954760000000 1.0
C      1  0.5270160000000  0.5722190000000  0.4928810000000 1.0
C      1  0.5661140000000  0.5302600000000  0.5637560000000 1.0
C      1  0.5160630000000  0.5890680000000  0.5194360000000 1.0
C      1  0.5172090000000  0.5321890000000  0.5811240000000 1.0
C      1  0.5000710000000  0.4449310000000  0.5656580000000 1.0
C      1  0.5349340000000  0.5236750000000  0.5324280000000 1.0
C      1  0.5024440000000  0.5573830000000  0.5201460000000 1.0
C      1  0.5738480000000  0.4874760000000  0.4276630000000 1.0
C      1  0.4065260000000  0.5180920000000  0.5004420000000 1.0
C      1  0.5963750000000  0.5075030000000  0.4929480000000 1.0
C      1  0.5440400000000  0.5338500000000  0.5786720000000 1.0
C      1  0.4797380000000  0.4313660000000  0.5520520000000 1.0
C      1  0.5069840000000  0.5275750000000  0.5042980000000 1.0
C      1  0.5204220000000  0.4529770000000  0.5231260000000 1.0
C      1  0.5739560000000  0.5077480000000  0.4729290000000 1.0
C      1  0.4707640000000  0.4618060000000  0.4149200000000 1.0
C      1  0.5713760000000  0.5105850000000  0.4128440000000 1.0
C      1  0.5716190000000  0.4821180000000  0.4541940000000 1.0
C      1  0.5031570000000  0.5259760000000  0.5443580000000 1.0
C      1  0.4249350000000  0.5139870000000  0.5419970000000 1.0
C      1  0.5471720000000  0.4968160000000  0.4829420000000 1.0
C      1  0.5683980000000  0.5345660000000  0.4611050000000 1.0
C      1  0.4695910000000  0.5679760000000  0.5403070000000 1.0
C      1  0.4984510000000  0.4739130000000  0.4127550000000 1.0
C      1  0.4545260000000  0.4434210000000  0.5539520000000 1.0
C      1  0.4117490000000  0.5407230000000  0.4678970000000 1.0
C      1  0.4606400000000  0.4927510000000  0.4585830000000 1.0
C      1  0.4826390000000  0.4982800000000  0.4257330000000 1.0
C      1  0.4713500000000  0.5102250000000  0.5716380000000 1.0
C      1  0.5149450000000  0.4871120000000  0.5030160000000 1.0
C      1  0.4376120000000  0.4563770000000  0.5332370000000 1.0
C      1  0.5625580000000  0.4311690000000  0.4878010000000 1.0
C      1  0.4099170000000  0.4694770000000  0.5270700000000 1.0
C      1  0.5444010000000  0.5566950000000  0.4485720000000 1.0
C      1  0.4986530000000  0.4829150000000  0.4515840000000 1.0
C      1  0.6214510000000  0.4989990000000  0.4849320000000 1.0
C      1  0.3866740000000  0.5285030000000  0.4694880000000 1.0
C      1  0.4782340000000  0.4727680000000  0.4771380000000 1.0
C      1  0.4998800000000  0.5399820000000  0.4340480000000 1.0
C      1  0.4378660000000  0.5034020000000  0.5719150000000 1.0
C      1  0.4927790000000  0.4270290000000  0.4474360000000 1.0
C      1  0.4145250000000  0.4841710000000  0.5551880000000 1.0
C      1  0.4627100000000  0.5832060000000  0.5105960000000 1.0
C      1  0.4772970000000  0.5543320000000  0.5029020000000 1.0
C      1  0.5349520000000  0.4282570000000  0.5414380000000 1.0
C      1  0.4385110000000  0.5062000000000  0.5027480000000 1.0
C      1  0.4233570000000  0.5529640000000  0.4908340000000 1.0
C      1  0.5447790000000  0.4087110000000  0.4986620000000 1.0
C      1  0.5206840000000  0.4248980000000  0.4522250000000 1.0
C      1  0.5213240000000  0.4669520000000  0.4316880000000 1.0
C      1  0.4714930000000  0.5533260000000  0.4699080000000 1.0
C      1  0.5907030000000  0.5159530000000  0.5188690000000 1.0
C      1  0.4769170000000  0.5257510000000  0.4258570000000 1.0
END
