TITL C-2778433-5640-109 -0.0189468501018176 125000 -903.907477022908 0 0 155 (C1) n - 1
REM
REM in /home/nfs/bkarasulu/CARBON/AIRSS/Generating-Clusters/REBO/Only-C1/SD-CG/HFTN-CG
REM
REM
REM
REM
REM
REM ./C.cell (11c1c37f851c82e70ff6c80c92926a4b)
REM
REM compiler GCC version 9.2.1 20190827 (Red Hat 9.2.1-1)
REM options -cpp -mtune=generic -march=x86-64 -g -O0 -fpre-include=/usr/include/finclude/math-vector-fortran.h
REM seed 1986687564 293681864 -2073496253 161021671 -234805570 -2041586385 -331949558 1090634776 -1192213964 -526091018 -1345887277 397747622 683084810 -1764813686 -829668233 -1909907714 -1739218169 -1597097608 -1983400719 -1590474497 797747088 782238290 -1874828552 -907822949 -1657255107 -1515110700 745384754 -1444508315 -400304788 65690246 1191659679 -924038767 110288108
REM
CELL 1.54180   50.00000   50.00000   50.00000   90.00000   90.00000   90.00000
LATT -1
SFAC C  
C      1  0.5175330000000  0.4731750000000  0.4998330000000 1.0
C      1  0.4839720000000  0.3884850000000  0.4807850000000 1.0
C      1  0.5549940000000  0.5017570000000  0.5276790000000 1.0
C      1  0.5983590000000  0.5488950000000  0.5378740000000 1.0
C      1  0.5038910000000  0.5771170000000  0.4678790000000 1.0
C      1  0.4552120000000  0.4784600000000  0.4608810000000 1.0
C      1  0.4331100000000  0.5650250000000  0.5815820000000 1.0
C      1  0.4460240000000  0.4190100000000  0.4473090000000 1.0
C      1  0.5014630000000  0.5257670000000  0.5889540000000 1.0
C      1  0.5163210000000  0.4620830000000  0.5953180000000 1.0
C      1  0.5215720000000  0.4224300000000  0.4991070000000 1.0
C      1  0.5189580000000  0.5486550000000  0.5793080000000 1.0
C      1  0.4639990000000  0.4553580000000  0.5391110000000 1.0
C      1  0.4238560000000  0.4418360000000  0.5035940000000 1.0
C      1  0.5391920000000  0.4486710000000  0.5482950000000 1.0
C      1  0.3996580000000  0.5201160000000  0.5340160000000 1.0
C      1  0.4593110000000  0.5004630000000  0.5411750000000 1.0
C      1  0.4583290000000  0.5286700000000  0.4714770000000 1.0
C      1  0.5842440000000  0.4825020000000  0.4630130000000 1.0
C      1  0.4501900000000  0.4839300000000  0.4111140000000 1.0
C      1  0.4925990000000  0.4486910000000  0.5662230000000 1.0
C      1  0.5950880000000  0.4725890000000  0.5274670000000 1.0
C      1  0.5436970000000  0.5653660000000  0.5425270000000 1.0
C      1  0.5882780000000  0.4487150000000  0.4616730000000 1.0
C      1  0.4967970000000  0.4105840000000  0.4627810000000 1.0
C      1  0.5181360000000  0.4666760000000  0.5310090000000 1.0
C      1  0.5225520000000  0.4115210000000  0.5798430000000 1.0
C      1  0.6107690000000  0.5251960000000  0.5414190000000 1.0
C      1  0.4432950000000  0.5914190000000  0.5172790000000 1.0
C      1  0.3779330000000  0.5007680000000  0.5179170000000 1.0
C      1  0.5431470000000  0.4602440000000  0.5767560000000 1.0
C      1  0.4580820000000  0.5725120000000  0.5725360000000 1.0
C      1  0.5029000000000  0.4993190000000  0.3785360000000 1.0
C      1  0.4460200000000  0.5657220000000  0.4632240000000 1.0
C      1  0.4955730000000  0.4611610000000  0.4082460000000 1.0
C      1  0.4319610000000  0.5296070000000  0.5401940000000 1.0
C      1  0.4263980000000  0.5703950000000  0.5091100000000 1.0
C      1  0.4723940000000  0.4248980000000  0.5784190000000 1.0
C      1  0.4957330000000  0.5370330000000  0.4397130000000 1.0
C      1  0.4130840000000  0.5413970000000  0.5133600000000 1.0
C      1  0.4577150000000  0.4038930000000  0.4673260000000 1.0
C      1  0.5586020000000  0.5080910000000  0.4884830000000 1.0
C      1  0.4220560000000  0.5415470000000  0.4606690000000 1.0
C      1  0.4292830000000  0.4884720000000  0.5063970000000 1.0
C      1  0.4987060000000  0.4780690000000  0.5719970000000 1.0
C      1  0.4532500000000  0.5219980000000  0.5658070000000 1.0
C      1  0.5300940000000  0.4640740000000  0.4401510000000 1.0
C      1  0.5251560000000  0.5768820000000  0.4340810000000 1.0
C      1  0.5616620000000  0.5049930000000  0.5583470000000 1.0
C      1  0.4843680000000  0.3912180000000  0.5096800000000 1.0
C      1  0.5797100000000  0.5280740000000  0.5664180000000 1.0
C      1  0.5675870000000  0.5364540000000  0.4141180000000 1.0
C      1  0.4058330000000  0.4595900000000  0.4903770000000 1.0
C      1  0.4878670000000  0.4380240000000  0.4719620000000 1.0
C      1  0.4896880000000  0.6058790000000  0.5077040000000 1.0
C      1  0.5767110000000  0.5652450000000  0.5361680000000 1.0
C      1  0.4630500000000  0.6018550000000  0.4962060000000 1.0
C      1  0.5763820000000  0.4617310000000  0.4888140000000 1.0
C      1  0.4118940000000  0.5296360000000  0.4844030000000 1.0
C      1  0.4255040000000  0.5197130000000  0.4362390000000 1.0
C      1  0.4944980000000  0.5404820000000  0.5489640000000 1.0
C      1  0.4163650000000  0.5111140000000  0.5762690000000 1.0
C      1  0.5821710000000  0.4223700000000  0.4604310000000 1.0
C      1  0.4403180000000  0.4521990000000  0.4530100000000 1.0
C      1  0.4649590000000  0.5451320000000  0.4438600000000 1.0
C      1  0.5409830000000  0.5248820000000  0.5861050000000 1.0
C      1  0.5051870000000  0.4916350000000  0.4784870000000 1.0
C      1  0.5471560000000  0.4676340000000  0.4999280000000 1.0
C      1  0.4953710000000  0.5964320000000  0.5399950000000 1.0
C      1  0.4716460000000  0.6044200000000  0.4454810000000 1.0
C      1  0.5020790000000  0.4930760000000  0.6002180000000 1.0
C      1  0.3916040000000  0.4760850000000  0.5085120000000 1.0
C      1  0.4153380000000  0.4722030000000  0.4600360000000 1.0
C      1  0.4564800000000  0.5019840000000  0.5073410000000 1.0
C      1  0.5427800000000  0.4345320000000  0.4265320000000 1.0
C      1  0.5278710000000  0.4186490000000  0.5497930000000 1.0
C      1  0.5577430000000  0.4623760000000  0.4193490000000 1.0
C      1  0.5118160000000  0.5998110000000  0.4897890000000 1.0
C      1  0.5148770000000  0.5738370000000  0.5566840000000 1.0
C      1  0.4570130000000  0.4408640000000  0.4275250000000 1.0
C      1  0.4270140000000  0.5378810000000  0.5788350000000 1.0
C      1  0.5198480000000  0.4886550000000  0.4525820000000 1.0
C      1  0.5918410000000  0.5092560000000  0.4827520000000 1.0
C      1  0.5442920000000  0.5933310000000  0.4940730000000 1.0
C      1  0.4775510000000  0.5575100000000  0.5609250000000 1.0
C      1  0.4733320000000  0.4993130000000  0.4807900000000 1.0
C      1  0.5004760000000  0.4468090000000  0.4996850000000 1.0
C      1  0.5651870000000  0.4803500000000  0.5791670000000 1.0
C      1  0.5742140000000  0.5386070000000  0.4866390000000 1.0
C      1  0.4839380000000  0.5092840000000  0.4305380000000 1.0
C      1  0.4266370000000  0.4861840000000  0.4309160000000 1.0
C      1  0.4693150000000  0.4966140000000  0.6092680000000 1.0
C      1  0.5904000000000  0.4770040000000  0.5608610000000 1.0
C      1  0.5019020000000  0.4375400000000  0.5384320000000 1.0
C      1  0.5045280000000  0.5105900000000  0.5047610000000 1.0
C      1  0.5326980000000  0.5134360000000  0.4435240000000 1.0
C      1  0.4465520000000  0.4312300000000  0.5129400000000 1.0
C      1  0.5300700000000  0.5387020000000  0.4601580000000 1.0
C      1  0.4811500000000  0.4855610000000  0.4441080000000 1.0
C      1  0.4785360000000  0.4223420000000  0.5222590000000 1.0
C      1  0.4800530000000  0.4652420000000  0.5196710000000 1.0
C      1  0.5670400000000  0.4185120000000  0.5085710000000 1.0
C      1  0.4127350000000  0.4889560000000  0.5328710000000 1.0
C      1  0.5621620000000  0.5150870000000  0.4567560000000 1.0
C      1  0.5023270000000  0.5480420000000  0.4691310000000 1.0
C      1  0.5574890000000  0.5065430000000  0.5980180000000 1.0
C      1  0.5802000000000  0.4943570000000  0.5112110000000 1.0
C      1  0.5322040000000  0.5953930000000  0.4622240000000 1.0
C      1  0.5479090000000  0.5604770000000  0.4517300000000 1.0
C      1  0.5158150000000  0.5481530000000  0.4183620000000 1.0
C      1  0.5252470000000  0.5389000000000  0.5404950000000 1.0
C      1  0.4675270000000  0.4232150000000  0.4910060000000 1.0
C      1  0.5347230000000  0.4143930000000  0.4746120000000 1.0
C      1  0.4531570000000  0.5315980000000  0.5168660000000 1.0
C      1  0.5405380000000  0.4182110000000  0.5206040000000 1.0
C      1  0.4670040000000  0.4606960000000  0.4107940000000 1.0
C      1  0.5224850000000  0.4154980000000  0.4453150000000 1.0
C      1  0.4861530000000  0.5211190000000  0.3855050000000 1.0
C      1  0.5573050000000  0.4544200000000  0.5232030000000 1.0
C      1  0.5033510000000  0.4306900000000  0.5918040000000 1.0
C      1  0.5324200000000  0.5185840000000  0.5165670000000 1.0
C      1  0.5588310000000  0.5875520000000  0.5215760000000 1.0
C      1  0.5096050000000  0.4410080000000  0.4265390000000 1.0
C      1  0.4454280000000  0.5500000000000  0.4918850000000 1.0
C      1  0.4900790000000  0.4949100000000  0.5272060000000 1.0
C      1  0.4682770000000  0.5807920000000  0.5297960000000 1.0
C      1  0.4785310000000  0.3860620000000  0.5389410000000 1.0
C      1  0.4530230000000  0.4462600000000  0.5634440000000 1.0
C      1  0.5058530000000  0.5690980000000  0.5233930000000 1.0
C      1  0.5386870000000  0.5244560000000  0.4132440000000 1.0
C      1  0.5793810000000  0.5325970000000  0.4365000000000 1.0
C      1  0.5130120000000  0.4813040000000  0.3980630000000 1.0
C      1  0.4959730000000  0.5930270000000  0.4410500000000 1.0
C      1  0.4130050000000  0.4979020000000  0.4823340000000 1.0
C      1  0.5719560000000  0.5601440000000  0.4643870000000 1.0
C      1  0.4773270000000  0.5534740000000  0.5155700000000 1.0
C      1  0.5399920000000  0.4904530000000  0.4118240000000 1.0
C      1  0.4919540000000  0.5362780000000  0.4943190000000 1.0
C      1  0.4377770000000  0.5050290000000  0.4638020000000 1.0
C      1  0.4728930000000  0.5174240000000  0.5881800000000 1.0
C      1  0.4341770000000  0.4632040000000  0.5727010000000 1.0
C      1  0.5112400000000  0.4917000000000  0.5495770000000 1.0
C      1  0.5301850000000  0.5654940000000  0.5049430000000 1.0
C      1  0.5444770000000  0.5429890000000  0.5019400000000 1.0
C      1  0.4984170000000  0.5452550000000  0.3915920000000 1.0
C      1  0.5302100000000  0.5132860000000  0.5568140000000 1.0
C      1  0.4568310000000  0.5943040000000  0.4679650000000 1.0
C      1  0.5633260000000  0.4127270000000  0.4797150000000 1.0
C      1  0.5874730000000  0.4438700000000  0.5157990000000 1.0
C      1  0.4484550000000  0.5332450000000  0.4206740000000 1.0
C      1  0.4644040000000  0.5118560000000  0.4050200000000 1.0
C      1  0.5635060000000  0.4888080000000  0.4372760000000 1.0
C      1  0.4725080000000  0.3977820000000  0.5626450000000 1.0
C      1  0.6089190000000  0.4980780000000  0.5451190000000 1.0
C      1  0.4309670000000  0.4899790000000  0.5574430000000 1.0
END
