TITL C-2778434-4341-1298 0.00181333280942983 125000 -899.213948746252 0 0 154 (C1) n - 1
REM
REM in /home/nfs/bkarasulu/CARBON/AIRSS/Generating-Clusters/REBO/Only-C1/SD-CG/HFTN-CG
REM
REM
REM
REM
REM
REM ./C.cell (11c1c37f851c82e70ff6c80c92926a4b)
REM
REM compiler GCC version 9.2.1 20190827 (Red Hat 9.2.1-1)
REM options -cpp -mtune=generic -march=x86-64 -g -O0 -fpre-include=/usr/include/finclude/math-vector-fortran.h
REM seed 1784796141 -940026895 442890801 -2060127079 -1284847421 98284503 -401070990 214082693 -2055824272 -318960431 -319550838 1843559520 396221809 1596004615 1496868836 1709074660 -1954863068 -1397723978 1494281232 592659884 108279665 -857762645 -1700419547 -2104356619 -1186918094 1154867067 209284163 -746270186 -995102984 470532503 1149727147 105496152 1842286650
REM
CELL 1.54180   50.00000   50.00000   50.00000   90.00000   90.00000   90.00000
LATT -1
SFAC C  
C      1  0.4524940000000  0.4861980000000  0.5006750000000 1.0
C      1  0.4284470000000  0.5092190000000  0.5404000000000 1.0
C      1  0.4375160000000  0.4501960000000  0.5610380000000 1.0
C      1  0.5865200000000  0.5268250000000  0.4638870000000 1.0
C      1  0.4840630000000  0.5556120000000  0.4662090000000 1.0
C      1  0.4605330000000  0.5128280000000  0.5360120000000 1.0
C      1  0.4800240000000  0.5263060000000  0.4160630000000 1.0
C      1  0.5263000000000  0.3979960000000  0.4902420000000 1.0
C      1  0.4408840000000  0.4903090000000  0.4019100000000 1.0
C      1  0.5266840000000  0.4794290000000  0.4705410000000 1.0
C      1  0.5508520000000  0.4300940000000  0.4247130000000 1.0
C      1  0.5770970000000  0.5535650000000  0.5314770000000 1.0
C      1  0.5357260000000  0.4531660000000  0.4536750000000 1.0
C      1  0.5206800000000  0.6022960000000  0.5123400000000 1.0
C      1  0.5426950000000  0.5491270000000  0.4973600000000 1.0
C      1  0.4972570000000  0.4810900000000  0.4736260000000 1.0
C      1  0.6103790000000  0.5201270000000  0.5143900000000 1.0
C      1  0.4457710000000  0.5793600000000  0.4538980000000 1.0
C      1  0.5273110000000  0.4372790000000  0.4828620000000 1.0
C      1  0.4056210000000  0.5584610000000  0.5194840000000 1.0
C      1  0.4988350000000  0.4942880000000  0.3937420000000 1.0
C      1  0.5221480000000  0.5182400000000  0.4001450000000 1.0
C      1  0.5652560000000  0.4601960000000  0.5042300000000 1.0
C      1  0.5927440000000  0.5278400000000  0.4919010000000 1.0
C      1  0.4551500000000  0.5477530000000  0.4500030000000 1.0
C      1  0.4430880000000  0.5883990000000  0.5189430000000 1.0
C      1  0.4939150000000  0.4813930000000  0.4337690000000 1.0
C      1  0.5348790000000  0.4917060000000  0.4433580000000 1.0
C      1  0.4223270000000  0.4811380000000  0.5110040000000 1.0
C      1  0.4954110000000  0.5458020000000  0.5582050000000 1.0
C      1  0.5666850000000  0.4927690000000  0.4307790000000 1.0
C      1  0.4363370000000  0.5338290000000  0.4289750000000 1.0
C      1  0.5106360000000  0.4088780000000  0.4403690000000 1.0
C      1  0.4677190000000  0.5923920000000  0.4978920000000 1.0
C      1  0.6123620000000  0.4924010000000  0.5224990000000 1.0
C      1  0.4576780000000  0.5040550000000  0.5927080000000 1.0
C      1  0.4730420000000  0.4862990000000  0.3997240000000 1.0
C      1  0.4972170000000  0.4772110000000  0.5814980000000 1.0
C      1  0.6018390000000  0.5357180000000  0.5377220000000 1.0
C      1  0.4918220000000  0.4812630000000  0.5038750000000 1.0
C      1  0.4477590000000  0.5292320000000  0.5839610000000 1.0
C      1  0.5476640000000  0.5359000000000  0.5367220000000 1.0
C      1  0.4097020000000  0.5337470000000  0.4382110000000 1.0
C      1  0.4301820000000  0.5020220000000  0.4609480000000 1.0
C      1  0.5443350000000  0.4802370000000  0.4996320000000 1.0
C      1  0.5629190000000  0.5322580000000  0.5652320000000 1.0
C      1  0.5104330000000  0.5461010000000  0.5824530000000 1.0
C      1  0.5753070000000  0.4112950000000  0.4810640000000 1.0
C      1  0.4399450000000  0.5571000000000  0.5255760000000 1.0
C      1  0.4043690000000  0.4562430000000  0.4568390000000 1.0
C      1  0.5264730000000  0.4855720000000  0.4109210000000 1.0
C      1  0.4269160000000  0.4820700000000  0.5569070000000 1.0
C      1  0.4722870000000  0.4459200000000  0.5422840000000 1.0
C      1  0.5166520000000  0.5458430000000  0.4193050000000 1.0
C      1  0.4999290000000  0.5818550000000  0.4552260000000 1.0
C      1  0.5588150000000  0.4620650000000  0.4313250000000 1.0
C      1  0.5474430000000  0.4122160000000  0.4715610000000 1.0
C      1  0.5537790000000  0.5208790000000  0.4628850000000 1.0
C      1  0.4947120000000  0.5535450000000  0.5189880000000 1.0
C      1  0.5235710000000  0.4616400000000  0.5931950000000 1.0
C      1  0.4989090000000  0.5130590000000  0.5147780000000 1.0
C      1  0.5251570000000  0.5711470000000  0.4404280000000 1.0
C      1  0.4814330000000  0.5100130000000  0.4737860000000 1.0
C      1  0.4520180000000  0.5180000000000  0.4118880000000 1.0
C      1  0.4493960000000  0.4250350000000  0.4771480000000 1.0
C      1  0.5047640000000  0.4078490000000  0.5027070000000 1.0
C      1  0.4854000000000  0.4284280000000  0.5757120000000 1.0
C      1  0.4550860000000  0.5990280000000  0.5449920000000 1.0
C      1  0.5542540000000  0.4986360000000  0.5849340000000 1.0
C      1  0.5222910000000  0.4783460000000  0.5503750000000 1.0
C      1  0.5100260000000  0.4864540000000  0.6114920000000 1.0
C      1  0.5473870000000  0.5056380000000  0.5227130000000 1.0
C      1  0.5328990000000  0.5089250000000  0.6088360000000 1.0
C      1  0.5922670000000  0.4867290000000  0.5464270000000 1.0
C      1  0.5397150000000  0.4106750000000  0.4423050000000 1.0
C      1  0.4731760000000  0.4530260000000  0.5089840000000 1.0
C      1  0.4073110000000  0.5083660000000  0.5132690000000 1.0
C      1  0.5495440000000  0.5718560000000  0.4555010000000 1.0
C      1  0.4495340000000  0.4796190000000  0.4529870000000 1.0
C      1  0.4282120000000  0.4685080000000  0.4162050000000 1.0
C      1  0.4475370000000  0.4754150000000  0.5317420000000 1.0
C      1  0.4125020000000  0.4601730000000  0.4894090000000 1.0
C      1  0.4510170000000  0.5230580000000  0.4700510000000 1.0
C      1  0.4822540000000  0.5053670000000  0.6054050000000 1.0
C      1  0.5641130000000  0.5785380000000  0.5139470000000 1.0
C      1  0.5044530000000  0.5966520000000  0.4829020000000 1.0
C      1  0.3972530000000  0.5322390000000  0.5310600000000 1.0
C      1  0.5667400000000  0.5499350000000  0.4522370000000 1.0
C      1  0.5014010000000  0.4132000000000  0.4136110000000 1.0
C      1  0.4790690000000  0.4839420000000  0.5336460000000 1.0
C      1  0.5258750000000  0.5319750000000  0.4483510000000 1.0
C      1  0.4691010000000  0.5442980000000  0.5376510000000 1.0
C      1  0.4486220000000  0.5554310000000  0.5766390000000 1.0
C      1  0.4229050000000  0.5399610000000  0.5502210000000 1.0
C      1  0.5246370000000  0.5569640000000  0.5320970000000 1.0
C      1  0.4039310000000  0.5145280000000  0.4833940000000 1.0
C      1  0.5361810000000  0.5826310000000  0.5244190000000 1.0
C      1  0.5017640000000  0.4334850000000  0.4605080000000 1.0
C      1  0.4747130000000  0.5621260000000  0.4948870000000 1.0
C      1  0.4759740000000  0.6162330000000  0.5384560000000 1.0
C      1  0.5143210000000  0.5669440000000  0.4949200000000 1.0
C      1  0.5990370000000  0.4452890000000  0.5190410000000 1.0
C      1  0.4643280000000  0.4739310000000  0.4760870000000 1.0
C      1  0.5069960000000  0.4394370000000  0.4072600000000 1.0
C      1  0.4714690000000  0.4077120000000  0.5311080000000 1.0
C      1  0.5355800000000  0.4551040000000  0.4070440000000 1.0
C      1  0.5338720000000  0.4411810000000  0.5775770000000 1.0
C      1  0.5052030000000  0.5245700000000  0.6010700000000 1.0
C      1  0.4630900000000  0.4144170000000  0.5046800000000 1.0
C      1  0.5112410000000  0.4221840000000  0.5692520000000 1.0
C      1  0.4744220000000  0.5791090000000  0.4355420000000 1.0
C      1  0.4261390000000  0.5600810000000  0.4745620000000 1.0
C      1  0.5746640000000  0.4769620000000  0.5724470000000 1.0
C      1  0.4068050000000  0.5390880000000  0.4651720000000 1.0
C      1  0.5042160000000  0.4988630000000  0.5608800000000 1.0
C      1  0.5888780000000  0.5177170000000  0.5572070000000 1.0
C      1  0.5032470000000  0.5318580000000  0.4681060000000 1.0
C      1  0.4875400000000  0.4302350000000  0.4879880000000 1.0
C      1  0.5063370000000  0.4611870000000  0.5343500000000 1.0
C      1  0.5503810000000  0.4897500000000  0.5521420000000 1.0
C      1  0.4846570000000  0.5563470000000  0.4187820000000 1.0
C      1  0.4679340000000  0.5130720000000  0.5044100000000 1.0
C      1  0.5697580000000  0.5403410000000  0.5038500000000 1.0
C      1  0.4031510000000  0.4860760000000  0.4692090000000 1.0
C      1  0.5745960000000  0.4590540000000  0.5370950000000 1.0
C      1  0.5273460000000  0.4277600000000  0.5406760000000 1.0
C      1  0.5566260000000  0.5292780000000  0.5980840000000 1.0
C      1  0.4413050000000  0.4369580000000  0.5294720000000 1.0
C      1  0.4745300000000  0.4595190000000  0.5731380000000 1.0
C      1  0.5450450000000  0.5181720000000  0.4240850000000 1.0
C      1  0.4470020000000  0.5456160000000  0.4945470000000 1.0
C      1  0.4535900000000  0.4201320000000  0.5564760000000 1.0
C      1  0.4249210000000  0.4498890000000  0.4380950000000 1.0
C      1  0.5000870000000  0.5200270000000  0.5440230000000 1.0
C      1  0.6148710000000  0.4689480000000  0.5064460000000 1.0
C      1  0.5449590000000  0.5792890000000  0.4855050000000 1.0
C      1  0.5441340000000  0.5103190000000  0.4889630000000 1.0
C      1  0.5536880000000  0.4447010000000  0.5539490000000 1.0
C      1  0.5203240000000  0.4435390000000  0.5117170000000 1.0
C      1  0.5816050000000  0.4303610000000  0.4989140000000 1.0
C      1  0.5007810000000  0.4090700000000  0.5314880000000 1.0
C      1  0.5078190000000  0.4554900000000  0.4356890000000 1.0
C      1  0.4520040000000  0.5803460000000  0.5661820000000 1.0
C      1  0.5919790000000  0.3910100000000  0.4725420000000 1.0
C      1  0.4892790000000  0.6116480000000  0.5098920000000 1.0
C      1  0.4648960000000  0.4761250000000  0.4301740000000 1.0
C      1  0.4981970000000  0.5091290000000  0.4307710000000 1.0
C      1  0.5387250000000  0.5509750000000  0.5805770000000 1.0
C      1  0.5173590000000  0.5271150000000  0.4958240000000 1.0
C      1  0.4375930000000  0.5901880000000  0.4851700000000 1.0
C      1  0.4488460000000  0.4766040000000  0.5804240000000 1.0
C      1  0.5923520000000  0.4664190000000  0.4858920000000 1.0
C      1  0.4437970000000  0.4316510000000  0.4502280000000 1.0
C      1  0.4405240000000  0.4469350000000  0.4997960000000 1.0
END
