TITL C-2778426-5645-851 0.00544514376157666 125000 -955.678874416322 0 0 164 (C1) n - 1
REM
REM in /home/nfs/bkarasulu/CARBON/AIRSS/Generating-Clusters/REBO/Only-C1/SD-CG/HFTN-CG
REM
REM
REM
REM
REM
REM ./C.cell (11c1c37f851c82e70ff6c80c92926a4b)
REM
REM compiler GCC version 9.2.1 20190827 (Red Hat 9.2.1-1)
REM options -cpp -mtune=generic -march=x86-64 -g -O0 -fpre-include=/usr/include/finclude/math-vector-fortran.h
REM seed -1189835260 49418171 1185259733 1802209670 2233112 -223118908 273496364 -686346326 -499603749 1018806163 827906363 206711159 -1849655366 957380457 -1075035322 1199637306 1101120 -955761154 827236492 1335536353 1490221381 684474013 -1959521790 -2128236593 790339256 -1002066555 1493334319 -1446863306 1926555453 1597961627 153957601 1281777 -2076511245
REM
CELL 1.54180   50.00000   50.00000   50.00000   90.00000   90.00000   90.00000
LATT -1
SFAC C  
C      1  0.4332730000000  0.5772830000000  0.5257310000000 1.0
C      1  0.4853150000000  0.5380140000000  0.4051120000000 1.0
C      1  0.4566450000000  0.5460940000000  0.4885760000000 1.0
C      1  0.5909380000000  0.5380430000000  0.5379070000000 1.0
C      1  0.4628490000000  0.5049570000000  0.6056220000000 1.0
C      1  0.4569780000000  0.4193350000000  0.4438100000000 1.0
C      1  0.5107850000000  0.5217650000000  0.3936110000000 1.0
C      1  0.4253100000000  0.4748070000000  0.4493550000000 1.0
C      1  0.4726390000000  0.5746780000000  0.4983380000000 1.0
C      1  0.4586280000000  0.4321370000000  0.5532100000000 1.0
C      1  0.4907940000000  0.4860120000000  0.4359190000000 1.0
C      1  0.4524630000000  0.5178620000000  0.5003640000000 1.0
C      1  0.5122380000000  0.4127760000000  0.5589240000000 1.0
C      1  0.5240280000000  0.5883220000000  0.5337320000000 1.0
C      1  0.5919190000000  0.5482440000000  0.4324970000000 1.0
C      1  0.5439950000000  0.5531970000000  0.5776010000000 1.0
C      1  0.5158050000000  0.4391810000000  0.4346380000000 1.0
C      1  0.4985670000000  0.5851150000000  0.4447160000000 1.0
C      1  0.5378160000000  0.5280290000000  0.5871510000000 1.0
C      1  0.4664080000000  0.4902900000000  0.4202490000000 1.0
C      1  0.5602010000000  0.4475720000000  0.4476150000000 1.0
C      1  0.4345710000000  0.4826720000000  0.5545480000000 1.0
C      1  0.5260980000000  0.4397760000000  0.4855420000000 1.0
C      1  0.5393640000000  0.4866040000000  0.4908690000000 1.0
C      1  0.5092110000000  0.4061220000000  0.4726500000000 1.0
C      1  0.5847410000000  0.5271740000000  0.5666560000000 1.0
C      1  0.5704400000000  0.5550450000000  0.5674920000000 1.0
C      1  0.5863010000000  0.5099760000000  0.4426260000000 1.0
C      1  0.4851510000000  0.4043510000000  0.4558130000000 1.0
C      1  0.4816510000000  0.5631230000000  0.5353850000000 1.0
C      1  0.4181250000000  0.4316980000000  0.4929170000000 1.0
C      1  0.4491570000000  0.4243150000000  0.4952870000000 1.0
C      1  0.4028230000000  0.4648720000000  0.5210650000000 1.0
C      1  0.4860210000000  0.4908620000000  0.4669910000000 1.0
C      1  0.5534470000000  0.5738990000000  0.4587860000000 1.0
C      1  0.5578770000000  0.4850240000000  0.5260860000000 1.0
C      1  0.5351310000000  0.5991130000000  0.4838220000000 1.0
C      1  0.4357110000000  0.5499110000000  0.5253990000000 1.0
C      1  0.4929670000000  0.4721890000000  0.5015710000000 1.0
C      1  0.4456800000000  0.4425330000000  0.4599200000000 1.0
C      1  0.4118970000000  0.4461900000000  0.4625190000000 1.0
C      1  0.5079570000000  0.5258720000000  0.4897750000000 1.0
C      1  0.5648250000000  0.4878640000000  0.5755200000000 1.0
C      1  0.5570830000000  0.5009290000000  0.4681360000000 1.0
C      1  0.5162810000000  0.3883490000000  0.4999410000000 1.0
C      1  0.5049000000000  0.5079450000000  0.5430300000000 1.0
C      1  0.4167090000000  0.5275400000000  0.4603870000000 1.0
C      1  0.4048340000000  0.4923590000000  0.4921130000000 1.0
C      1  0.5686580000000  0.4718580000000  0.4255840000000 1.0
C      1  0.5186080000000  0.5046010000000  0.5717320000000 1.0
C      1  0.4413240000000  0.5527670000000  0.5667040000000 1.0
C      1  0.4061410000000  0.5081070000000  0.5434410000000 1.0
C      1  0.4868850000000  0.5450300000000  0.5987090000000 1.0
C      1  0.5429280000000  0.5132030000000  0.4016380000000 1.0
C      1  0.5363410000000  0.4646090000000  0.5320030000000 1.0
C      1  0.4596850000000  0.5519900000000  0.4228220000000 1.0
C      1  0.4358930000000  0.4457220000000  0.5326730000000 1.0
C      1  0.4689360000000  0.4732060000000  0.5947070000000 1.0
C      1  0.5776940000000  0.4648060000000  0.5540540000000 1.0
C      1  0.5484160000000  0.4591300000000  0.5710190000000 1.0
C      1  0.5526920000000  0.5441500000000  0.5013060000000 1.0
C      1  0.5717390000000  0.4795140000000  0.4985000000000 1.0
C      1  0.4949810000000  0.4623660000000  0.5485510000000 1.0
C      1  0.5301390000000  0.4830110000000  0.6110200000000 1.0
C      1  0.4414460000000  0.4909880000000  0.5841240000000 1.0
C      1  0.4691890000000  0.4647400000000  0.4706080000000 1.0
C      1  0.4391600000000  0.5229750000000  0.5882400000000 1.0
C      1  0.5543720000000  0.5784510000000  0.5217610000000 1.0
C      1  0.4490620000000  0.5980550000000  0.5060220000000 1.0
C      1  0.4477850000000  0.4076930000000  0.5340410000000 1.0
C      1  0.5136610000000  0.4846020000000  0.5213090000000 1.0
C      1  0.4952270000000  0.4616020000000  0.3959430000000 1.0
C      1  0.4741890000000  0.5155280000000  0.5528740000000 1.0
C      1  0.4933880000000  0.5660790000000  0.5733950000000 1.0
C      1  0.5929340000000  0.5159690000000  0.5183380000000 1.0
C      1  0.5422960000000  0.5417970000000  0.4182940000000 1.0
C      1  0.6104140000000  0.5119020000000  0.4891100000000 1.0
C      1  0.5180660000000  0.4679010000000  0.4818820000000 1.0
C      1  0.4467940000000  0.4685130000000  0.4261530000000 1.0
C      1  0.4178940000000  0.5365070000000  0.5077940000000 1.0
C      1  0.4887660000000  0.5222070000000  0.5165590000000 1.0
C      1  0.5155370000000  0.5501800000000  0.4352140000000 1.0
C      1  0.5104500000000  0.5050830000000  0.6043680000000 1.0
C      1  0.5630700000000  0.5478960000000  0.4410130000000 1.0
C      1  0.4356810000000  0.5707430000000  0.4756340000000 1.0
C      1  0.4616990000000  0.5486430000000  0.4550250000000 1.0
C      1  0.5801340000000  0.4500080000000  0.4740600000000 1.0
C      1  0.4139500000000  0.5005380000000  0.4660800000000 1.0
C      1  0.5659740000000  0.5064860000000  0.5488860000000 1.0
C      1  0.4732320000000  0.4515920000000  0.4134360000000 1.0
C      1  0.5749600000000  0.5556260000000  0.4781890000000 1.0
C      1  0.4382860000000  0.4691190000000  0.4810080000000 1.0
C      1  0.4040030000000  0.4415770000000  0.5447730000000 1.0
C      1  0.5916340000000  0.5281860000000  0.4670050000000 1.0
C      1  0.5717880000000  0.5190490000000  0.4931720000000 1.0
C      1  0.4711520000000  0.6025220000000  0.4551300000000 1.0
C      1  0.4469680000000  0.4947590000000  0.5248030000000 1.0
C      1  0.5323280000000  0.4231710000000  0.4567840000000 1.0
C      1  0.4633720000000  0.5390610000000  0.5317540000000 1.0
C      1  0.5444830000000  0.4354910000000  0.5265590000000 1.0
C      1  0.4981560000000  0.4909790000000  0.3863310000000 1.0
C      1  0.5117150000000  0.5192230000000  0.4284380000000 1.0
C      1  0.5589770000000  0.5824240000000  0.4919190000000 1.0
C      1  0.5393710000000  0.5522030000000  0.5380280000000 1.0
C      1  0.4587060000000  0.4612310000000  0.5647930000000 1.0
C      1  0.5145250000000  0.4898220000000  0.4163690000000 1.0
C      1  0.4944670000000  0.4107790000000  0.5349670000000 1.0
C      1  0.4941920000000  0.3777100000000  0.5126010000000 1.0
C      1  0.5438690000000  0.4794230000000  0.4077110000000 1.0
C      1  0.5267280000000  0.5597710000000  0.4984670000000 1.0
C      1  0.5281790000000  0.5102760000000  0.5088810000000 1.0
C      1  0.5245470000000  0.4589870000000  0.5954380000000 1.0
C      1  0.4337780000000  0.5376420000000  0.4387620000000 1.0
C      1  0.5193640000000  0.5495570000000  0.4679080000000 1.0
C      1  0.5715330000000  0.5150510000000  0.4198140000000 1.0
C      1  0.6014960000000  0.4831540000000  0.4978970000000 1.0
C      1  0.5097270000000  0.5119390000000  0.4596450000000 1.0
C      1  0.4339270000000  0.4700960000000  0.5101770000000 1.0
C      1  0.4685650000000  0.5742020000000  0.4022050000000 1.0
C      1  0.4180930000000  0.4189160000000  0.5232880000000 1.0
C      1  0.4686320000000  0.5946580000000  0.5324770000000 1.0
C      1  0.4354700000000  0.5229740000000  0.4104750000000 1.0
C      1  0.5015340000000  0.4248740000000  0.4999930000000 1.0
C      1  0.5408050000000  0.5262600000000  0.4549440000000 1.0
C      1  0.4861200000000  0.4280160000000  0.4312830000000 1.0
C      1  0.4072680000000  0.5109520000000  0.5145240000000 1.0
C      1  0.4509580000000  0.5963610000000  0.4728200000000 1.0
C      1  0.5705270000000  0.4378230000000  0.5044820000000 1.0
C      1  0.3999940000000  0.4603640000000  0.4902410000000 1.0
C      1  0.5491700000000  0.5239870000000  0.5284450000000 1.0
C      1  0.5382970000000  0.4190340000000  0.5528550000000 1.0
C      1  0.4727190000000  0.4844690000000  0.5442960000000 1.0
C      1  0.4955570000000  0.5683640000000  0.4177000000000 1.0
C      1  0.4173850000000  0.5465150000000  0.4814110000000 1.0
C      1  0.5941420000000  0.4843930000000  0.5311780000000 1.0
C      1  0.5820790000000  0.4792450000000  0.4565070000000 1.0
C      1  0.5300560000000  0.5855320000000  0.4469550000000 1.0
C      1  0.4201480000000  0.5268860000000  0.5603090000000 1.0
C      1  0.5086350000000  0.5577560000000  0.5261240000000 1.0
C      1  0.4702940000000  0.4469010000000  0.4996430000000 1.0
C      1  0.4889870000000  0.4348810000000  0.5662080000000 1.0
C      1  0.4041380000000  0.4752730000000  0.5515950000000 1.0
C      1  0.4638950000000  0.5777190000000  0.5605560000000 1.0
C      1  0.4959140000000  0.4549750000000  0.5897430000000 1.0
C      1  0.4879900000000  0.5196730000000  0.6111480000000 1.0
C      1  0.5826980000000  0.4462430000000  0.5305990000000 1.0
C      1  0.5394280000000  0.4130520000000  0.5014310000000 1.0
C      1  0.5431970000000  0.4770730000000  0.4476020000000 1.0
C      1  0.4714090000000  0.3931580000000  0.5263910000000 1.0
C      1  0.5137760000000  0.4679440000000  0.4497800000000 1.0
C      1  0.4900340000000  0.4408930000000  0.5261110000000 1.0
C      1  0.4614640000000  0.5142970000000  0.4071760000000 1.0
C      1  0.4838390000000  0.5672800000000  0.4684750000000 1.0
C      1  0.4708370000000  0.5401810000000  0.5709340000000 1.0
C      1  0.4780090000000  0.4992240000000  0.4962920000000 1.0
C      1  0.5226040000000  0.4526920000000  0.4061130000000 1.0
C      1  0.5604440000000  0.4219920000000  0.4759470000000 1.0
C      1  0.5770140000000  0.5656180000000  0.5389780000000 1.0
C      1  0.4567570000000  0.4052160000000  0.4738570000000 1.0
C      1  0.5210370000000  0.5693330000000  0.5620950000000 1.0
C      1  0.5210740000000  0.4751620000000  0.5592570000000 1.0
C      1  0.4965850000000  0.5936250000000  0.5143050000000 1.0
C      1  0.5496530000000  0.5019860000000  0.5971670000000 1.0
C      1  0.5085600000000  0.5844330000000  0.4846090000000 1.0
END
