TITL C-2778428-5639-1396 0.00430805256014969 125000 -408.207531442956 0 0 70 (C1) n - 1
REM
REM in /home/nfs/bkarasulu/CARBON/AIRSS/Generating-Clusters/REBO/Only-C1/SD-CG/HFTN-CG
REM
REM
REM
REM
REM
REM ./C.cell (11c1c37f851c82e70ff6c80c92926a4b)
REM
REM compiler GCC version 9.2.1 20190827 (Red Hat 9.2.1-1)
REM options -cpp -mtune=generic -march=x86-64 -g -O0 -fpre-include=/usr/include/finclude/math-vector-fortran.h
REM seed -1540311396 736857113 -1864003596 -914820686 -1310434024 1734407791 -409921510 -1875423738 -785077973 -1519729164 -1859223101 -2111054549 -51780647 1740694629 -773961006 314703245 1938037027 1366206700 -1206995150 -1247635075 -830979854 1233381124 1902822072 -444746758 -1752411133 -1050061076 569271076 -1198628644 -750773982 -198075176 1333748454 -2083797400 -1051624306
REM
CELL 1.54180   50.00000   50.00000   50.00000   90.00000   90.00000   90.00000
LATT -1
SFAC C  
C      1  0.4576230000000  0.5411280000000  0.4810670000000 1.0
C      1  0.5690960000000  0.4622140000000  0.5685500000000 1.0
C      1  0.4863920000000  0.5783860000000  0.4703810000000 1.0
C      1  0.5503150000000  0.5238010000000  0.5623170000000 1.0
C      1  0.4268380000000  0.4683020000000  0.4701550000000 1.0
C      1  0.5602170000000  0.5291330000000  0.4764930000000 1.0
C      1  0.4808430000000  0.5543230000000  0.5331590000000 1.0
C      1  0.5046170000000  0.4478650000000  0.4588010000000 1.0
C      1  0.4878170000000  0.5433170000000  0.5639300000000 1.0
C      1  0.4606000000000  0.5015070000000  0.4772740000000 1.0
C      1  0.4698740000000  0.4172950000000  0.5512380000000 1.0
C      1  0.5099610000000  0.5020460000000  0.4581370000000 1.0
C      1  0.4251260000000  0.5021640000000  0.4974740000000 1.0
C      1  0.5358920000000  0.4526360000000  0.5338070000000 1.0
C      1  0.4289610000000  0.4906780000000  0.5549080000000 1.0
C      1  0.4680940000000  0.4988910000000  0.5280220000000 1.0
C      1  0.5260070000000  0.4956290000000  0.4824100000000 1.0
C      1  0.5316530000000  0.4383950000000  0.5089920000000 1.0
C      1  0.5311330000000  0.4399290000000  0.4580030000000 1.0
C      1  0.4383620000000  0.5335270000000  0.5495170000000 1.0
C      1  0.4528740000000  0.4950110000000  0.4303490000000 1.0
C      1  0.4414050000000  0.4924490000000  0.4584270000000 1.0
C      1  0.4312290000000  0.5250400000000  0.4907130000000 1.0
C      1  0.5241310000000  0.5032990000000  0.5590180000000 1.0
C      1  0.5736120000000  0.4869210000000  0.4971110000000 1.0
C      1  0.4764300000000  0.4935990000000  0.5747500000000 1.0
C      1  0.4672850000000  0.4697500000000  0.4381190000000 1.0
C      1  0.5698550000000  0.5276460000000  0.4497460000000 1.0
C      1  0.4597680000000  0.4576770000000  0.4896870000000 1.0
C      1  0.5133510000000  0.4624110000000  0.5473810000000 1.0
C      1  0.5186860000000  0.5364420000000  0.5636190000000 1.0
C      1  0.4902980000000  0.4445570000000  0.4846840000000 1.0
C      1  0.4704380000000  0.5338980000000  0.4534300000000 1.0
C      1  0.4686610000000  0.5154810000000  0.5009230000000 1.0
C      1  0.4658510000000  0.6009820000000  0.5257050000000 1.0
C      1  0.4834980000000  0.4483360000000  0.5480520000000 1.0
C      1  0.5336970000000  0.5694400000000  0.4734020000000 1.0
C      1  0.5487640000000  0.4429420000000  0.4842740000000 1.0
C      1  0.4998630000000  0.5342910000000  0.4576800000000 1.0
C      1  0.4877880000000  0.4736520000000  0.5004920000000 1.0
C      1  0.5215190000000  0.4853080000000  0.4240580000000 1.0
C      1  0.4669410000000  0.5686560000000  0.4887740000000 1.0
C      1  0.4712250000000  0.5173140000000  0.4289030000000 1.0
C      1  0.5131200000000  0.5507710000000  0.5344170000000 1.0
C      1  0.4399950000000  0.4849860000000  0.5303500000000 1.0
C      1  0.5528280000000  0.4608730000000  0.4525140000000 1.0
C      1  0.4852090000000  0.4815890000000  0.5481770000000 1.0
C      1  0.5624150000000  0.4596760000000  0.5423310000000 1.0
C      1  0.5114880000000  0.4874710000000  0.5052610000000 1.0
C      1  0.4616460000000  0.5292430000000  0.5372970000000 1.0
C      1  0.4990780000000  0.5087540000000  0.4261780000000 1.0
C      1  0.5649430000000  0.5055160000000  0.4340930000000 1.0
C      1  0.5483450000000  0.4824220000000  0.4340630000000 1.0
C      1  0.4698830000000  0.5755040000000  0.5158150000000 1.0
C      1  0.4970970000000  0.4732390000000  0.4440670000000 1.0
C      1  0.4704670000000  0.5249820000000  0.5760720000000 1.0
C      1  0.4454320000000  0.5029860000000  0.5747990000000 1.0
C      1  0.4898880000000  0.4228710000000  0.5275850000000 1.0
C      1  0.5352930000000  0.5441900000000  0.5162630000000 1.0
C      1  0.5455500000000  0.5196270000000  0.5298980000000 1.0
C      1  0.5802830000000  0.4659930000000  0.5211720000000 1.0
C      1  0.5233190000000  0.4963510000000  0.5289710000000 1.0
C      1  0.4527450000000  0.4541920000000  0.4570120000000 1.0
C      1  0.5462810000000  0.5499770000000  0.4902890000000 1.0
C      1  0.5436630000000  0.5943970000000  0.4695700000000 1.0
C      1  0.5750720000000  0.4555440000000  0.4911770000000 1.0
C      1  0.4327610000000  0.4702220000000  0.5033120000000 1.0
C      1  0.5082600000000  0.5609060000000  0.4637980000000 1.0
C      1  0.5532580000000  0.5029800000000  0.4862790000000 1.0
C      1  0.5050930000000  0.4284680000000  0.5053060000000 1.0
END
