TITL C-2778433-5640-1246 0.119432128887803 125000 -922.792498921624 0 0 156 (C1) n - 1
REM
REM in /home/nfs/bkarasulu/CARBON/AIRSS/Generating-Clusters/REBO/Only-C1/SD-CG/HFTN-CG
REM
REM
REM
REM
REM
REM ./C.cell (11c1c37f851c82e70ff6c80c92926a4b)
REM
REM compiler GCC version 9.2.1 20190827 (Red Hat 9.2.1-1)
REM options -cpp -mtune=generic -march=x86-64 -g -O0 -fpre-include=/usr/include/finclude/math-vector-fortran.h
REM seed 1423715527 -3037721 -1728507838 1005008618 -736391379 -23970220 -978705109 1467896286 -2104727432 -752847478 1179001913 1585819397 1064115418 1331707452 1617271151 -1177321731 263181647 -1559426074 -650596196 -82515290 -912854753 -854600252 -1577962897 -587019043 -1339462969 1754501261 1909241958 -85596106 107013841 -495326510 2118505307 2142796221 -756555441
REM
CELL 1.54180   50.00000   50.00000   50.00000   90.00000   90.00000   90.00000
LATT -1
SFAC C  
C      1  0.5719970000000  0.5458550000000  0.5142240000000 1.0
C      1  0.4664700000000  0.5469980000000  0.5248210000000 1.0
C      1  0.5094950000000  0.3964640000000  0.5341810000000 1.0
C      1  0.4677450000000  0.5692520000000  0.5018380000000 1.0
C      1  0.5923840000000  0.4895380000000  0.4678390000000 1.0
C      1  0.4943560000000  0.4148370000000  0.5568360000000 1.0
C      1  0.4316910000000  0.5630030000000  0.5460600000000 1.0
C      1  0.4148760000000  0.4492010000000  0.4982930000000 1.0
C      1  0.4696430000000  0.4514670000000  0.5162560000000 1.0
C      1  0.4417230000000  0.5890360000000  0.5053960000000 1.0
C      1  0.4762390000000  0.5191570000000  0.4425670000000 1.0
C      1  0.5193500000000  0.4181930000000  0.4481540000000 1.0
C      1  0.5656150000000  0.4599820000000  0.5337770000000 1.0
C      1  0.6026700000000  0.5269040000000  0.4760930000000 1.0
C      1  0.5722110000000  0.4612040000000  0.4945440000000 1.0
C      1  0.5998990000000  0.5001170000000  0.5233530000000 1.0
C      1  0.4080620000000  0.4792570000000  0.5995630000000 1.0
C      1  0.4437880000000  0.4828430000000  0.4030080000000 1.0
C      1  0.5696450000000  0.4273720000000  0.5268040000000 1.0
C      1  0.5372130000000  0.5589560000000  0.4995990000000 1.0
C      1  0.4319270000000  0.4880820000000  0.5290370000000 1.0
C      1  0.4906600000000  0.4155790000000  0.4559770000000 1.0
C      1  0.5988080000000  0.4260370000000  0.5165810000000 1.0
C      1  0.4491240000000  0.5785330000000  0.4535360000000 1.0
C      1  0.4474200000000  0.5351610000000  0.4997150000000 1.0
C      1  0.3961170000000  0.5274790000000  0.5150860000000 1.0
C      1  0.4369690000000  0.4596670000000  0.4263620000000 1.0
C      1  0.4330310000000  0.4711190000000  0.4581180000000 1.0
C      1  0.4110090000000  0.5567590000000  0.4779720000000 1.0
C      1  0.5054220000000  0.5291660000000  0.4422560000000 1.0
C      1  0.5264370000000  0.4772630000000  0.4846730000000 1.0
C      1  0.5346090000000  0.5279650000000  0.5017070000000 1.0
C      1  0.4918350000000  0.5006630000000  0.4107640000000 1.0
C      1  0.5849230000000  0.4819190000000  0.5472890000000 1.0
C      1  0.4940410000000  0.5787560000000  0.4338240000000 1.0
C      1  0.5464440000000  0.5380670000000  0.4217970000000 1.0
C      1  0.4963920000000  0.5267820000000  0.4908120000000 1.0
C      1  0.4917980000000  0.4741620000000  0.5041940000000 1.0
C      1  0.4751600000000  0.4485380000000  0.5480030000000 1.0
C      1  0.4665620000000  0.4181150000000  0.5382820000000 1.0
C      1  0.5244880000000  0.4973330000000  0.4087520000000 1.0
C      1  0.6021210000000  0.4453200000000  0.4969660000000 1.0
C      1  0.5243040000000  0.5018290000000  0.5410950000000 1.0
C      1  0.4330980000000  0.5015230000000  0.4294910000000 1.0
C      1  0.4577190000000  0.4064380000000  0.4880570000000 1.0
C      1  0.5531720000000  0.4021960000000  0.5188130000000 1.0
C      1  0.5005110000000  0.4814750000000  0.5672710000000 1.0
C      1  0.4096940000000  0.4943120000000  0.4500620000000 1.0
C      1  0.4482040000000  0.5255180000000  0.5384500000000 1.0
C      1  0.5501860000000  0.4630850000000  0.5780450000000 1.0
C      1  0.5200570000000  0.5209450000000  0.4714670000000 1.0
C      1  0.4864680000000  0.5321340000000  0.4064080000000 1.0
C      1  0.4745250000000  0.4966550000000  0.5164130000000 1.0
C      1  0.3959310000000  0.5114790000000  0.4653250000000 1.0
C      1  0.5790260000000  0.5553330000000  0.5455580000000 1.0
C      1  0.5707200000000  0.5161590000000  0.5276080000000 1.0
C      1  0.4080350000000  0.4894810000000  0.5505070000000 1.0
C      1  0.4516010000000  0.4859480000000  0.5724070000000 1.0
C      1  0.4628870000000  0.4895940000000  0.4371390000000 1.0
C      1  0.5475530000000  0.4739850000000  0.4083570000000 1.0
C      1  0.4672010000000  0.5722000000000  0.4331660000000 1.0
C      1  0.5195680000000  0.4582890000000  0.4142780000000 1.0
C      1  0.5476090000000  0.4418590000000  0.4876550000000 1.0
C      1  0.4914160000000  0.6011690000000  0.4766950000000 1.0
C      1  0.4028310000000  0.4781550000000  0.5035260000000 1.0
C      1  0.5383710000000  0.5806250000000  0.4561560000000 1.0
C      1  0.4890440000000  0.5440950000000  0.5442750000000 1.0
C      1  0.4846160000000  0.4020400000000  0.4801360000000 1.0
C      1  0.5063030000000  0.5938490000000  0.5320980000000 1.0
C      1  0.5025200000000  0.4891110000000  0.4409190000000 1.0
C      1  0.5637620000000  0.5554980000000  0.5689590000000 1.0
C      1  0.5505020000000  0.5711850000000  0.5225170000000 1.0
C      1  0.4334980000000  0.4833880000000  0.4894620000000 1.0
C      1  0.5875910000000  0.4999380000000  0.4368300000000 1.0
C      1  0.5254700000000  0.5504500000000  0.5588710000000 1.0
C      1  0.5301780000000  0.4738940000000  0.5551670000000 1.0
C      1  0.5196790000000  0.5398170000000  0.5299900000000 1.0
C      1  0.3958470000000  0.5328930000000  0.4835820000000 1.0
C      1  0.5850980000000  0.5324450000000  0.4473370000000 1.0
C      1  0.5201080000000  0.5282520000000  0.4050770000000 1.0
C      1  0.5338900000000  0.5856080000000  0.5404920000000 1.0
C      1  0.4870440000000  0.5646750000000  0.5682110000000 1.0
C      1  0.4925610000000  0.4744290000000  0.5973760000000 1.0
C      1  0.4606880000000  0.5921070000000  0.4781820000000 1.0
C      1  0.5427400000000  0.5688730000000  0.4253940000000 1.0
C      1  0.5484710000000  0.5180750000000  0.5473530000000 1.0
C      1  0.5657010000000  0.4447090000000  0.4588410000000 1.0
C      1  0.5440460000000  0.4681100000000  0.4579080000000 1.0
C      1  0.4626580000000  0.5440880000000  0.4228700000000 1.0
C      1  0.5644140000000  0.4857960000000  0.5133870000000 1.0
C      1  0.5662950000000  0.5104300000000  0.4743490000000 1.0
C      1  0.5184840000000  0.5264190000000  0.5816440000000 1.0
C      1  0.4681100000000  0.4607440000000  0.5779730000000 1.0
C      1  0.5470360000000  0.4166290000000  0.4648900000000 1.0
C      1  0.5139010000000  0.5713200000000  0.4906910000000 1.0
C      1  0.5455430000000  0.4306850000000  0.5739430000000 1.0
C      1  0.4689840000000  0.4366300000000  0.4494740000000 1.0
C      1  0.4548670000000  0.5039900000000  0.4939440000000 1.0
C      1  0.4712330000000  0.4840420000000  0.3931680000000 1.0
C      1  0.6075890000000  0.5026880000000  0.4953620000000 1.0
C      1  0.5055410000000  0.5979590000000  0.5033070000000 1.0
C      1  0.4990570000000  0.5245250000000  0.6065340000000 1.0
C      1  0.5194320000000  0.4552900000000  0.5906420000000 1.0
C      1  0.5064310000000  0.4041200000000  0.5032980000000 1.0
C      1  0.5112810000000  0.5564650000000  0.4223410000000 1.0
C      1  0.5723010000000  0.4841850000000  0.4197850000000 1.0
C      1  0.4564790000000  0.5263670000000  0.4688900000000 1.0
C      1  0.4545480000000  0.4096700000000  0.5159540000000 1.0
C      1  0.4912150000000  0.5544870000000  0.4902100000000 1.0
C      1  0.5931010000000  0.4586080000000  0.4681060000000 1.0
C      1  0.5255670000000  0.4278030000000  0.5529270000000 1.0
C      1  0.4405800000000  0.5182270000000  0.5708560000000 1.0
C      1  0.5415070000000  0.5783510000000  0.5700800000000 1.0
C      1  0.4932080000000  0.4377580000000  0.5819320000000 1.0
C      1  0.4410570000000  0.4611630000000  0.5140020000000 1.0
C      1  0.5534630000000  0.5183380000000  0.4451500000000 1.0
C      1  0.4701960000000  0.4588010000000  0.4237660000000 1.0
C      1  0.4806240000000  0.5844560000000  0.5446420000000 1.0
C      1  0.5297340000000  0.5480660000000  0.4567280000000 1.0
C      1  0.5057940000000  0.4539050000000  0.5479650000000 1.0
C      1  0.4948770000000  0.4349260000000  0.5002340000000 1.0
C      1  0.4672830000000  0.4682430000000  0.4619910000000 1.0
C      1  0.5190270000000  0.4566270000000  0.5105710000000 1.0
C      1  0.4123610000000  0.5556220000000  0.5252750000000 1.0
C      1  0.4947200000000  0.4791220000000  0.4725190000000 1.0
C      1  0.4919790000000  0.4997210000000  0.6146550000000 1.0
C      1  0.5385740000000  0.4427180000000  0.5279950000000 1.0
C      1  0.5074300000000  0.5922850000000  0.4548720000000 1.0
C      1  0.5378730000000  0.4037880000000  0.4940150000000 1.0
C      1  0.5750590000000  0.5416740000000  0.4848050000000 1.0
C      1  0.5617180000000  0.5552640000000  0.4581150000000 1.0
C      1  0.4383370000000  0.5310740000000  0.4403810000000 1.0
C      1  0.3934240000000  0.4958430000000  0.5235610000000 1.0
C      1  0.5741750000000  0.4824640000000  0.5745760000000 1.0
C      1  0.4671900000000  0.5009660000000  0.5474610000000 1.0
C      1  0.4305640000000  0.4294840000000  0.4348740000000 1.0
C      1  0.4219100000000  0.4431190000000  0.4713030000000 1.0
C      1  0.5015660000000  0.5132130000000  0.5184350000000 1.0
C      1  0.5155840000000  0.4579130000000  0.4458140000000 1.0
C      1  0.4908150000000  0.5522150000000  0.5997020000000 1.0
C      1  0.4292290000000  0.5582740000000  0.4565480000000 1.0
C      1  0.4528360000000  0.5827210000000  0.5363230000000 1.0
C      1  0.4168040000000  0.5715430000000  0.5017240000000 1.0
C      1  0.5359070000000  0.4941960000000  0.4405750000000 1.0
C      1  0.5146750000000  0.5700840000000  0.5857070000000 1.0
C      1  0.4334850000000  0.5463750000000  0.5691660000000 1.0
C      1  0.5718430000000  0.5061670000000  0.5884170000000 1.0
C      1  0.4200260000000  0.4842270000000  0.5752900000000 1.0
C      1  0.4936870000000  0.4615640000000  0.4027190000000 1.0
C      1  0.4434150000000  0.4208480000000  0.4648760000000 1.0
C      1  0.4968860000000  0.5139290000000  0.5580660000000 1.0
C      1  0.5162820000000  0.4400770000000  0.4744850000000 1.0
C      1  0.5363670000000  0.3909120000000  0.5390500000000 1.0
C      1  0.5450460000000  0.4994900000000  0.4940420000000 1.0
C      1  0.5522360000000  0.5274910000000  0.5773060000000 1.0
C      1  0.4261700000000  0.5178880000000  0.5179080000000 1.0
END
