TITL C-2778437-8639-644 0.00846223504587256 125000 -1131.7321902241 0 0 196 (C1) n - 1
REM
REM in /home/nfs/bkarasulu/CARBON/AIRSS/Generating-Clusters/REBO/Only-C1/SD-CG/HFTN-CG
REM
REM
REM
REM
REM
REM ./C.cell (11c1c37f851c82e70ff6c80c92926a4b)
REM
REM compiler GCC version 9.2.1 20190827 (Red Hat 9.2.1-1)
REM options -cpp -mtune=generic -march=x86-64 -g -O0 -fpre-include=/usr/include/finclude/math-vector-fortran.h
REM seed 2005193629 -551827676 1799709987 2014300915 1449498948 -1763690665 150623919 153242778 -1095760337 -1310806841 510749803 1608905508 -1531199924 -1259803282 -997019529 -1888957373 2037573820 -380877914 -2136391765 -159675891 329417944 102851440 376369516 -712431191 -743293581 1527288851 305180304 -1715517335 -356251261 -1882151439 2007313016 317118502 1160552152
REM
CELL 1.54180   50.00000   50.00000   50.00000   90.00000   90.00000   90.00000
LATT -1
SFAC C  
C      1  0.4481310000000  0.5042780000000  0.3933750000000 1.0
C      1  0.5191880000000  0.5113060000000  0.4975110000000 1.0
C      1  0.5106650000000  0.4689420000000  0.4846940000000 1.0
C      1  0.5913350000000  0.5423410000000  0.5178640000000 1.0
C      1  0.4551910000000  0.5928940000000  0.5220960000000 1.0
C      1  0.4102540000000  0.5278710000000  0.4328190000000 1.0
C      1  0.4690920000000  0.5787710000000  0.5466800000000 1.0
C      1  0.4812330000000  0.6109760000000  0.5153890000000 1.0
C      1  0.4468390000000  0.5120310000000  0.4324070000000 1.0
C      1  0.4733880000000  0.5069170000000  0.6027430000000 1.0
C      1  0.4953300000000  0.5901840000000  0.5654670000000 1.0
C      1  0.4794820000000  0.5333730000000  0.6205520000000 1.0
C      1  0.4257970000000  0.4690600000000  0.4670080000000 1.0
C      1  0.4817710000000  0.5515310000000  0.5397860000000 1.0
C      1  0.4426420000000  0.5138230000000  0.4950940000000 1.0
C      1  0.5041910000000  0.5081170000000  0.4564740000000 1.0
C      1  0.5364860000000  0.4858390000000  0.4095530000000 1.0
C      1  0.5110780000000  0.4056480000000  0.5683250000000 1.0
C      1  0.4129790000000  0.5731720000000  0.4662210000000 1.0
C      1  0.6229720000000  0.5037500000000  0.5472820000000 1.0
C      1  0.4212350000000  0.4326310000000  0.5473900000000 1.0
C      1  0.4279070000000  0.5456070000000  0.4528700000000 1.0
C      1  0.4979180000000  0.4558350000000  0.4569430000000 1.0
C      1  0.4399150000000  0.4020300000000  0.4570310000000 1.0
C      1  0.5451330000000  0.5388370000000  0.3968500000000 1.0
C      1  0.4106390000000  0.4665230000000  0.4208370000000 1.0
C      1  0.4235400000000  0.5139540000000  0.4091700000000 1.0
C      1  0.5435020000000  0.4680620000000  0.5806640000000 1.0
C      1  0.3957000000000  0.4839170000000  0.4629580000000 1.0
C      1  0.4788000000000  0.5612150000000  0.6066440000000 1.0
C      1  0.5100960000000  0.5207830000000  0.6175000000000 1.0
C      1  0.4664060000000  0.5372220000000  0.4324940000000 1.0
C      1  0.4587540000000  0.5916030000000  0.4561910000000 1.0
C      1  0.5431000000000  0.4075400000000  0.5032460000000 1.0
C      1  0.4432250000000  0.5412600000000  0.5718880000000 1.0
C      1  0.4172470000000  0.4961180000000  0.4943530000000 1.0
C      1  0.5193860000000  0.5725570000000  0.5823860000000 1.0
C      1  0.5537510000000  0.4895420000000  0.4873640000000 1.0
C      1  0.5896680000000  0.5638150000000  0.5350810000000 1.0
C      1  0.4803390000000  0.3790870000000  0.5415180000000 1.0
C      1  0.4784640000000  0.3899520000000  0.5114190000000 1.0
C      1  0.5717050000000  0.4506310000000  0.5711280000000 1.0
C      1  0.5113170000000  0.5889750000000  0.4778280000000 1.0
C      1  0.5034540000000  0.3810220000000  0.5582490000000 1.0
C      1  0.4728180000000  0.4831820000000  0.4039570000000 1.0
C      1  0.5293920000000  0.5716790000000  0.5519230000000 1.0
C      1  0.5727210000000  0.6017780000000  0.5014200000000 1.0
C      1  0.4418350000000  0.4908920000000  0.5538480000000 1.0
C      1  0.3976560000000  0.5083610000000  0.5188720000000 1.0
C      1  0.5424620000000  0.5014860000000  0.5416790000000 1.0
C      1  0.5474620000000  0.5905090000000  0.4610050000000 1.0
C      1  0.4882130000000  0.4360570000000  0.4821420000000 1.0
C      1  0.5515440000000  0.5824550000000  0.5164580000000 1.0
C      1  0.4027220000000  0.5266850000000  0.4903780000000 1.0
C      1  0.5885670000000  0.4210100000000  0.5077720000000 1.0
C      1  0.5810430000000  0.5165520000000  0.4761910000000 1.0
C      1  0.5368690000000  0.5443390000000  0.4836750000000 1.0
C      1  0.5084180000000  0.4108690000000  0.4413480000000 1.0
C      1  0.5942460000000  0.5052370000000  0.4363860000000 1.0
C      1  0.5773070000000  0.4398780000000  0.4660800000000 1.0
C      1  0.5121370000000  0.4454180000000  0.5716800000000 1.0
C      1  0.5234140000000  0.4790260000000  0.4372520000000 1.0
C      1  0.4882310000000  0.4255670000000  0.5828280000000 1.0
C      1  0.5530740000000  0.5521850000000  0.5239580000000 1.0
C      1  0.5058790000000  0.4412630000000  0.5321980000000 1.0
C      1  0.5805040000000  0.4805330000000  0.5068700000000 1.0
C      1  0.5235300000000  0.4928940000000  0.6046260000000 1.0
C      1  0.5563980000000  0.4113000000000  0.4367440000000 1.0
C      1  0.4823130000000  0.5959120000000  0.4325430000000 1.0
C      1  0.4501040000000  0.4302510000000  0.4926920000000 1.0
C      1  0.4988910000000  0.4690330000000  0.5518510000000 1.0
C      1  0.5021850000000  0.4411890000000  0.4320140000000 1.0
C      1  0.4096810000000  0.4987280000000  0.5578950000000 1.0
C      1  0.5174530000000  0.5212920000000  0.5300090000000 1.0
C      1  0.4179800000000  0.5511460000000  0.4912120000000 1.0
C      1  0.4819660000000  0.5336060000000  0.4600760000000 1.0
C      1  0.5709130000000  0.4999340000000  0.4529080000000 1.0
C      1  0.5295370000000  0.4255280000000  0.5502250000000 1.0
C      1  0.5364390000000  0.4608650000000  0.4638330000000 1.0
C      1  0.4706920000000  0.5794340000000  0.5864640000000 1.0
C      1  0.5779680000000  0.5111400000000  0.5156770000000 1.0
C      1  0.5750740000000  0.5899880000000  0.4737530000000 1.0
C      1  0.4758090000000  0.4749880000000  0.5965050000000 1.0
C      1  0.5610130000000  0.4711770000000  0.4473270000000 1.0
C      1  0.4351000000000  0.4998130000000  0.4587750000000 1.0
C      1  0.5514040000000  0.4132220000000  0.5348810000000 1.0
C      1  0.4600270000000  0.4824490000000  0.4328030000000 1.0
C      1  0.4241200000000  0.5818610000000  0.5279620000000 1.0
C      1  0.4356390000000  0.4111280000000  0.5349760000000 1.0
C      1  0.4278640000000  0.5180190000000  0.5792740000000 1.0
C      1  0.5705100000000  0.4184230000000  0.4850280000000 1.0
C      1  0.4633730000000  0.4033560000000  0.5461840000000 1.0
C      1  0.5416570000000  0.4834330000000  0.5152110000000 1.0
C      1  0.4724200000000  0.5229720000000  0.4021070000000 1.0
C      1  0.4732200000000  0.4248860000000  0.4541940000000 1.0
C      1  0.5084520000000  0.5495110000000  0.5989410000000 1.0
C      1  0.4084060000000  0.4386140000000  0.4853210000000 1.0
C      1  0.5811830000000  0.4614420000000  0.5338150000000 1.0
C      1  0.5439360000000  0.5313580000000  0.5786940000000 1.0
C      1  0.4928290000000  0.3903760000000  0.4494650000000 1.0
C      1  0.4890640000000  0.5315410000000  0.5135440000000 1.0
C      1  0.4615010000000  0.4851740000000  0.4745400000000 1.0
C      1  0.5508270000000  0.5623460000000  0.5730980000000 1.0
C      1  0.4590200000000  0.5122260000000  0.5413970000000 1.0
C      1  0.3901750000000  0.4737270000000  0.4340430000000 1.0
C      1  0.5208160000000  0.4649330000000  0.5129330000000 1.0
C      1  0.5061520000000  0.5638570000000  0.4451160000000 1.0
C      1  0.5436030000000  0.6097630000000  0.4884810000000 1.0
C      1  0.4681590000000  0.4176450000000  0.4254770000000 1.0
C      1  0.6264420000000  0.4798630000000  0.5551230000000 1.0
C      1  0.4809390000000  0.5536750000000  0.3992690000000 1.0
C      1  0.5497800000000  0.5235180000000  0.5070590000000 1.0
C      1  0.5138380000000  0.5527950000000  0.5363340000000 1.0
C      1  0.5350830000000  0.5984390000000  0.5386330000000 1.0
C      1  0.4508740000000  0.5522490000000  0.5005220000000 1.0
C      1  0.5400030000000  0.4453910000000  0.3985230000000 1.0
C      1  0.4519170000000  0.4081560000000  0.5085080000000 1.0
C      1  0.4484330000000  0.4928020000000  0.5867540000000 1.0
C      1  0.4987290000000  0.5051890000000  0.4027830000000 1.0
C      1  0.5194970000000  0.5140000000000  0.5794790000000 1.0
C      1  0.5938880000000  0.5135410000000  0.5453770000000 1.0
C      1  0.4575850000000  0.3851800000000  0.4667320000000 1.0
C      1  0.4259550000000  0.5831980000000  0.4960120000000 1.0
C      1  0.4856790000000  0.4836590000000  0.4527760000000 1.0
C      1  0.5186000000000  0.5254610000000  0.4105900000000 1.0
C      1  0.4610930000000  0.4522840000000  0.4707180000000 1.0
C      1  0.5105850000000  0.3961610000000  0.5011600000000 1.0
C      1  0.4334640000000  0.4580090000000  0.4984530000000 1.0
C      1  0.5563150000000  0.4891640000000  0.6039500000000 1.0
C      1  0.5507140000000  0.5402470000000  0.4364270000000 1.0
C      1  0.4905090000000  0.5251750000000  0.5830030000000 1.0
C      1  0.5601580000000  0.3889900000000  0.5471380000000 1.0
C      1  0.4354500000000  0.5756810000000  0.4414420000000 1.0
C      1  0.3959200000000  0.4692390000000  0.4933740000000 1.0
C      1  0.5336560000000  0.4317450000000  0.4775210000000 1.0
C      1  0.4131440000000  0.5599410000000  0.5403350000000 1.0
C      1  0.4624200000000  0.5695970000000  0.4232250000000 1.0
C      1  0.5469270000000  0.4355350000000  0.5847860000000 1.0
C      1  0.6012050000000  0.4641470000000  0.5612320000000 1.0
C      1  0.5798660000000  0.5617070000000  0.5607460000000 1.0
C      1  0.5726090000000  0.4895470000000  0.5502900000000 1.0
C      1  0.4470310000000  0.5698810000000  0.5702870000000 1.0
C      1  0.5090260000000  0.4279610000000  0.5008280000000 1.0
C      1  0.5827490000000  0.5309360000000  0.5697120000000 1.0
C      1  0.4960680000000  0.6106440000000  0.4566640000000 1.0
C      1  0.4688840000000  0.5073320000000  0.5108670000000 1.0
C      1  0.4499230000000  0.5347710000000  0.4712210000000 1.0
C      1  0.4906000000000  0.4935280000000  0.4910840000000 1.0
C      1  0.4842570000000  0.5734900000000  0.4655750000000 1.0
C      1  0.5008850000000  0.4686030000000  0.4128160000000 1.0
C      1  0.5186710000000  0.4269990000000  0.4064650000000 1.0
C      1  0.4396370000000  0.5310620000000  0.5240880000000 1.0
C      1  0.5726410000000  0.4343910000000  0.4384760000000 1.0
C      1  0.5857320000000  0.5639010000000  0.4728490000000 1.0
C      1  0.5241970000000  0.4850400000000  0.5639590000000 1.0
C      1  0.4815060000000  0.4254130000000  0.5501090000000 1.0
C      1  0.4889310000000  0.6113340000000  0.4884960000000 1.0
C      1  0.5380540000000  0.5666080000000  0.4485070000000 1.0
C      1  0.5237020000000  0.6102850000000  0.5093640000000 1.0
C      1  0.4785460000000  0.5678460000000  0.4975260000000 1.0
C      1  0.4107490000000  0.4645360000000  0.5554200000000 1.0
C      1  0.5033650000000  0.5376760000000  0.4832610000000 1.0
C      1  0.4719330000000  0.5320160000000  0.5610670000000 1.0
C      1  0.4048760000000  0.4757340000000  0.5255660000000 1.0
C      1  0.4375860000000  0.4605850000000  0.4373070000000 1.0
C      1  0.5177830000000  0.5330560000000  0.4411490000000 1.0
C      1  0.5302440000000  0.5725990000000  0.4946570000000 1.0
C      1  0.5690620000000  0.5416040000000  0.4771930000000 1.0
C      1  0.4111960000000  0.5277590000000  0.5400450000000 1.0
C      1  0.5681530000000  0.5173510000000  0.5953480000000 1.0
C      1  0.4873800000000  0.3823940000000  0.4804070000000 1.0
C      1  0.4671000000000  0.4617230000000  0.5454130000000 1.0
C      1  0.4893010000000  0.4136950000000  0.4063650000000 1.0
C      1  0.4380770000000  0.4293870000000  0.4367170000000 1.0
C      1  0.5010120000000  0.5754060000000  0.4158190000000 1.0
C      1  0.4388450000000  0.4693310000000  0.5277280000000 1.0
C      1  0.5647900000000  0.4931340000000  0.4124840000000 1.0
C      1  0.5338410000000  0.4116530000000  0.4538520000000 1.0
C      1  0.4042270000000  0.5141330000000  0.4615460000000 1.0
C      1  0.5842930000000  0.4641950000000  0.4790250000000 1.0
C      1  0.6057120000000  0.5100230000000  0.4869550000000 1.0
C      1  0.5653460000000  0.5226220000000  0.4150500000000 1.0
C      1  0.5148930000000  0.5545080000000  0.3945730000000 1.0
C      1  0.5065260000000  0.4685990000000  0.5958370000000 1.0
C      1  0.4690260000000  0.4510970000000  0.5780550000000 1.0
C      1  0.5646260000000  0.4586410000000  0.4170620000000 1.0
C      1  0.4173320000000  0.4231390000000  0.4633930000000 1.0
C      1  0.5756210000000  0.4322130000000  0.5294330000000 1.0
C      1  0.5238900000000  0.4691320000000  0.3875340000000 1.0
C      1  0.5806690000000  0.4816510000000  0.5824100000000 1.0
C      1  0.4554070000000  0.5899720000000  0.4878110000000 1.0
C      1  0.5041870000000  0.5683370000000  0.5113150000000 1.0
C      1  0.4401410000000  0.4524490000000  0.5640670000000 1.0
C      1  0.5565030000000  0.5321140000000  0.5475760000000 1.0
C      1  0.5036090000000  0.6078650000000  0.5375000000000 1.0
C      1  0.5372170000000  0.5003760000000  0.4600200000000 1.0
END
