TITL C-2778436-5916-563 0.1143015572034 125000 -1050.6740432854 0 0 181 (C1) n - 1
REM
REM in /home/nfs/bkarasulu/CARBON/AIRSS/Generating-Clusters/REBO/Only-C1/SD-CG/HFTN-CG
REM
REM
REM
REM
REM
REM ./C.cell (11c1c37f851c82e70ff6c80c92926a4b)
REM
REM compiler GCC version 9.2.1 20190827 (Red Hat 9.2.1-1)
REM options -cpp -mtune=generic -march=x86-64 -g -O0 -fpre-include=/usr/include/finclude/math-vector-fortran.h
REM seed -1636151563 -801951658 1437023273 1826118494 1459341059 -1436923867 -1659050448 566522646 995498314 -1602880004 324314735 -2008008204 402338602 2015665431 -576375812 512835223 -1868691705 589211085 1794308051 1168325084 -2144443622 -1917723847 2058630320 2079504170 -1303996995 1384623275 170707520 -1073809326 -782720787 -1757280878 -414132197 371881362 -1709528092
REM
CELL 1.54180   50.00000   50.00000   50.00000   90.00000   90.00000   90.00000
LATT -1
SFAC C  
C      1  0.6099400000000  0.5122790000000  0.4820770000000 1.0
C      1  0.5521130000000  0.5305520000000  0.4111230000000 1.0
C      1  0.5567240000000  0.4228360000000  0.5406570000000 1.0
C      1  0.5420730000000  0.5836110000000  0.4775660000000 1.0
C      1  0.4359420000000  0.4547550000000  0.5479110000000 1.0
C      1  0.4649240000000  0.4462450000000  0.4036990000000 1.0
C      1  0.5728070000000  0.5757930000000  0.4762000000000 1.0
C      1  0.5164510000000  0.6026940000000  0.5177760000000 1.0
C      1  0.5113340000000  0.5977850000000  0.4741920000000 1.0
C      1  0.5599040000000  0.4714820000000  0.4243650000000 1.0
C      1  0.5417590000000  0.5274720000000  0.4409540000000 1.0
C      1  0.4572370000000  0.4705170000000  0.4523620000000 1.0
C      1  0.5863940000000  0.4913810000000  0.4272110000000 1.0
C      1  0.5705930000000  0.5094180000000  0.5916440000000 1.0
C      1  0.5386380000000  0.5132720000000  0.4845320000000 1.0
C      1  0.5456370000000  0.5140170000000  0.5488080000000 1.0
C      1  0.5055810000000  0.4168570000000  0.4530190000000 1.0
C      1  0.5752750000000  0.4415180000000  0.4509080000000 1.0
C      1  0.4950120000000  0.5607760000000  0.5855840000000 1.0
C      1  0.5056630000000  0.5396220000000  0.4833040000000 1.0
C      1  0.5526720000000  0.4201410000000  0.4616150000000 1.0
C      1  0.5376070000000  0.4602840000000  0.6123580000000 1.0
C      1  0.4527560000000  0.5304810000000  0.5218870000000 1.0
C      1  0.5197260000000  0.5076890000000  0.4566550000000 1.0
C      1  0.5073240000000  0.4704590000000  0.5389630000000 1.0
C      1  0.4925850000000  0.6020510000000  0.4467850000000 1.0
C      1  0.5748990000000  0.5631780000000  0.5538230000000 1.0
C      1  0.4661310000000  0.5729200000000  0.4729570000000 1.0
C      1  0.5919640000000  0.5630320000000  0.4845300000000 1.0
C      1  0.5368960000000  0.5370680000000  0.6076140000000 1.0
C      1  0.5462930000000  0.4400090000000  0.5682890000000 1.0
C      1  0.4274850000000  0.5637300000000  0.4703890000000 1.0
C      1  0.5723530000000  0.4469710000000  0.5857600000000 1.0
C      1  0.4779760000000  0.4684580000000  0.5676250000000 1.0
C      1  0.5035710000000  0.5116640000000  0.5029090000000 1.0
C      1  0.5788070000000  0.4371460000000  0.5186280000000 1.0
C      1  0.4889330000000  0.5476170000000  0.5310860000000 1.0
C      1  0.5407240000000  0.5523740000000  0.5228400000000 1.0
C      1  0.5102520000000  0.3986200000000  0.4769470000000 1.0
C      1  0.4648780000000  0.5390320000000  0.5517050000000 1.0
C      1  0.5922980000000  0.4705970000000  0.4527580000000 1.0
C      1  0.4453850000000  0.4594190000000  0.4226380000000 1.0
C      1  0.5778530000000  0.5557970000000  0.5814520000000 1.0
C      1  0.4936150000000  0.5913170000000  0.4993610000000 1.0
C      1  0.5205630000000  0.4501720000000  0.5971080000000 1.0
C      1  0.4918660000000  0.5778210000000  0.5368290000000 1.0
C      1  0.5201350000000  0.5914460000000  0.5478250000000 1.0
C      1  0.5727020000000  0.4680290000000  0.5590070000000 1.0
C      1  0.4462330000000  0.4685160000000  0.4906210000000 1.0
C      1  0.5087080000000  0.4567580000000  0.5701980000000 1.0
C      1  0.4768470000000  0.4115500000000  0.4379550000000 1.0
C      1  0.4466460000000  0.4935050000000  0.4216790000000 1.0
C      1  0.4415300000000  0.5097490000000  0.5808950000000 1.0
C      1  0.4702030000000  0.4817000000000  0.4981920000000 1.0
C      1  0.4511610000000  0.4815010000000  0.5382040000000 1.0
C      1  0.5654480000000  0.5367850000000  0.5993380000000 1.0
C      1  0.4681760000000  0.5916840000000  0.4379560000000 1.0
C      1  0.4248380000000  0.4856830000000  0.4820370000000 1.0
C      1  0.4991670000000  0.3925750000000  0.5288780000000 1.0
C      1  0.5745500000000  0.4897580000000  0.5033690000000 1.0
C      1  0.5194460000000  0.4491650000000  0.5173630000000 1.0
C      1  0.5020670000000  0.4495630000000  0.4814660000000 1.0
C      1  0.5005120000000  0.5023670000000  0.6167020000000 1.0
C      1  0.5988890000000  0.5089300000000  0.5114580000000 1.0
C      1  0.4523130000000  0.4408780000000  0.4858590000000 1.0
C      1  0.5285050000000  0.4039410000000  0.5423580000000 1.0
C      1  0.4384300000000  0.5562560000000  0.5485640000000 1.0
C      1  0.4018990000000  0.4741240000000  0.5663820000000 1.0
C      1  0.5242900000000  0.5972830000000  0.4425030000000 1.0
C      1  0.4745640000000  0.4170550000000  0.4107180000000 1.0
C      1  0.3902300000000  0.5228870000000  0.4970220000000 1.0
C      1  0.4708650000000  0.5652580000000  0.4228810000000 1.0
C      1  0.4846650000000  0.4936190000000  0.4730360000000 1.0
C      1  0.5293810000000  0.4370480000000  0.4797440000000 1.0
C      1  0.4637910000000  0.4986690000000  0.5617810000000 1.0
C      1  0.4997030000000  0.4030030000000  0.5613350000000 1.0
C      1  0.4784220000000  0.4733690000000  0.5260250000000 1.0
C      1  0.4584210000000  0.5578900000000  0.5025150000000 1.0
C      1  0.5190900000000  0.4656900000000  0.4492000000000 1.0
C      1  0.4850270000000  0.4014540000000  0.4915600000000 1.0
C      1  0.4970590000000  0.4366160000000  0.3974950000000 1.0
C      1  0.5430940000000  0.4527180000000  0.5371980000000 1.0
C      1  0.4205000000000  0.5698860000000  0.5024910000000 1.0
C      1  0.4806070000000  0.4899610000000  0.4233900000000 1.0
C      1  0.5150250000000  0.5343210000000  0.5337090000000 1.0
C      1  0.5436790000000  0.5720570000000  0.5485730000000 1.0
C      1  0.4003810000000  0.4703760000000  0.5384870000000 1.0
C      1  0.4645320000000  0.5902790000000  0.5488240000000 1.0
C      1  0.5259940000000  0.4905550000000  0.5577600000000 1.0
C      1  0.4209840000000  0.4268100000000  0.5063070000000 1.0
C      1  0.5619280000000  0.5367710000000  0.4817540000000 1.0
C      1  0.4731720000000  0.4098540000000  0.5304360000000 1.0
C      1  0.5766850000000  0.4413680000000  0.4850510000000 1.0
C      1  0.5092150000000  0.4803930000000  0.4917180000000 1.0
C      1  0.6015390000000  0.4610280000000  0.5093080000000 1.0
C      1  0.5145110000000  0.4199770000000  0.5155210000000 1.0
C      1  0.5525480000000  0.4415370000000  0.4255420000000 1.0
C      1  0.5329630000000  0.5433210000000  0.5606420000000 1.0
C      1  0.4806210000000  0.4327980000000  0.4985810000000 1.0
C      1  0.5201460000000  0.5327290000000  0.4022350000000 1.0
C      1  0.4793900000000  0.4367280000000  0.4592230000000 1.0
C      1  0.4814510000000  0.4423290000000  0.5276680000000 1.0
C      1  0.5336310000000  0.5114930000000  0.5170190000000 1.0
C      1  0.5947130000000  0.4884260000000  0.5530940000000 1.0
C      1  0.4273380000000  0.4616060000000  0.5791800000000 1.0
C      1  0.4938520000000  0.4343230000000  0.5543650000000 1.0
C      1  0.4936390000000  0.5012220000000  0.3958570000000 1.0
C      1  0.5270860000000  0.5008520000000  0.4019910000000 1.0
C      1  0.4436240000000  0.5775450000000  0.5260150000000 1.0
C      1  0.4163490000000  0.5077010000000  0.4247860000000 1.0
C      1  0.5416510000000  0.4767790000000  0.4687650000000 1.0
C      1  0.5389040000000  0.4718670000000  0.5024200000000 1.0
C      1  0.3986470000000  0.4909660000000  0.4913820000000 1.0
C      1  0.4904630000000  0.5603450000000  0.5011800000000 1.0
C      1  0.4900850000000  0.4720300000000  0.4493970000000 1.0
C      1  0.5591930000000  0.5044770000000  0.4588280000000 1.0
C      1  0.4485500000000  0.5031870000000  0.4551930000000 1.0
C      1  0.5869590000000  0.5233320000000  0.4640970000000 1.0
C      1  0.5872760000000  0.5530090000000  0.5295840000000 1.0
C      1  0.4642550000000  0.6029570000000  0.5020460000000 1.0
C      1  0.5235550000000  0.4365870000000  0.4077310000000 1.0
C      1  0.4392790000000  0.5958890000000  0.4908520000000 1.0
C      1  0.4432410000000  0.5369820000000  0.4586230000000 1.0
C      1  0.4289170000000  0.4513970000000  0.4515430000000 1.0
C      1  0.5945980000000  0.5177790000000  0.4361210000000 1.0
C      1  0.4124540000000  0.4465000000000  0.5251710000000 1.0
C      1  0.5175600000000  0.5496770000000  0.4466130000000 1.0
C      1  0.4413730000000  0.4066340000000  0.5213710000000 1.0
C      1  0.5612240000000  0.4763940000000  0.5279470000000 1.0
C      1  0.4353300000000  0.5312990000000  0.4281170000000 1.0
C      1  0.4039090000000  0.4954450000000  0.5225690000000 1.0
C      1  0.4010940000000  0.4993190000000  0.4480200000000 1.0
C      1  0.5279560000000  0.5104670000000  0.6152710000000 1.0
C      1  0.5527220000000  0.4238830000000  0.5009600000000 1.0
C      1  0.5613520000000  0.4996510000000  0.4052900000000 1.0
C      1  0.3957880000000  0.5214810000000  0.4657100000000 1.0
C      1  0.5555940000000  0.5637940000000  0.4166800000000 1.0
C      1  0.4514630000000  0.4801540000000  0.5948450000000 1.0
C      1  0.4492180000000  0.4265000000000  0.5479680000000 1.0
C      1  0.5081400000000  0.5609330000000  0.4156990000000 1.0
C      1  0.5392770000000  0.6050340000000  0.5018630000000 1.0
C      1  0.5384490000000  0.3988920000000  0.4826520000000 1.0
C      1  0.4514480000000  0.4071310000000  0.4898200000000 1.0
C      1  0.4599820000000  0.5103680000000  0.3961200000000 1.0
C      1  0.4581620000000  0.4487610000000  0.5812750000000 1.0
C      1  0.4970500000000  0.4962340000000  0.5676890000000 1.0
C      1  0.5237690000000  0.4369180000000  0.4401610000000 1.0
C      1  0.4043880000000  0.5460970000000  0.4566190000000 1.0
C      1  0.4161270000000  0.5198320000000  0.5723250000000 1.0
C      1  0.5350530000000  0.5524660000000  0.4731740000000 1.0
C      1  0.4712770000000  0.4185810000000  0.5726110000000 1.0
C      1  0.6054690000000  0.4843420000000  0.5279710000000 1.0
C      1  0.5708600000000  0.4718950000000  0.4785720000000 1.0
C      1  0.4124290000000  0.5401240000000  0.5477990000000 1.0
C      1  0.4351290000000  0.5018430000000  0.5199790000000 1.0
C      1  0.5208220000000  0.5493060000000  0.5875450000000 1.0
C      1  0.3899910000000  0.5221910000000  0.5311140000000 1.0
C      1  0.4731970000000  0.5352470000000  0.4710910000000 1.0
C      1  0.5490370000000  0.4892710000000  0.6047520000000 1.0
C      1  0.4922340000000  0.5314800000000  0.4217280000000 1.0
C      1  0.5335480000000  0.4889770000000  0.4316630000000 1.0
C      1  0.4450510000000  0.5106190000000  0.4882430000000 1.0
C      1  0.4829690000000  0.5328210000000  0.3884670000000 1.0
C      1  0.4748150000000  0.5425540000000  0.5806020000000 1.0
C      1  0.4822920000000  0.4942820000000  0.5977190000000 1.0
C      1  0.3956270000000  0.5003240000000  0.5754870000000 1.0
C      1  0.4425630000000  0.5912220000000  0.4580320000000 1.0
C      1  0.5735030000000  0.5076710000000  0.5630480000000 1.0
C      1  0.4565680000000  0.5425460000000  0.4079000000000 1.0
C      1  0.5653750000000  0.5474050000000  0.5099920000000 1.0
C      1  0.4038070000000  0.5484430000000  0.5152770000000 1.0
C      1  0.4928450000000  0.5863840000000  0.5681840000000 1.0
C      1  0.4911450000000  0.5116910000000  0.4453330000000 1.0
C      1  0.6038260000000  0.5398620000000  0.5026370000000 1.0
C      1  0.4872610000000  0.5578740000000  0.4512330000000 1.0
C      1  0.4028180000000  0.4707090000000  0.4524230000000 1.0
C      1  0.5445380000000  0.4736670000000  0.5754000000000 1.0
C      1  0.6097150000000  0.4782270000000  0.4810900000000 1.0
C      1  0.5327840000000  0.5785410000000  0.4236130000000 1.0
C      1  0.4271250000000  0.4248970000000  0.4727820000000 1.0
C      1  0.4744080000000  0.5213560000000  0.4997770000000 1.0
END
