TITL C-2778433-5640-511 0.00131261117548 125000 -1036.95690774221 0 0 180 (C1) n - 1
REM
REM in /home/nfs/bkarasulu/CARBON/AIRSS/Generating-Clusters/REBO/Only-C1/SD-CG/HFTN-CG
REM
REM
REM
REM
REM
REM ./C.cell (11c1c37f851c82e70ff6c80c92926a4b)
REM
REM compiler GCC version 9.2.1 20190827 (Red Hat 9.2.1-1)
REM options -cpp -mtune=generic -march=x86-64 -g -O0 -fpre-include=/usr/include/finclude/math-vector-fortran.h
REM seed 2131499952 -1310123910 979105332 -274463495 -1952401838 -1670772457 1266603698 -1583918135 1317203510 1444352918 -208607732 -122450773 1727001725 -1502757929 1850217528 125418839 -798848946 -1037621056 302546499 863394707 -1339808763 -586762649 -1340090014 -149161224 203228820 928324924 -921647742 1594265627 -132010345 737943503 2010924429 1701567431 -218138320
REM
CELL 1.54180   50.00000   50.00000   50.00000   90.00000   90.00000   90.00000
LATT -1
SFAC C  
C      1  0.5022900000000  0.4063730000000  0.5449560000000 1.0
C      1  0.5847160000000  0.5521230000000  0.5088400000000 1.0
C      1  0.5067970000000  0.5791220000000  0.4497920000000 1.0
C      1  0.5859290000000  0.5117070000000  0.4338930000000 1.0
C      1  0.4497000000000  0.5128860000000  0.5431900000000 1.0
C      1  0.5026330000000  0.5556260000000  0.5789650000000 1.0
C      1  0.4287980000000  0.4916960000000  0.5374630000000 1.0
C      1  0.5655110000000  0.4991760000000  0.5048700000000 1.0
C      1  0.4863580000000  0.5960580000000  0.4334620000000 1.0
C      1  0.5779510000000  0.4506640000000  0.4730730000000 1.0
C      1  0.5444570000000  0.5421980000000  0.5303940000000 1.0
C      1  0.4228840000000  0.4924340000000  0.4118210000000 1.0
C      1  0.4989170000000  0.6114900000000  0.4869450000000 1.0
C      1  0.5138600000000  0.4350010000000  0.5600410000000 1.0
C      1  0.4671110000000  0.5802810000000  0.4642670000000 1.0
C      1  0.4704790000000  0.4679180000000  0.4077780000000 1.0
C      1  0.5553440000000  0.5439810000000  0.5833880000000 1.0
C      1  0.4575170000000  0.5709310000000  0.5398450000000 1.0
C      1  0.4030430000000  0.4877020000000  0.4391300000000 1.0
C      1  0.6030370000000  0.4856680000000  0.5078740000000 1.0
C      1  0.4809030000000  0.4118870000000  0.5688950000000 1.0
C      1  0.4449620000000  0.4331390000000  0.4888830000000 1.0
C      1  0.4569760000000  0.4246440000000  0.5586660000000 1.0
C      1  0.4965290000000  0.5368630000000  0.4478880000000 1.0
C      1  0.4381070000000  0.5215120000000  0.4027520000000 1.0
C      1  0.4963870000000  0.3976720000000  0.4611650000000 1.0
C      1  0.5052030000000  0.4842910000000  0.4402170000000 1.0
C      1  0.5356130000000  0.4932140000000  0.3992020000000 1.0
C      1  0.4762230000000  0.5545050000000  0.4435800000000 1.0
C      1  0.4524710000000  0.4207540000000  0.4517060000000 1.0
C      1  0.4049880000000  0.4618690000000  0.4907730000000 1.0
C      1  0.5363870000000  0.4213950000000  0.4519580000000 1.0
C      1  0.4867110000000  0.6030070000000  0.5113190000000 1.0
C      1  0.4788830000000  0.4838500000000  0.6108190000000 1.0
C      1  0.4641630000000  0.4701770000000  0.5468590000000 1.0
C      1  0.5195590000000  0.6067830000000  0.5558310000000 1.0
C      1  0.3992710000000  0.5035840000000  0.5444560000000 1.0
C      1  0.5498920000000  0.5850390000000  0.5009130000000 1.0
C      1  0.5903610000000  0.4771990000000  0.5357580000000 1.0
C      1  0.4124160000000  0.5626330000000  0.4777250000000 1.0
C      1  0.5280520000000  0.5658010000000  0.4331780000000 1.0
C      1  0.5319090000000  0.5581100000000  0.5647000000000 1.0
C      1  0.5168040000000  0.5538250000000  0.5207420000000 1.0
C      1  0.4405840000000  0.5425220000000  0.5484410000000 1.0
C      1  0.5451230000000  0.5103800000000  0.6014170000000 1.0
C      1  0.5246790000000  0.6075730000000  0.5218540000000 1.0
C      1  0.3797230000000  0.4691330000000  0.4880730000000 1.0
C      1  0.5444050000000  0.4427330000000  0.4093410000000 1.0
C      1  0.4954770000000  0.6180700000000  0.5382840000000 1.0
C      1  0.4950670000000  0.5285250000000  0.5183170000000 1.0
C      1  0.6065600000000  0.5157700000000  0.4920380000000 1.0
C      1  0.5991750000000  0.5145270000000  0.5252380000000 1.0
C      1  0.4794740000000  0.4988190000000  0.5127420000000 1.0
C      1  0.4637880000000  0.4545390000000  0.4341720000000 1.0
C      1  0.4970390000000  0.4461410000000  0.5359990000000 1.0
C      1  0.4807120000000  0.4239680000000  0.4604860000000 1.0
C      1  0.4186680000000  0.4665040000000  0.5584190000000 1.0
C      1  0.4598200000000  0.4185050000000  0.5060260000000 1.0
C      1  0.4827000000000  0.4508820000000  0.6031270000000 1.0
C      1  0.5897320000000  0.5269720000000  0.4646820000000 1.0
C      1  0.4326350000000  0.4411150000000  0.4327800000000 1.0
C      1  0.4339730000000  0.5085420000000  0.5870250000000 1.0
C      1  0.5239110000000  0.4181750000000  0.4208570000000 1.0
C      1  0.5644540000000  0.4605060000000  0.4157220000000 1.0
C      1  0.4952240000000  0.4801810000000  0.5366360000000 1.0
C      1  0.5087060000000  0.4963720000000  0.6159370000000 1.0
C      1  0.5598710000000  0.4911550000000  0.5358770000000 1.0
C      1  0.4121640000000  0.4962280000000  0.5733010000000 1.0
C      1  0.5562440000000  0.5832740000000  0.5298610000000 1.0
C      1  0.4136830000000  0.4610910000000  0.4212720000000 1.0
C      1  0.5411510000000  0.4284180000000  0.5793070000000 1.0
C      1  0.5086910000000  0.5145590000000  0.4012140000000 1.0
C      1  0.4844840000000  0.5324790000000  0.4101880000000 1.0
C      1  0.4839260000000  0.6082790000000  0.4636890000000 1.0
C      1  0.5874410000000  0.5185290000000  0.5502130000000 1.0
C      1  0.4196120000000  0.4384930000000  0.5192960000000 1.0
C      1  0.5502490000000  0.4223470000000  0.5497580000000 1.0
C      1  0.4619240000000  0.5646790000000  0.5731560000000 1.0
C      1  0.5303050000000  0.6096930000000  0.4896570000000 1.0
C      1  0.4906150000000  0.4213500000000  0.5936920000000 1.0
C      1  0.5014570000000  0.4276470000000  0.5110990000000 1.0
C      1  0.5019760000000  0.4299750000000  0.3996450000000 1.0
C      1  0.5184650000000  0.4332130000000  0.6035180000000 1.0
C      1  0.5273970000000  0.4587400000000  0.4417890000000 1.0
C      1  0.5226940000000  0.4926070000000  0.5205470000000 1.0
C      1  0.4030410000000  0.4461210000000  0.5405240000000 1.0
C      1  0.4351790000000  0.5873880000000  0.4419420000000 1.0
C      1  0.4538930000000  0.4997940000000  0.4921030000000 1.0
C      1  0.5515990000000  0.4649640000000  0.5202930000000 1.0
C      1  0.4601610000000  0.5785300000000  0.4250390000000 1.0
C      1  0.5260500000000  0.4640840000000  0.5697900000000 1.0
C      1  0.4975310000000  0.5198790000000  0.5485390000000 1.0
C      1  0.5344230000000  0.5212140000000  0.4155930000000 1.0
C      1  0.4476430000000  0.4691060000000  0.4569820000000 1.0
C      1  0.5239140000000  0.5251970000000  0.5598950000000 1.0
C      1  0.4429250000000  0.5293680000000  0.4887820000000 1.0
C      1  0.5713850000000  0.5141380000000  0.5801020000000 1.0
C      1  0.5461520000000  0.5572880000000  0.4834890000000 1.0
C      1  0.4882020000000  0.4391880000000  0.4863570000000 1.0
C      1  0.5014190000000  0.5060640000000  0.5867410000000 1.0
C      1  0.4985310000000  0.4885670000000  0.4791560000000 1.0
C      1  0.4536450000000  0.4586700000000  0.4820770000000 1.0
C      1  0.4208060000000  0.5616400000000  0.4486450000000 1.0
C      1  0.5800380000000  0.4663950000000  0.5599430000000 1.0
C      1  0.5110070000000  0.4625400000000  0.6180270000000 1.0
C      1  0.4982960000000  0.3860590000000  0.4873880000000 1.0
C      1  0.4854860000000  0.5310170000000  0.5869670000000 1.0
C      1  0.5770400000000  0.5649010000000  0.5330800000000 1.0
C      1  0.4527040000000  0.5338090000000  0.5791650000000 1.0
C      1  0.4957940000000  0.4569460000000  0.3988520000000 1.0
C      1  0.4183650000000  0.5441540000000  0.4984220000000 1.0
C      1  0.4679100000000  0.4336560000000  0.5318630000000 1.0
C      1  0.5250570000000  0.5374710000000  0.5977140000000 1.0
C      1  0.5659210000000  0.4372690000000  0.5306930000000 1.0
C      1  0.5305180000000  0.4422720000000  0.5129110000000 1.0
C      1  0.5854870000000  0.4281080000000  0.4862060000000 1.0
C      1  0.5114040000000  0.3936800000000  0.4386250000000 1.0
C      1  0.5382450000000  0.5840110000000  0.5514240000000 1.0
C      1  0.5325150000000  0.4063230000000  0.5331160000000 1.0
C      1  0.5074770000000  0.4861220000000  0.5673030000000 1.0
C      1  0.5463110000000  0.4531680000000  0.6023870000000 1.0
C      1  0.5425260000000  0.5308800000000  0.4649020000000 1.0
C      1  0.5288240000000  0.4269920000000  0.4821520000000 1.0
C      1  0.4790770000000  0.4691330000000  0.4959890000000 1.0
C      1  0.5263600000000  0.5067100000000  0.4792810000000 1.0
C      1  0.5175480000000  0.4722510000000  0.4120020000000 1.0
C      1  0.5759300000000  0.5836450000000  0.4802480000000 1.0
C      1  0.5389160000000  0.4822280000000  0.6157240000000 1.0
C      1  0.5546450000000  0.4479080000000  0.4522750000000 1.0
C      1  0.4882450000000  0.5740020000000  0.5542380000000 1.0
C      1  0.4997490000000  0.3969260000000  0.5122860000000 1.0
C      1  0.4648940000000  0.5170320000000  0.4337500000000 1.0
C      1  0.4382820000000  0.5384470000000  0.4385800000000 1.0
C      1  0.4359870000000  0.5177050000000  0.4611670000000 1.0
C      1  0.5548550000000  0.5754790000000  0.4489640000000 1.0
C      1  0.5050000000000  0.5803550000000  0.5295920000000 1.0
C      1  0.4630120000000  0.4956200000000  0.5845620000000 1.0
C      1  0.5702200000000  0.5028670000000  0.4712910000000 1.0
C      1  0.5100300000000  0.5131050000000  0.4501500000000 1.0
C      1  0.5334620000000  0.4775550000000  0.4947130000000 1.0
C      1  0.4562400000000  0.4940650000000  0.4101800000000 1.0
C      1  0.5180920000000  0.5615230000000  0.3835840000000 1.0
C      1  0.4941330000000  0.4521100000000  0.4465200000000 1.0
C      1  0.5332400000000  0.5173800000000  0.5218690000000 1.0
C      1  0.5430990000000  0.4060970000000  0.5050340000000 1.0
C      1  0.5158380000000  0.5471630000000  0.4897750000000 1.0
C      1  0.5676580000000  0.5431960000000  0.5531460000000 1.0
C      1  0.5839820000000  0.4492110000000  0.4346520000000 1.0
C      1  0.4663230000000  0.5513840000000  0.4914330000000 1.0
C      1  0.4382800000000  0.5842820000000  0.4763500000000 1.0
C      1  0.4132110000000  0.4310850000000  0.4876610000000 1.0
C      1  0.3960120000000  0.5002100000000  0.4689510000000 1.0
C      1  0.4407790000000  0.4471320000000  0.5696060000000 1.0
C      1  0.4210420000000  0.4227400000000  0.4587440000000 1.0
C      1  0.4741690000000  0.5070360000000  0.5574950000000 1.0
C      1  0.5762150000000  0.5395070000000  0.4285640000000 1.0
C      1  0.4885810000000  0.5267510000000  0.4856470000000 1.0
C      1  0.3879980000000  0.5100130000000  0.5190170000000 1.0
C      1  0.4241330000000  0.5562810000000  0.5249920000000 1.0
C      1  0.4463680000000  0.4564350000000  0.5213300000000 1.0
C      1  0.5563400000000  0.4647310000000  0.5734430000000 1.0
C      1  0.5705720000000  0.5304870000000  0.5002080000000 1.0
C      1  0.4942580000000  0.5652800000000  0.4772880000000 1.0
C      1  0.5753300000000  0.5536770000000  0.4657630000000 1.0
C      1  0.5456940000000  0.5395720000000  0.4345590000000 1.0
C      1  0.4316760000000  0.4913700000000  0.4533550000000 1.0
C      1  0.5108480000000  0.5538450000000  0.4080550000000 1.0
C      1  0.5822370000000  0.4765610000000  0.4853530000000 1.0
C      1  0.4643010000000  0.4640590000000  0.5803100000000 1.0
C      1  0.4736950000000  0.5055530000000  0.4645440000000 1.0
C      1  0.5499780000000  0.5020780000000  0.4477770000000 1.0
C      1  0.5620130000000  0.4917340000000  0.4198150000000 1.0
C      1  0.4553420000000  0.5480450000000  0.4106940000000 1.0
C      1  0.5479730000000  0.5079320000000  0.5577550000000 1.0
C      1  0.4293660000000  0.4814680000000  0.5049060000000 1.0
C      1  0.4024860000000  0.5014790000000  0.4955450000000 1.0
C      1  0.5141130000000  0.4578400000000  0.4805470000000 1.0
C      1  0.5706510000000  0.4187120000000  0.5079900000000 1.0
C      1  0.4478690000000  0.5733110000000  0.5073060000000 1.0
C      1  0.5521520000000  0.6027260000000  0.4655720000000 1.0
END
