TITL C-2778431-5191-1307 0.00126232430376882 125000 -805.115538656384 0 0 139 (C1) n - 1
REM
REM in /home/nfs/bkarasulu/CARBON/AIRSS/Generating-Clusters/REBO/Only-C1/SD-CG/HFTN-CG
REM
REM
REM
REM
REM
REM ./C.cell (11c1c37f851c82e70ff6c80c92926a4b)
REM
REM compiler GCC version 9.2.1 20190827 (Red Hat 9.2.1-1)
REM options -cpp -mtune=generic -march=x86-64 -g -O0 -fpre-include=/usr/include/finclude/math-vector-fortran.h
REM seed -1347976922 1372896811 625221010 -608021092 81797077 1556491864 -847367415 2082228562 1433081589 1741314677 1420075081 987430668 1449605860 2121992785 -1286683748 -1087745462 216860578 -1345270329 1944100913 -6073291 2111078738 -442910521 219203614 1513189015 -1130007014 -1025361670 1657785950 -1138636366 715093569 -1358054496 678700969 -1282959807 704021376
REM
CELL 1.54180   50.00000   50.00000   50.00000   90.00000   90.00000   90.00000
LATT -1
SFAC C  
C      1  0.4142210000000  0.4770950000000  0.5384200000000 1.0
C      1  0.5705090000000  0.4305280000000  0.4940340000000 1.0
C      1  0.5701200000000  0.5498550000000  0.5183560000000 1.0
C      1  0.5937280000000  0.5076090000000  0.5251840000000 1.0
C      1  0.5517300000000  0.4683260000000  0.5348810000000 1.0
C      1  0.4641920000000  0.5269370000000  0.4489840000000 1.0
C      1  0.5399570000000  0.4563670000000  0.5825770000000 1.0
C      1  0.5207320000000  0.5463050000000  0.5839720000000 1.0
C      1  0.4618260000000  0.5868550000000  0.4874490000000 1.0
C      1  0.5858560000000  0.5141680000000  0.5521580000000 1.0
C      1  0.4930670000000  0.5443620000000  0.5026790000000 1.0
C      1  0.5183850000000  0.5849460000000  0.4796410000000 1.0
C      1  0.5407520000000  0.4570670000000  0.4576000000000 1.0
C      1  0.4894340000000  0.4627540000000  0.5796830000000 1.0
C      1  0.4365820000000  0.5633500000000  0.5076030000000 1.0
C      1  0.5345960000000  0.6019330000000  0.5033700000000 1.0
C      1  0.5015530000000  0.4078910000000  0.4761570000000 1.0
C      1  0.4112460000000  0.5172470000000  0.5099010000000 1.0
C      1  0.4443450000000  0.5127840000000  0.5131770000000 1.0
C      1  0.4978890000000  0.5209720000000  0.4066530000000 1.0
C      1  0.3989230000000  0.5240560000000  0.4805620000000 1.0
C      1  0.4459380000000  0.5082050000000  0.4191730000000 1.0
C      1  0.5719250000000  0.5380470000000  0.4573670000000 1.0
C      1  0.4389310000000  0.5029430000000  0.4680160000000 1.0
C      1  0.5822550000000  0.5792020000000  0.5111610000000 1.0
C      1  0.4869670000000  0.5062070000000  0.5752050000000 1.0
C      1  0.4707610000000  0.5628930000000  0.5096450000000 1.0
C      1  0.5178830000000  0.4581590000000  0.4084240000000 1.0
C      1  0.4909160000000  0.4800770000000  0.6049220000000 1.0
C      1  0.5551030000000  0.4284950000000  0.4640450000000 1.0
C      1  0.4885900000000  0.4347900000000  0.5439290000000 1.0
C      1  0.4987700000000  0.4240200000000  0.4523880000000 1.0
C      1  0.5504520000000  0.5610280000000  0.4441350000000 1.0
C      1  0.5229580000000  0.5658630000000  0.4293520000000 1.0
C      1  0.4614740000000  0.4476430000000  0.4785540000000 1.0
C      1  0.5027750000000  0.4523650000000  0.4983870000000 1.0
C      1  0.4015000000000  0.4621700000000  0.4826770000000 1.0
C      1  0.4542840000000  0.5893830000000  0.5209950000000 1.0
C      1  0.5090920000000  0.4533220000000  0.4590630000000 1.0
C      1  0.5481940000000  0.4740100000000  0.4853490000000 1.0
C      1  0.4592560000000  0.5642040000000  0.4623340000000 1.0
C      1  0.5422250000000  0.4749990000000  0.3951740000000 1.0
C      1  0.5993010000000  0.4824800000000  0.5130070000000 1.0
C      1  0.5153150000000  0.5125910000000  0.5870460000000 1.0
C      1  0.5522350000000  0.4991070000000  0.5933750000000 1.0
C      1  0.5140550000000  0.4229690000000  0.4968700000000 1.0
C      1  0.4120680000000  0.4647690000000  0.5132910000000 1.0
C      1  0.5187460000000  0.5601650000000  0.4990040000000 1.0
C      1  0.4569350000000  0.4169430000000  0.4735780000000 1.0
C      1  0.5016370000000  0.4886140000000  0.4055870000000 1.0
C      1  0.5241350000000  0.4818300000000  0.5987340000000 1.0
C      1  0.5441110000000  0.5281830000000  0.4407400000000 1.0
C      1  0.4978740000000  0.4374510000000  0.5706580000000 1.0
C      1  0.4733170000000  0.5379950000000  0.4787450000000 1.0
C      1  0.5652250000000  0.4633480000000  0.5721340000000 1.0
C      1  0.5423950000000  0.5519560000000  0.5357090000000 1.0
C      1  0.5545800000000  0.5775200000000  0.4944540000000 1.0
C      1  0.5324590000000  0.6221200000000  0.5192780000000 1.0
C      1  0.5415800000000  0.5146770000000  0.4711100000000 1.0
C      1  0.5210100000000  0.5735350000000  0.5279280000000 1.0
C      1  0.5209160000000  0.4713650000000  0.5402710000000 1.0
C      1  0.5267070000000  0.4346830000000  0.5684550000000 1.0
C      1  0.5177720000000  0.4760750000000  0.4838410000000 1.0
C      1  0.5747370000000  0.4473280000000  0.5488450000000 1.0
C      1  0.4832300000000  0.4032040000000  0.5178120000000 1.0
C      1  0.4369880000000  0.4637530000000  0.4429310000000 1.0
C      1  0.5874920000000  0.5280170000000  0.5063390000000 1.0
C      1  0.5512280000000  0.5006860000000  0.5373850000000 1.0
C      1  0.5479040000000  0.4890760000000  0.4484910000000 1.0
C      1  0.5445130000000  0.5423790000000  0.4970000000000 1.0
C      1  0.5870170000000  0.5304400000000  0.4779600000000 1.0
C      1  0.4387510000000  0.4625850000000  0.4967100000000 1.0
C      1  0.4214080000000  0.4386640000000  0.4697810000000 1.0
C      1  0.4783690000000  0.4695750000000  0.4217490000000 1.0
C      1  0.4706780000000  0.4586570000000  0.5078330000000 1.0
C      1  0.4355410000000  0.4759580000000  0.4676370000000 1.0
C      1  0.5589290000000  0.4296560000000  0.5263970000000 1.0
C      1  0.4963180000000  0.5617420000000  0.5660000000000 1.0
C      1  0.5123920000000  0.4976380000000  0.5457030000000 1.0
C      1  0.4760510000000  0.4011740000000  0.4885780000000 1.0
C      1  0.5334330000000  0.4209650000000  0.5421580000000 1.0
C      1  0.5352920000000  0.5169720000000  0.5617620000000 1.0
C      1  0.4251940000000  0.4250010000000  0.4962190000000 1.0
C      1  0.4346620000000  0.4244850000000  0.5209010000000 1.0
C      1  0.4108330000000  0.5422500000000  0.5813350000000 1.0
C      1  0.4316360000000  0.5229720000000  0.4447070000000 1.0
C      1  0.4699350000000  0.5618030000000  0.4312210000000 1.0
C      1  0.5132980000000  0.4103220000000  0.5242780000000 1.0
C      1  0.4149560000000  0.5398750000000  0.4642600000000 1.0
C      1  0.4310090000000  0.5598380000000  0.4772020000000 1.0
C      1  0.4408880000000  0.4363260000000  0.5522180000000 1.0
C      1  0.5488990000000  0.5464530000000  0.5658410000000 1.0
C      1  0.4709570000000  0.5309720000000  0.4162440000000 1.0
C      1  0.5243470000000  0.4825630000000  0.4305560000000 1.0
C      1  0.5312270000000  0.5238970000000  0.5225930000000 1.0
C      1  0.3985050000000  0.4930950000000  0.4889120000000 1.0
C      1  0.4200360000000  0.4598760000000  0.5600150000000 1.0
C      1  0.4453070000000  0.4327580000000  0.4455880000000 1.0
C      1  0.5179440000000  0.5477540000000  0.4030060000000 1.0
C      1  0.5946990000000  0.4540140000000  0.4956970000000 1.0
C      1  0.4519340000000  0.5542370000000  0.5433840000000 1.0
C      1  0.5461950000000  0.4991750000000  0.3993730000000 1.0
C      1  0.5800200000000  0.5394100000000  0.5625070000000 1.0
C      1  0.5097990000000  0.4340200000000  0.4228390000000 1.0
C      1  0.5679060000000  0.4932040000000  0.5663630000000 1.0
C      1  0.4985870000000  0.5457030000000  0.4409880000000 1.0
C      1  0.4799410000000  0.4838400000000  0.5248930000000 1.0
C      1  0.4898020000000  0.5951770000000  0.4716230000000 1.0
C      1  0.4229570000000  0.5429940000000  0.5276290000000 1.0
C      1  0.4309130000000  0.4994450000000  0.5394300000000 1.0
C      1  0.4967130000000  0.5223730000000  0.5272890000000 1.0
C      1  0.4815660000000  0.4694340000000  0.4690900000000 1.0
C      1  0.4495860000000  0.4797040000000  0.4224830000000 1.0
C      1  0.4954400000000  0.4876890000000  0.4447900000000 1.0
C      1  0.4933730000000  0.6036710000000  0.5045630000000 1.0
C      1  0.4615340000000  0.4892920000000  0.5898510000000 1.0
C      1  0.4512430000000  0.4642350000000  0.5690890000000 1.0
C      1  0.5472290000000  0.5833290000000  0.4638050000000 1.0
C      1  0.5039100000000  0.4521500000000  0.5289670000000 1.0
C      1  0.4939690000000  0.5321410000000  0.5595710000000 1.0
C      1  0.4977060000000  0.5903540000000  0.5283210000000 1.0
C      1  0.4631250000000  0.5226500000000  0.5367660000000 1.0
C      1  0.4303100000000  0.5349080000000  0.5597370000000 1.0
C      1  0.6169630000000  0.4899850000000  0.4626840000000 1.0
C      1  0.5694280000000  0.4947600000000  0.4742470000000 1.0
C      1  0.4487620000000  0.5082900000000  0.5647080000000 1.0
C      1  0.4634760000000  0.4188370000000  0.5359250000000 1.0
C      1  0.4827810000000  0.4932830000000  0.4922870000000 1.0
C      1  0.5314240000000  0.5204600000000  0.4151970000000 1.0
C      1  0.4957360000000  0.5796960000000  0.4446510000000 1.0
C      1  0.4761510000000  0.4375090000000  0.4316320000000 1.0
C      1  0.5962920000000  0.4839610000000  0.4800070000000 1.0
C      1  0.4739340000000  0.5775940000000  0.5466450000000 1.0
C      1  0.5105780000000  0.5066010000000  0.4783430000000 1.0
C      1  0.4586390000000  0.5120130000000  0.4879170000000 1.0
C      1  0.5364680000000  0.4215030000000  0.4401560000000 1.0
C      1  0.5565860000000  0.4572770000000  0.5065970000000 1.0
C      1  0.4771290000000  0.4810400000000  0.5543840000000 1.0
C      1  0.4950220000000  0.5175260000000  0.4522560000000 1.0
END
