TITL C-2778422-5617-71 -0.000123225245015465 125000 -513.309485838216 0 0 89 (C1) n - 1
REM
REM in /home/nfs/bkarasulu/CARBON/AIRSS/Generating-Clusters/REBO/Only-C1/SD-CG/HFTN-CG
REM
REM
REM
REM
REM
REM ./C.cell (11c1c37f851c82e70ff6c80c92926a4b)
REM
REM compiler GCC version 9.2.1 20190827 (Red Hat 9.2.1-1)
REM options -cpp -mtune=generic -march=x86-64 -g -O0 -fpre-include=/usr/include/finclude/math-vector-fortran.h
REM seed 235992973 815685514 -1611754380 1040866096 2105284063 665220373 -502144931 -71559167 585976156 43063610 -1715874892 110532843 -882891140 724748694 1112737527 -1240118111 -1410400789 -952695692 -1510956141 1828936107 571464172 1871341517 1163229055 -1682468988 -561136315 -126299448 -2069276243 322251704 306640838 -638521375 -168340981 -1424474487 -558737187
REM
CELL 1.54180   50.00000   50.00000   50.00000   90.00000   90.00000   90.00000
LATT -1
SFAC C  
C      1  0.5131490000000  0.5509240000000  0.5211510000000 1.0
C      1  0.4598960000000  0.4788620000000  0.4896930000000 1.0
C      1  0.5257520000000  0.4927800000000  0.5754960000000 1.0
C      1  0.4355590000000  0.4920030000000  0.4784970000000 1.0
C      1  0.5057450000000  0.4949710000000  0.5311680000000 1.0
C      1  0.4778170000000  0.5379940000000  0.5347150000000 1.0
C      1  0.4830750000000  0.5893690000000  0.5268980000000 1.0
C      1  0.4627010000000  0.4857900000000  0.5203170000000 1.0
C      1  0.5046850000000  0.4230650000000  0.5033010000000 1.0
C      1  0.4250060000000  0.5327340000000  0.5025340000000 1.0
C      1  0.4325760000000  0.5022860000000  0.5444690000000 1.0
C      1  0.5367860000000  0.5325060000000  0.5380830000000 1.0
C      1  0.5185800000000  0.5734020000000  0.4961330000000 1.0
C      1  0.4341570000000  0.4573760000000  0.4590300000000 1.0
C      1  0.5348470000000  0.4677850000000  0.4957410000000 1.0
C      1  0.4393570000000  0.4576290000000  0.5513810000000 1.0
C      1  0.4569220000000  0.5001910000000  0.4277470000000 1.0
C      1  0.5087300000000  0.5423620000000  0.5854870000000 1.0
C      1  0.5680790000000  0.4560830000000  0.4693790000000 1.0
C      1  0.5357370000000  0.4333630000000  0.4989400000000 1.0
C      1  0.5764050000000  0.5392860000000  0.4859660000000 1.0
C      1  0.5144510000000  0.5630040000000  0.5681310000000 1.0
C      1  0.5791880000000  0.5085400000000  0.5309190000000 1.0
C      1  0.4188620000000  0.5034620000000  0.4983030000000 1.0
C      1  0.4986940000000  0.5391460000000  0.4344590000000 1.0
C      1  0.5087550000000  0.4513920000000  0.4524710000000 1.0
C      1  0.4829320000000  0.4643750000000  0.5312820000000 1.0
C      1  0.5741330000000  0.5388430000000  0.5194640000000 1.0
C      1  0.4688480000000  0.5633970000000  0.5139400000000 1.0
C      1  0.4940990000000  0.5750070000000  0.4739660000000 1.0
C      1  0.4856210000000  0.4294040000000  0.5278590000000 1.0
C      1  0.4358100000000  0.5457690000000  0.4770340000000 1.0
C      1  0.5623130000000  0.4968520000000  0.4431810000000 1.0
C      1  0.4811930000000  0.4635560000000  0.4442000000000 1.0
C      1  0.5182570000000  0.4740730000000  0.4281840000000 1.0
C      1  0.4542840000000  0.4390040000000  0.5200130000000 1.0
C      1  0.5400480000000  0.5082660000000  0.5165560000000 1.0
C      1  0.4643800000000  0.4372830000000  0.5533680000000 1.0
C      1  0.5142570000000  0.5239270000000  0.5063280000000 1.0
C      1  0.4943420000000  0.5635190000000  0.5442120000000 1.0
C      1  0.5422980000000  0.4348460000000  0.4659710000000 1.0
C      1  0.4867670000000  0.5122380000000  0.5480630000000 1.0
C      1  0.4740470000000  0.4906740000000  0.5700860000000 1.0
C      1  0.5425410000000  0.5398470000000  0.4654820000000 1.0
C      1  0.5564620000000  0.4940710000000  0.4953780000000 1.0
C      1  0.5139920000000  0.5908100000000  0.5229180000000 1.0
C      1  0.5653200000000  0.4853450000000  0.5373020000000 1.0
C      1  0.5345520000000  0.4894020000000  0.5439250000000 1.0
C      1  0.4184390000000  0.4883540000000  0.5223580000000 1.0
C      1  0.5326840000000  0.4479040000000  0.5499300000000 1.0
C      1  0.4592360000000  0.5343010000000  0.4331880000000 1.0
C      1  0.5476790000000  0.4436490000000  0.5261500000000 1.0
C      1  0.4262440000000  0.4537710000000  0.4855900000000 1.0
C      1  0.4743560000000  0.4495910000000  0.4953860000000 1.0
C      1  0.4836140000000  0.5178850000000  0.4163010000000 1.0
C      1  0.4752780000000  0.5198500000000  0.4987820000000 1.0
C      1  0.5100860000000  0.4243370000000  0.4696960000000 1.0
C      1  0.4633250000000  0.5640140000000  0.4827430000000 1.0
C      1  0.4865120000000  0.4613680000000  0.5636160000000 1.0
C      1  0.5866560000000  0.5099020000000  0.4998410000000 1.0
C      1  0.4492910000000  0.5171340000000  0.5203020000000 1.0
C      1  0.5266330000000  0.4753380000000  0.4670300000000 1.0
C      1  0.5488650000000  0.5580280000000  0.4937000000000 1.0
C      1  0.4992890000000  0.5124250000000  0.5786080000000 1.0
C      1  0.5369440000000  0.5231480000000  0.5649670000000 1.0
C      1  0.4272390000000  0.4577190000000  0.5193700000000 1.0
C      1  0.5687370000000  0.4620770000000  0.5209740000000 1.0
C      1  0.4867430000000  0.4848320000000  0.4210470000000 1.0
C      1  0.5785270000000  0.4608200000000  0.4938720000000 1.0
C      1  0.5312090000000  0.5784720000000  0.5437360000000 1.0
C      1  0.5461580000000  0.4604890000000  0.4434930000000 1.0
C      1  0.4777680000000  0.4333100000000  0.4701180000000 1.0
C      1  0.4749740000000  0.5575750000000  0.4511130000000 1.0
C      1  0.4959070000000  0.4948070000000  0.5004890000000 1.0
C      1  0.5514400000000  0.5598790000000  0.5277870000000 1.0
C      1  0.4329940000000  0.4888260000000  0.4465090000000 1.0
C      1  0.5171010000000  0.4622370000000  0.5673860000000 1.0
C      1  0.4349550000000  0.5222770000000  0.4523680000000 1.0
C      1  0.4870800000000  0.4789960000000  0.4715490000000 1.0
C      1  0.4447560000000  0.4842170000000  0.5618740000000 1.0
C      1  0.5020600000000  0.5265540000000  0.4774810000000 1.0
C      1  0.4625300000000  0.5258870000000  0.4717060000000 1.0
C      1  0.5092430000000  0.5014220000000  0.4634940000000 1.0
C      1  0.5279430000000  0.5258070000000  0.4379310000000 1.0
C      1  0.4575470000000  0.4439310000000  0.4498120000000 1.0
C      1  0.5626080000000  0.5132370000000  0.4688510000000 1.0
C      1  0.5053240000000  0.4572100000000  0.5077020000000 1.0
C      1  0.5123260000000  0.5518330000000  0.4630510000000 1.0
C      1  0.5376980000000  0.4997740000000  0.4309790000000 1.0
END
