TITL C-2778434-4341-893 -0.000221072597355896 125000 -413.172598941288 0 0 72 (C1) n - 1
REM
REM in /home/nfs/bkarasulu/CARBON/AIRSS/Generating-Clusters/REBO/Only-C1/SD-CG/HFTN-CG
REM
REM
REM
REM
REM
REM ./C.cell (11c1c37f851c82e70ff6c80c92926a4b)
REM
REM compiler GCC version 9.2.1 20190827 (Red Hat 9.2.1-1)
REM options -cpp -mtune=generic -march=x86-64 -g -O0 -fpre-include=/usr/include/finclude/math-vector-fortran.h
REM seed -504871559 885761942 -739834539 1983944339 1188950379 1201608928 1508914735 1547915408 -1340946466 -1695300451 1858843452 1310845775 1666265664 2034787341 526117399 -759036902 -563940571 -1684612893 99813683 -880328371 -1388298654 -1245136207 1597515863 -1154865351 704164730 1023529027 -1100788124 1920190208 856928924 52787906 556907612 233164865 239748751
REM
CELL 1.54180   50.00000   50.00000   50.00000   90.00000   90.00000   90.00000
LATT -1
SFAC C  
C      1  0.4814450000000  0.4719050000000  0.4621980000000 1.0
C      1  0.4570530000000  0.4486540000000  0.4603250000000 1.0
C      1  0.4448300000000  0.4325970000000  0.5152880000000 1.0
C      1  0.4821770000000  0.5500310000000  0.4570940000000 1.0
C      1  0.4849550000000  0.5397560000000  0.5227420000000 1.0
C      1  0.5803110000000  0.6032330000000  0.5033180000000 1.0
C      1  0.5697340000000  0.5556420000000  0.5012420000000 1.0
C      1  0.5391740000000  0.5194130000000  0.5585500000000 1.0
C      1  0.5519840000000  0.5283150000000  0.5096660000000 1.0
C      1  0.4236820000000  0.4741270000000  0.5251750000000 1.0
C      1  0.4259610000000  0.5063970000000  0.4553800000000 1.0
C      1  0.4600700000000  0.4768150000000  0.4884800000000 1.0
C      1  0.4655700000000  0.5010960000000  0.4649850000000 1.0
C      1  0.5634200000000  0.4959100000000  0.4522250000000 1.0
C      1  0.5060460000000  0.5023080000000  0.5748620000000 1.0
C      1  0.5090450000000  0.5067430000000  0.4280400000000 1.0
C      1  0.5407470000000  0.5855950000000  0.4806130000000 1.0
C      1  0.5765540000000  0.4832310000000  0.5306330000000 1.0
C      1  0.4246100000000  0.4511050000000  0.5067620000000 1.0
C      1  0.5098440000000  0.5350490000000  0.5654210000000 1.0
C      1  0.5266770000000  0.4967720000000  0.4677380000000 1.0
C      1  0.4349020000000  0.5053690000000  0.5232170000000 1.0
C      1  0.4874900000000  0.4960720000000  0.5290790000000 1.0
C      1  0.4695320000000  0.5714120000000  0.4699130000000 1.0
C      1  0.5393990000000  0.4839720000000  0.5444350000000 1.0
C      1  0.4785680000000  0.4368070000000  0.4809510000000 1.0
C      1  0.5407080000000  0.4709440000000  0.4501160000000 1.0
C      1  0.4778520000000  0.5766820000000  0.5355550000000 1.0
C      1  0.4525130000000  0.4742430000000  0.5717130000000 1.0
C      1  0.5134730000000  0.5162780000000  0.5363150000000 1.0
C      1  0.5107870000000  0.5522220000000  0.4540320000000 1.0
C      1  0.4366520000000  0.5262490000000  0.5010690000000 1.0
C      1  0.4505240000000  0.4626630000000  0.5409950000000 1.0
C      1  0.4792950000000  0.5246960000000  0.4745480000000 1.0
C      1  0.5199550000000  0.5674200000000  0.4764060000000 1.0
C      1  0.5518180000000  0.4446250000000  0.4911060000000 1.0
C      1  0.5547790000000  0.5223810000000  0.4553960000000 1.0
C      1  0.4424960000000  0.4788940000000  0.4528970000000 1.0
C      1  0.4639860000000  0.5388790000000  0.4980220000000 1.0
C      1  0.5171110000000  0.4413910000000  0.5302970000000 1.0
C      1  0.4904960000000  0.4570830000000  0.5209400000000 1.0
C      1  0.5213360000000  0.5295210000000  0.5099530000000 1.0
C      1  0.5246310000000  0.4401620000000  0.4991110000000 1.0
C      1  0.5670750000000  0.4681390000000  0.5071790000000 1.0
C      1  0.4554860000000  0.5029770000000  0.5689280000000 1.0
C      1  0.4715030000000  0.4399830000000  0.5082640000000 1.0
C      1  0.5681530000000  0.4692380000000  0.5561030000000 1.0
C      1  0.4737730000000  0.5716930000000  0.5026820000000 1.0
C      1  0.4655240000000  0.4590090000000  0.3924460000000 1.0
C      1  0.5363630000000  0.4810620000000  0.4963580000000 1.0
C      1  0.4993980000000  0.4814120000000  0.4278000000000 1.0
C      1  0.5043870000000  0.4543320000000  0.5581720000000 1.0
C      1  0.4820110000000  0.4699130000000  0.4096530000000 1.0
C      1  0.4316480000000  0.4601110000000  0.4791000000000 1.0
C      1  0.5161390000000  0.4799060000000  0.5201290000000 1.0
C      1  0.5553720000000  0.4467350000000  0.4637500000000 1.0
C      1  0.4233970000000  0.5216250000000  0.4777370000000 1.0
C      1  0.4354050000000  0.5157180000000  0.5527730000000 1.0
C      1  0.5054920000000  0.4433290000000  0.4767280000000 1.0
C      1  0.4613400000000  0.4846860000000  0.5177290000000 1.0
C      1  0.4890330000000  0.5525650000000  0.5501040000000 1.0
C      1  0.4817290000000  0.5076010000000  0.5588470000000 1.0
C      1  0.4762130000000  0.4544660000000  0.5612750000000 1.0
C      1  0.5049040000000  0.5570830000000  0.5008790000000 1.0
C      1  0.5077510000000  0.5172140000000  0.4839720000000 1.0
C      1  0.5589810000000  0.5105900000000  0.5331800000000 1.0
C      1  0.5636430000000  0.5343590000000  0.4786660000000 1.0
C      1  0.5242930000000  0.5256280000000  0.4485700000000 1.0
C      1  0.5656210000000  0.4829940000000  0.4785980000000 1.0
C      1  0.5645830000000  0.5825560000000  0.4955620000000 1.0
C      1  0.5183150000000  0.4785260000000  0.5660630000000 1.0
C      1  0.5102740000000  0.4638910000000  0.4519490000000 1.0
END
