TITL C-2778425-5191-1286 0.000776773410107151 125000 -970.910298243488 0 0 167 (C1) n - 1
REM
REM in /home/nfs/bkarasulu/CARBON/AIRSS/Generating-Clusters/REBO/Only-C1/SD-CG/HFTN-CG
REM
REM
REM
REM
REM
REM ./C.cell (11c1c37f851c82e70ff6c80c92926a4b)
REM
REM compiler GCC version 9.2.1 20190827 (Red Hat 9.2.1-1)
REM options -cpp -mtune=generic -march=x86-64 -g -O0 -fpre-include=/usr/include/finclude/math-vector-fortran.h
REM seed 336998198 537781962 -1575218933 -1605219847 -699142710 -25258688 -516743245 -231890139 -1335361993 -966369283 -90434680 -214475626 -624158234 689940866 209456719 1574801108 322290395 1644668204 -1029449452 -1029056460 -629253009 1415644253 1009066609 1309376838 13369518 -17941527 -527173934 -906241359 1906618413 -1501344621 41800948 -1641543926 122068606
REM
CELL 1.54180   50.00000   50.00000   50.00000   90.00000   90.00000   90.00000
LATT -1
SFAC C  
C      1  0.4950820000000  0.4422080000000  0.5243110000000 1.0
C      1  0.5753290000000  0.4550770000000  0.4730510000000 1.0
C      1  0.5232120000000  0.5715370000000  0.5174720000000 1.0
C      1  0.4592750000000  0.5797580000000  0.4121090000000 1.0
C      1  0.5591120000000  0.4607370000000  0.5693650000000 1.0
C      1  0.5279110000000  0.4595370000000  0.4649540000000 1.0
C      1  0.4808660000000  0.4126550000000  0.5143830000000 1.0
C      1  0.5730970000000  0.5603410000000  0.4450260000000 1.0
C      1  0.5441960000000  0.5971200000000  0.5256670000000 1.0
C      1  0.4871230000000  0.5736470000000  0.4749400000000 1.0
C      1  0.5686480000000  0.5893970000000  0.4496350000000 1.0
C      1  0.4014460000000  0.4879240000000  0.5428660000000 1.0
C      1  0.4129270000000  0.4525000000000  0.4502700000000 1.0
C      1  0.5466280000000  0.4540360000000  0.4839920000000 1.0
C      1  0.4978390000000  0.4053930000000  0.5396830000000 1.0
C      1  0.4534430000000  0.4826560000000  0.5013330000000 1.0
C      1  0.4999740000000  0.5746040000000  0.5645480000000 1.0
C      1  0.5399140000000  0.4804300000000  0.5810790000000 1.0
C      1  0.5036730000000  0.4838810000000  0.3957920000000 1.0
C      1  0.5774650000000  0.5645630000000  0.4952570000000 1.0
C      1  0.4026130000000  0.4663930000000  0.4863020000000 1.0
C      1  0.6018690000000  0.5137830000000  0.5173760000000 1.0
C      1  0.4088860000000  0.5027110000000  0.4384950000000 1.0
C      1  0.4089870000000  0.5506860000000  0.4995330000000 1.0
C      1  0.5305960000000  0.5242640000000  0.6007730000000 1.0
C      1  0.5317900000000  0.5626690000000  0.5625560000000 1.0
C      1  0.5577420000000  0.5466570000000  0.5513500000000 1.0
C      1  0.5722980000000  0.5609860000000  0.6112170000000 1.0
C      1  0.5843990000000  0.4852860000000  0.4747130000000 1.0
C      1  0.5275170000000  0.5070550000000  0.5648130000000 1.0
C      1  0.4079190000000  0.5041500000000  0.4979500000000 1.0
C      1  0.5420020000000  0.5173890000000  0.4550490000000 1.0
C      1  0.4467960000000  0.5127590000000  0.5836470000000 1.0
C      1  0.5760410000000  0.5326440000000  0.4932150000000 1.0
C      1  0.4581830000000  0.5413000000000  0.5150900000000 1.0
C      1  0.5012850000000  0.4507290000000  0.4366220000000 1.0
C      1  0.4293180000000  0.5069940000000  0.5481600000000 1.0
C      1  0.4839970000000  0.5477340000000  0.5351400000000 1.0
C      1  0.5783420000000  0.5192860000000  0.5737740000000 1.0
C      1  0.3995220000000  0.5275480000000  0.5120540000000 1.0
C      1  0.4924070000000  0.4193230000000  0.5649290000000 1.0
C      1  0.5597290000000  0.4311160000000  0.4540030000000 1.0
C      1  0.4420980000000  0.4586050000000  0.5357530000000 1.0
C      1  0.5051750000000  0.5936890000000  0.4897020000000 1.0
C      1  0.5251430000000  0.4733060000000  0.5274430000000 1.0
C      1  0.4680340000000  0.4724110000000  0.5930960000000 1.0
C      1  0.3800430000000  0.4746200000000  0.5387430000000 1.0
C      1  0.5225080000000  0.4163850000000  0.4824690000000 1.0
C      1  0.5864080000000  0.4334780000000  0.5148680000000 1.0
C      1  0.5877840000000  0.5751410000000  0.5178460000000 1.0
C      1  0.4934840000000  0.4848730000000  0.5994080000000 1.0
C      1  0.5714970000000  0.4781430000000  0.4375530000000 1.0
C      1  0.4160960000000  0.4731680000000  0.4277030000000 1.0
C      1  0.4910250000000  0.4770580000000  0.4222750000000 1.0
C      1  0.4833410000000  0.5044360000000  0.4411590000000 1.0
C      1  0.5443830000000  0.4627050000000  0.4078790000000 1.0
C      1  0.5847460000000  0.5618450000000  0.5409320000000 1.0
C      1  0.5266290000000  0.4969100000000  0.3898690000000 1.0
C      1  0.4308770000000  0.5606910000000  0.5140930000000 1.0
C      1  0.4470210000000  0.5677850000000  0.5570170000000 1.0
C      1  0.4348250000000  0.4116630000000  0.4825280000000 1.0
C      1  0.4364820000000  0.4798040000000  0.5597560000000 1.0
C      1  0.4731250000000  0.5775570000000  0.5444290000000 1.0
C      1  0.4050230000000  0.5270240000000  0.5401160000000 1.0
C      1  0.4574510000000  0.4983290000000  0.4205320000000 1.0
C      1  0.4785030000000  0.4095390000000  0.4658350000000 1.0
C      1  0.4263890000000  0.5725030000000  0.5395420000000 1.0
C      1  0.4947800000000  0.4028880000000  0.4891390000000 1.0
C      1  0.4288750000000  0.5202760000000  0.4598360000000 1.0
C      1  0.5249780000000  0.4021360000000  0.5322380000000 1.0
C      1  0.5029510000000  0.4418760000000  0.4909470000000 1.0
C      1  0.5133540000000  0.5942720000000  0.5405470000000 1.0
C      1  0.4953000000000  0.6028220000000  0.5152700000000 1.0
C      1  0.5518200000000  0.5020760000000  0.5173450000000 1.0
C      1  0.5467030000000  0.4506010000000  0.5142030000000 1.0
C      1  0.5134030000000  0.4986210000000  0.5386030000000 1.0
C      1  0.4663190000000  0.4542960000000  0.5672870000000 1.0
C      1  0.5519510000000  0.5435530000000  0.4743170000000 1.0
C      1  0.5981840000000  0.4812580000000  0.5274070000000 1.0
C      1  0.5955610000000  0.4547150000000  0.4977480000000 1.0
C      1  0.6128370000000  0.5215210000000  0.4547160000000 1.0
C      1  0.4171100000000  0.4544250000000  0.5680900000000 1.0
C      1  0.5897330000000  0.4663990000000  0.5563360000000 1.0
C      1  0.4185410000000  0.5550560000000  0.4319380000000 1.0
C      1  0.5638900000000  0.5289720000000  0.4186350000000 1.0
C      1  0.4561000000000  0.5878720000000  0.4957190000000 1.0
C      1  0.4494340000000  0.4312480000000  0.5639150000000 1.0
C      1  0.4598380000000  0.4317690000000  0.4793350000000 1.0
C      1  0.5735150000000  0.4128550000000  0.4997030000000 1.0
C      1  0.5500670000000  0.5856930000000  0.5536730000000 1.0
C      1  0.4847670000000  0.4489610000000  0.4663510000000 1.0
C      1  0.4425620000000  0.4128330000000  0.4488080000000 1.0
C      1  0.4834640000000  0.5360440000000  0.6014990000000 1.0
C      1  0.5492570000000  0.4953870000000  0.4344820000000 1.0
C      1  0.4266940000000  0.4867870000000  0.5119330000000 1.0
C      1  0.4871780000000  0.5603440000000  0.5896910000000 1.0
C      1  0.5648420000000  0.4741800000000  0.5262880000000 1.0
C      1  0.5003050000000  0.5129180000000  0.6033230000000 1.0
C      1  0.4500750000000  0.4126610000000  0.5129050000000 1.0
C      1  0.4763860000000  0.4471840000000  0.3926390000000 1.0
C      1  0.4589100000000  0.4469970000000  0.4139040000000 1.0
C      1  0.4021630000000  0.4924070000000  0.4702670000000 1.0
C      1  0.5362740000000  0.5905640000000  0.4930780000000 1.0
C      1  0.4051000000000  0.4442730000000  0.5458530000000 1.0
C      1  0.5473460000000  0.5064890000000  0.4058060000000 1.0
C      1  0.3948090000000  0.5615460000000  0.4480280000000 1.0
C      1  0.4968020000000  0.5101030000000  0.4871790000000 1.0
C      1  0.5537750000000  0.4146340000000  0.4810990000000 1.0
C      1  0.4124540000000  0.5473810000000  0.4706910000000 1.0
C      1  0.4754570000000  0.4646630000000  0.5380940000000 1.0
C      1  0.4515120000000  0.5397610000000  0.5643310000000 1.0
C      1  0.4133850000000  0.4573500000000  0.5170950000000 1.0
C      1  0.4829670000000  0.4956160000000  0.5356300000000 1.0
C      1  0.4479720000000  0.5244000000000  0.4097700000000 1.0
C      1  0.5481340000000  0.4391450000000  0.5524730000000 1.0
C      1  0.5188280000000  0.4383990000000  0.5479220000000 1.0
C      1  0.5500800000000  0.5180460000000  0.5455770000000 1.0
C      1  0.4152310000000  0.4253870000000  0.4580650000000 1.0
C      1  0.4725620000000  0.4741820000000  0.4509610000000 1.0
C      1  0.5729050000000  0.4514010000000  0.4334160000000 1.0
C      1  0.5936570000000  0.5479770000000  0.4610020000000 1.0
C      1  0.5101440000000  0.5461920000000  0.5200150000000 1.0
C      1  0.5435150000000  0.5462830000000  0.4371480000000 1.0
C      1  0.5224480000000  0.5195710000000  0.5166050000000 1.0
C      1  0.4458330000000  0.4955100000000  0.4516280000000 1.0
C      1  0.4390140000000  0.4256550000000  0.5357330000000 1.0
C      1  0.4346950000000  0.4690650000000  0.4626360000000 1.0
C      1  0.4582440000000  0.5870960000000  0.4627710000000 1.0
C      1  0.4952930000000  0.5506820000000  0.4110320000000 1.0
C      1  0.5329460000000  0.4520260000000  0.4329670000000 1.0
C      1  0.5291340000000  0.5092860000000  0.4854660000000 1.0
C      1  0.4507230000000  0.4606640000000  0.4834700000000 1.0
C      1  0.4685630000000  0.5953500000000  0.5195640000000 1.0
C      1  0.4457070000000  0.5716190000000  0.4378470000000 1.0
C      1  0.5141340000000  0.4676140000000  0.5904360000000 1.0
C      1  0.5137610000000  0.4689430000000  0.5011650000000 1.0
C      1  0.4723500000000  0.5073300000000  0.5741300000000 1.0
C      1  0.4222920000000  0.5291380000000  0.4215010000000 1.0
C      1  0.5883070000000  0.5294490000000  0.5428720000000 1.0
C      1  0.5624190000000  0.5362710000000  0.5985960000000 1.0
C      1  0.5626610000000  0.5044830000000  0.4867460000000 1.0
C      1  0.5712290000000  0.4947560000000  0.5529480000000 1.0
C      1  0.5771080000000  0.4392430000000  0.5412210000000 1.0
C      1  0.5392060000000  0.4205120000000  0.5185280000000 1.0
C      1  0.5889900000000  0.5228640000000  0.4302350000000 1.0
C      1  0.4775760000000  0.4982480000000  0.5043950000000 1.0
C      1  0.4604900000000  0.5561410000000  0.4873610000000 1.0
C      1  0.4424410000000  0.4708820000000  0.4167400000000 1.0
C      1  0.4621600000000  0.4246060000000  0.4325500000000 1.0
C      1  0.4985830000000  0.5499470000000  0.4579620000000 1.0
C      1  0.4707360000000  0.5866340000000  0.3903690000000 1.0
C      1  0.5550400000000  0.5039890000000  0.5935180000000 1.0
C      1  0.4371750000000  0.4682930000000  0.5906090000000 1.0
C      1  0.5130830000000  0.5532250000000  0.4333730000000 1.0
C      1  0.4576170000000  0.5180960000000  0.5385590000000 1.0
C      1  0.5555890000000  0.5770650000000  0.4767350000000 1.0
C      1  0.4436960000000  0.5496600000000  0.4629630000000 1.0
C      1  0.5149380000000  0.5359320000000  0.5740640000000 1.0
C      1  0.5058870000000  0.4446710000000  0.5773530000000 1.0
C      1  0.4893550000000  0.5233850000000  0.4626960000000 1.0
C      1  0.6069220000000  0.5288660000000  0.4869870000000 1.0
C      1  0.4698920000000  0.5420050000000  0.4042680000000 1.0
C      1  0.4940860000000  0.4187390000000  0.4405170000000 1.0
C      1  0.4871020000000  0.5315910000000  0.5619300000000 1.0
C      1  0.5267880000000  0.4227730000000  0.4494180000000 1.0
C      1  0.5960850000000  0.4946760000000  0.4471320000000 1.0
C      1  0.6074640000000  0.4866220000000  0.4971010000000 1.0
END
