TITL C-2778429-3646-254 0.00631271941093502 125000 -1083.40505938385 0 0 187 (C1) n - 1
REM
REM in /home/nfs/bkarasulu/CARBON/AIRSS/Generating-Clusters/REBO/Only-C1/SD-CG/HFTN-CG
REM
REM
REM
REM
REM
REM ./C.cell (11c1c37f851c82e70ff6c80c92926a4b)
REM
REM compiler GCC version 9.2.1 20190827 (Red Hat 9.2.1-1)
REM options -cpp -mtune=generic -march=x86-64 -g -O0 -fpre-include=/usr/include/finclude/math-vector-fortran.h
REM seed 1405234727 34128823 338562634 350911208 108008595 662848529 -2140174607 1738580849 -384532343 -288855499 -2145756538 -551774024 1525826951 1791194057 154086413 -927186400 302587815 1010032761 -173799650 1182067297 660342695 1068667587 1811093862 -1139560906 1173882773 -3178372 -519730861 -647685703 -1839170553 -1558795803 1698394757 1032903834 -1432164444
REM
CELL 1.54180   50.00000   50.00000   50.00000   90.00000   90.00000   90.00000
LATT -1
SFAC C  
C      1  0.4944910000000  0.5355690000000  0.5492660000000 1.0
C      1  0.5090960000000  0.5911220000000  0.5819810000000 1.0
C      1  0.6254590000000  0.5447860000000  0.4908390000000 1.0
C      1  0.5677040000000  0.4401520000000  0.5059710000000 1.0
C      1  0.4394410000000  0.5818090000000  0.4949530000000 1.0
C      1  0.4362400000000  0.4597040000000  0.4547630000000 1.0
C      1  0.4985690000000  0.5900720000000  0.4276440000000 1.0
C      1  0.5014180000000  0.4755450000000  0.4848710000000 1.0
C      1  0.4564950000000  0.4941750000000  0.4559630000000 1.0
C      1  0.4735460000000  0.5226280000000  0.4088980000000 1.0
C      1  0.5963140000000  0.5137890000000  0.4447010000000 1.0
C      1  0.5460750000000  0.5480870000000  0.4988860000000 1.0
C      1  0.5324060000000  0.4181160000000  0.5600230000000 1.0
C      1  0.5481230000000  0.5775530000000  0.5257030000000 1.0
C      1  0.4295110000000  0.4231720000000  0.4695040000000 1.0
C      1  0.5441140000000  0.4921010000000  0.4064390000000 1.0
C      1  0.4813920000000  0.5006440000000  0.4754360000000 1.0
C      1  0.4779640000000  0.5035910000000  0.5752760000000 1.0
C      1  0.5600930000000  0.4069060000000  0.5054090000000 1.0
C      1  0.4830860000000  0.4536900000000  0.4920480000000 1.0
C      1  0.4842630000000  0.5390250000000  0.5114340000000 1.0
C      1  0.5217610000000  0.4618750000000  0.5857060000000 1.0
C      1  0.5169390000000  0.5177850000000  0.5344390000000 1.0
C      1  0.5716260000000  0.5030350000000  0.4974010000000 1.0
C      1  0.4951130000000  0.4220170000000  0.4965420000000 1.0
C      1  0.4623590000000  0.4440570000000  0.5916200000000 1.0
C      1  0.4764160000000  0.4124770000000  0.4476580000000 1.0
C      1  0.4993630000000  0.5051360000000  0.3949800000000 1.0
C      1  0.4432130000000  0.4396830000000  0.4277480000000 1.0
C      1  0.5093920000000  0.5332150000000  0.3944240000000 1.0
C      1  0.4869180000000  0.4573690000000  0.3932650000000 1.0
C      1  0.5212830000000  0.5553040000000  0.4760780000000 1.0
C      1  0.5693520000000  0.5931210000000  0.5078540000000 1.0
C      1  0.5316100000000  0.4869430000000  0.6058670000000 1.0
C      1  0.5917910000000  0.5241900000000  0.4925590000000 1.0
C      1  0.4205270000000  0.5316750000000  0.4374700000000 1.0
C      1  0.5727690000000  0.5018220000000  0.5747730000000 1.0
C      1  0.5393290000000  0.4629100000000  0.3895540000000 1.0
C      1  0.4725920000000  0.5246710000000  0.6000470000000 1.0
C      1  0.4994710000000  0.4292720000000  0.4652800000000 1.0
C      1  0.5028030000000  0.4299670000000  0.5720410000000 1.0
C      1  0.5290440000000  0.5970490000000  0.4747830000000 1.0
C      1  0.4121500000000  0.5005070000000  0.5473730000000 1.0
C      1  0.4826370000000  0.6042370000000  0.4537320000000 1.0
C      1  0.5434330000000  0.4389320000000  0.4078420000000 1.0
C      1  0.4917240000000  0.4334250000000  0.4087330000000 1.0
C      1  0.4518950000000  0.5334580000000  0.5802600000000 1.0
C      1  0.4212130000000  0.4456340000000  0.5453400000000 1.0
C      1  0.4928770000000  0.4981500000000  0.4337730000000 1.0
C      1  0.4579320000000  0.5363580000000  0.4915670000000 1.0
C      1  0.5861890000000  0.5335710000000  0.5367660000000 1.0
C      1  0.5471910000000  0.5252980000000  0.4755870000000 1.0
C      1  0.4799490000000  0.4520980000000  0.4509290000000 1.0
C      1  0.4761550000000  0.5648720000000  0.4827530000000 1.0
C      1  0.4343590000000  0.5341910000000  0.4126740000000 1.0
C      1  0.4636970000000  0.5349710000000  0.4392320000000 1.0
C      1  0.4948910000000  0.5836600000000  0.4972700000000 1.0
C      1  0.5280370000000  0.4475940000000  0.5152570000000 1.0
C      1  0.6094730000000  0.5263920000000  0.4686920000000 1.0
C      1  0.5241870000000  0.4031380000000  0.4481910000000 1.0
C      1  0.4867740000000  0.5752890000000  0.5918050000000 1.0
C      1  0.4790930000000  0.5067910000000  0.5071610000000 1.0
C      1  0.4703050000000  0.4966520000000  0.6138570000000 1.0
C      1  0.4959810000000  0.5451540000000  0.6048050000000 1.0
C      1  0.4808730000000  0.4565660000000  0.5409760000000 1.0
C      1  0.6098510000000  0.4639130000000  0.5287860000000 1.0
C      1  0.4840400000000  0.5532150000000  0.3979600000000 1.0
C      1  0.4120760000000  0.4762400000000  0.4369920000000 1.0
C      1  0.5173450000000  0.5178020000000  0.5058990000000 1.0
C      1  0.5891800000000  0.6094650000000  0.5101120000000 1.0
C      1  0.3846310000000  0.4818760000000  0.5078150000000 1.0
C      1  0.5274940000000  0.5474970000000  0.5919870000000 1.0
C      1  0.4436090000000  0.4101280000000  0.5134050000000 1.0
C      1  0.4502870000000  0.6064320000000  0.5511840000000 1.0
C      1  0.5515700000000  0.5751400000000  0.5569120000000 1.0
C      1  0.5203280000000  0.4078960000000  0.5082100000000 1.0
C      1  0.5527910000000  0.5775720000000  0.4860080000000 1.0
C      1  0.4990680000000  0.6124480000000  0.4797880000000 1.0
C      1  0.4448500000000  0.4869290000000  0.6148270000000 1.0
C      1  0.4828870000000  0.5834120000000  0.5528480000000 1.0
C      1  0.4636800000000  0.5310540000000  0.5500600000000 1.0
C      1  0.6096890000000  0.4684060000000  0.5018310000000 1.0
C      1  0.4248440000000  0.4871440000000  0.5952810000000 1.0
C      1  0.4094970000000  0.4738830000000  0.4708470000000 1.0
C      1  0.4245380000000  0.4571970000000  0.5161020000000 1.0
C      1  0.5060860000000  0.5792330000000  0.4592470000000 1.0
C      1  0.5720300000000  0.4884430000000  0.4708050000000 1.0
C      1  0.4147230000000  0.5026200000000  0.4835060000000 1.0
C      1  0.4395460000000  0.5116520000000  0.5044590000000 1.0
C      1  0.5294080000000  0.4724800000000  0.4961610000000 1.0
C      1  0.4635300000000  0.4323170000000  0.5314850000000 1.0
C      1  0.4653270000000  0.4662840000000  0.5694750000000 1.0
C      1  0.4531770000000  0.6034310000000  0.5170670000000 1.0
C      1  0.5598670000000  0.5512900000000  0.4364540000000 1.0
C      1  0.4359600000000  0.4827140000000  0.5644300000000 1.0
C      1  0.4954690000000  0.5624590000000  0.5323100000000 1.0
C      1  0.4971290000000  0.4783240000000  0.5705310000000 1.0
C      1  0.5481930000000  0.5139550000000  0.5754060000000 1.0
C      1  0.6039130000000  0.5391730000000  0.5154450000000 1.0
C      1  0.6003420000000  0.4821520000000  0.4436440000000 1.0
C      1  0.4696710000000  0.4844630000000  0.5272960000000 1.0
C      1  0.5391460000000  0.4932420000000  0.5424100000000 1.0
C      1  0.5906020000000  0.4402200000000  0.4674750000000 1.0
C      1  0.5197020000000  0.5796180000000  0.5183870000000 1.0
C      1  0.5062780000000  0.4748160000000  0.4523570000000 1.0
C      1  0.4598800000000  0.4308500000000  0.4688950000000 1.0
C      1  0.5976090000000  0.4719830000000  0.5526870000000 1.0
C      1  0.5144990000000  0.3963000000000  0.5398260000000 1.0
C      1  0.4681980000000  0.4260810000000  0.4229470000000 1.0
C      1  0.4727390000000  0.3991280000000  0.4995100000000 1.0
C      1  0.4978900000000  0.4817960000000  0.6103400000000 1.0
C      1  0.4411190000000  0.4279850000000  0.5529300000000 1.0
C      1  0.5292750000000  0.4340680000000  0.4585750000000 1.0
C      1  0.5273670000000  0.5006400000000  0.4631060000000 1.0
C      1  0.3997560000000  0.4564040000000  0.4947980000000 1.0
C      1  0.5073320000000  0.5212320000000  0.4353510000000 1.0
C      1  0.5091450000000  0.4769990000000  0.3956080000000 1.0
C      1  0.5831040000000  0.5394380000000  0.4275890000000 1.0
C      1  0.5736110000000  0.4582910000000  0.5650860000000 1.0
C      1  0.5534990000000  0.4648990000000  0.5917300000000 1.0
C      1  0.4935770000000  0.4500480000000  0.5982610000000 1.0
C      1  0.5422530000000  0.4219090000000  0.5302510000000 1.0
C      1  0.5676330000000  0.4471110000000  0.4257980000000 1.0
C      1  0.4308900000000  0.5113140000000  0.4589350000000 1.0
C      1  0.4052320000000  0.5312080000000  0.4992990000000 1.0
C      1  0.5200550000000  0.4235480000000  0.4207140000000 1.0
C      1  0.5525250000000  0.4341980000000  0.5767240000000 1.0
C      1  0.5380500000000  0.4015560000000  0.4796900000000 1.0
C      1  0.4650170000000  0.5839020000000  0.4327470000000 1.0
C      1  0.5248140000000  0.4710400000000  0.4251990000000 1.0
C      1  0.4836640000000  0.3799820000000  0.4815580000000 1.0
C      1  0.4557610000000  0.4202510000000  0.5765810000000 1.0
C      1  0.5331530000000  0.5762850000000  0.5808300000000 1.0
C      1  0.4455160000000  0.4781920000000  0.5061770000000 1.0
C      1  0.4805310000000  0.6125830000000  0.5077450000000 1.0
C      1  0.4954330000000  0.3900880000000  0.4583460000000 1.0
C      1  0.5024410000000  0.6085750000000  0.5582120000000 1.0
C      1  0.4863420000000  0.5446380000000  0.4598500000000 1.0
C      1  0.5564640000000  0.5451770000000  0.5313180000000 1.0
C      1  0.5664540000000  0.4606380000000  0.5252140000000 1.0
C      1  0.5122630000000  0.4492380000000  0.5453850000000 1.0
C      1  0.5405200000000  0.4351990000000  0.4871230000000 1.0
C      1  0.4750880000000  0.4738910000000  0.4275670000000 1.0
C      1  0.5045530000000  0.6067100000000  0.5284030000000 1.0
C      1  0.4556630000000  0.5770500000000  0.5364660000000 1.0
C      1  0.4808670000000  0.4080740000000  0.5694940000000 1.0
C      1  0.4129110000000  0.5430640000000  0.4683680000000 1.0
C      1  0.4580020000000  0.5838820000000  0.5757660000000 1.0
C      1  0.4244180000000  0.5362360000000  0.5612260000000 1.0
C      1  0.4031450000000  0.4995230000000  0.5791360000000 1.0
C      1  0.5412010000000  0.4974570000000  0.5101050000000 1.0
C      1  0.5970190000000  0.4677330000000  0.4728100000000 1.0
C      1  0.4190000000000  0.4284590000000  0.4982010000000 1.0
C      1  0.5454070000000  0.5767490000000  0.4526060000000 1.0
C      1  0.5428610000000  0.4554680000000  0.4441490000000 1.0
C      1  0.3960940000000  0.5048640000000  0.5188020000000 1.0
C      1  0.4381470000000  0.4886430000000  0.4276520000000 1.0
C      1  0.4476840000000  0.5047470000000  0.4019810000000 1.0
C      1  0.5776990000000  0.4866820000000  0.5219660000000 1.0
C      1  0.4617990000000  0.4738460000000  0.3996010000000 1.0
C      1  0.4464030000000  0.5508220000000  0.5314950000000 1.0
C      1  0.5469490000000  0.5427850000000  0.5640480000000 1.0
C      1  0.5105150000000  0.5134770000000  0.6041980000000 1.0
C      1  0.4580260000000  0.4360970000000  0.4999520000000 1.0
C      1  0.5881640000000  0.5042470000000  0.5475340000000 1.0
C      1  0.5453670000000  0.4739420000000  0.4677470000000 1.0
C      1  0.5319150000000  0.5378700000000  0.4494240000000 1.0
C      1  0.4581490000000  0.5004240000000  0.5503010000000 1.0
C      1  0.5897170000000  0.4648180000000  0.4248200000000 1.0
C      1  0.4906860000000  0.3889090000000  0.5512090000000 1.0
C      1  0.4372480000000  0.5625900000000  0.5784860000000 1.0
C      1  0.5323420000000  0.5402350000000  0.4098110000000 1.0
C      1  0.5065740000000  0.5236660000000  0.4767790000000 1.0
C      1  0.4214850000000  0.4245430000000  0.4430960000000 1.0
C      1  0.5260430000000  0.5696710000000  0.4261410000000 1.0
C      1  0.4573480000000  0.5585700000000  0.4153920000000 1.0
C      1  0.5104700000000  0.5267580000000  0.5728190000000 1.0
C      1  0.4524790000000  0.5800170000000  0.4635840000000 1.0
C      1  0.4566490000000  0.4694730000000  0.4783000000000 1.0
C      1  0.5625020000000  0.5121530000000  0.4479570000000 1.0
C      1  0.4987440000000  0.5507520000000  0.4286310000000 1.0
C      1  0.5213560000000  0.4978660000000  0.5687800000000 1.0
C      1  0.4453890000000  0.5478520000000  0.4642660000000 1.0
C      1  0.5436760000000  0.4619330000000  0.5488620000000 1.0
C      1  0.5481940000000  0.5169270000000  0.4196640000000 1.0
C      1  0.4261590000000  0.5557860000000  0.5063740000000 1.0
C      1  0.4294420000000  0.5226800000000  0.5312250000000 1.0
END
