TITL C-2778428-5639-630 -0.00256643528342343 125000 -91.3273105592226 0 0 17 (Cs) n - 1
REM
REM in /home/nfs/bkarasulu/CARBON/AIRSS/Generating-Clusters/REBO/Only-C1/SD-CG/HFTN-CG
REM
REM
REM
REM
REM
REM ./C.cell (11c1c37f851c82e70ff6c80c92926a4b)
REM
REM compiler GCC version 9.2.1 20190827 (Red Hat 9.2.1-1)
REM options -cpp -mtune=generic -march=x86-64 -g -O0 -fpre-include=/usr/include/finclude/math-vector-fortran.h
REM seed 1212981915 -1444854590 1678026324 1308493095 -534762172 19883477 976797976 -1311446259 901329596 1114882053 1670636479 1249659063 1908900283 -935401303 -538255167 800909490 364970705 1653439123 -13906958 -1991639928 548356041 -702186993 -992950185 361530696 1391545610 -1857115488 -145382754 -2005782625 971900341 490971901 1840664442 446666991 1598059399
REM
CELL 1.54180   50.00000   50.00000   50.00000   90.00000   90.00000   90.00000
LATT -1
SFAC C  
C      1  0.4692600000000  0.4454170000000  0.4969460000000 1.0
C      1  0.4265100000000  0.4665180000000  0.4663520000000 1.0
C      1  0.5539630000000  0.5116700000000  0.5282160000000 1.0
C      1  0.4490180000000  0.5097510000000  0.4677010000000 1.0
C      1  0.5147450000000  0.4823460000000  0.5133710000000 1.0
C      1  0.5295490000000  0.5802900000000  0.4953790000000 1.0
C      1  0.5768130000000  0.5145390000000  0.5407250000000 1.0
C      1  0.4694760000000  0.5265770000000  0.4750290000000 1.0
C      1  0.5150690000000  0.5286100000000  0.5009940000000 1.0
C      1  0.5299480000000  0.5086540000000  0.5150670000000 1.0
C      1  0.4691270000000  0.4717080000000  0.4897280000000 1.0
C      1  0.5301800000000  0.4519240000000  0.5126480000000 1.0
C      1  0.5153840000000  0.4588340000000  0.5380900000000 1.0
C      1  0.5225170000000  0.5551920000000  0.4981060000000 1.0
C      1  0.4911340000000  0.5168930000000  0.4902560000000 1.0
C      1  0.4473260000000  0.4821520000000  0.4742120000000 1.0
C      1  0.4899800000000  0.4889260000000  0.4971800000000 1.0
END
