TITL C-2778436-5916-221 -0.000128440365321718 125000 -423.100954615912 0 0 72 (C1) n - 1
REM
REM in /home/nfs/bkarasulu/CARBON/AIRSS/Generating-Clusters/REBO/Only-C1/SD-CG/HFTN-CG
REM
REM
REM
REM
REM
REM ./C.cell (11c1c37f851c82e70ff6c80c92926a4b)
REM
REM compiler GCC version 9.2.1 20190827 (Red Hat 9.2.1-1)
REM options -cpp -mtune=generic -march=x86-64 -g -O0 -fpre-include=/usr/include/finclude/math-vector-fortran.h
REM seed 862557148 -265846500 -532768657 795158640 -1469513426 2103521629 -1061813232 -1115688175 -2132252993 -153795553 -129486578 -431358381 -209785817 511298751 -41154116 1632034950 466939664 -718914005 -1016698652 -1493046720 -1861644832 1805950697 28144654 410352768 -1342320687 -1669278439 1959666885 1951425437 200740761 1685232376 -632310707 -104557973 281913312
REM
CELL 1.54180   50.00000   50.00000   50.00000   90.00000   90.00000   90.00000
LATT -1
SFAC C  
C      1  0.5628740000000  0.5541940000000  0.4580890000000 1.0
C      1  0.5233810000000  0.5617420000000  0.4996060000000 1.0
C      1  0.4342520000000  0.5010300000000  0.5079800000000 1.0
C      1  0.4580410000000  0.4682840000000  0.5738970000000 1.0
C      1  0.4691810000000  0.4317080000000  0.4732100000000 1.0
C      1  0.4586100000000  0.5351470000000  0.4797660000000 1.0
C      1  0.4458320000000  0.4524570000000  0.4861420000000 1.0
C      1  0.5617270000000  0.5113360000000  0.4789270000000 1.0
C      1  0.4187130000000  0.4649730000000  0.4931650000000 1.0
C      1  0.5210970000000  0.4586230000000  0.4601490000000 1.0
C      1  0.5694080000000  0.4800440000000  0.5304350000000 1.0
C      1  0.5667910000000  0.4586890000000  0.4756830000000 1.0
C      1  0.4575330000000  0.4819710000000  0.4930810000000 1.0
C      1  0.4807150000000  0.5227730000000  0.4643680000000 1.0
C      1  0.4953460000000  0.4948400000000  0.5213130000000 1.0
C      1  0.5211540000000  0.4447970000000  0.5453320000000 1.0
C      1  0.5560880000000  0.4673360000000  0.5044990000000 1.0
C      1  0.4815820000000  0.4907720000000  0.4731800000000 1.0
C      1  0.5191130000000  0.4341150000000  0.4936440000000 1.0
C      1  0.4991170000000  0.4498930000000  0.4375880000000 1.0
C      1  0.5114460000000  0.5700710000000  0.4505050000000 1.0
C      1  0.5527970000000  0.4550100000000  0.5421620000000 1.0
C      1  0.4984000000000  0.5798640000000  0.5081640000000 1.0
C      1  0.5331560000000  0.4691720000000  0.5660760000000 1.0
C      1  0.5199370000000  0.5426300000000  0.5601200000000 1.0
C      1  0.5422350000000  0.5176080000000  0.4337280000000 1.0
C      1  0.5046790000000  0.5593650000000  0.5347050000000 1.0
C      1  0.5443810000000  0.4900670000000  0.4862410000000 1.0
C      1  0.4695950000000  0.5695330000000  0.5163430000000 1.0
C      1  0.5219730000000  0.5177870000000  0.5724810000000 1.0
C      1  0.5572540000000  0.5289310000000  0.5262630000000 1.0
C      1  0.4079000000000  0.5089120000000  0.5015910000000 1.0
C      1  0.4828920000000  0.5352370000000  0.5453580000000 1.0
C      1  0.4918300000000  0.4423100000000  0.5484540000000 1.0
C      1  0.5004910000000  0.5822550000000  0.4742890000000 1.0
C      1  0.4775010000000  0.5217180000000  0.4316060000000 1.0
C      1  0.4948980000000  0.5253800000000  0.5161970000000 1.0
C      1  0.4096640000000  0.4820250000000  0.4721720000000 1.0
C      1  0.5618710000000  0.5251880000000  0.4527840000000 1.0
C      1  0.5487440000000  0.5737720000000  0.4989190000000 1.0
C      1  0.5158800000000  0.5227630000000  0.4421170000000 1.0
C      1  0.4987610000000  0.5472510000000  0.4368400000000 1.0
C      1  0.4744400000000  0.4915520000000  0.4406260000000 1.0
C      1  0.4544550000000  0.4467610000000  0.4476030000000 1.0
C      1  0.4473250000000  0.5234710000000  0.5262180000000 1.0
C      1  0.5161430000000  0.5341180000000  0.4969910000000 1.0
C      1  0.5687020000000  0.5309650000000  0.4996110000000 1.0
C      1  0.5346770000000  0.4448580000000  0.5144790000000 1.0
C      1  0.4838510000000  0.4567860000000  0.5719210000000 1.0
C      1  0.4977970000000  0.5029920000000  0.5777040000000 1.0
C      1  0.4181360000000  0.5066120000000  0.4630930000000 1.0
C      1  0.5044210000000  0.4749000000000  0.5794540000000 1.0
C      1  0.5404600000000  0.5696890000000  0.4483200000000 1.0
C      1  0.4746220000000  0.5127130000000  0.5620800000000 1.0
C      1  0.4786940000000  0.4746810000000  0.5155130000000 1.0
C      1  0.4626580000000  0.4320050000000  0.5061410000000 1.0
C      1  0.4992640000000  0.4336180000000  0.4675650000000 1.0
C      1  0.5148920000000  0.4841350000000  0.4757800000000 1.0
C      1  0.5423610000000  0.4998400000000  0.5635390000000 1.0
C      1  0.5601160000000  0.5046490000000  0.5416070000000 1.0
C      1  0.5577970000000  0.4433090000000  0.4303160000000 1.0
C      1  0.5367820000000  0.5470910000000  0.5342320000000 1.0
C      1  0.4737810000000  0.4634060000000  0.4329440000000 1.0
C      1  0.4772200000000  0.4476960000000  0.5246020000000 1.0
C      1  0.4666240000000  0.5398280000000  0.5091810000000 1.0
C      1  0.5119320000000  0.5164870000000  0.4724930000000 1.0
C      1  0.5500430000000  0.4531880000000  0.4549110000000 1.0
C      1  0.4339430000000  0.5275260000000  0.4709770000000 1.0
C      1  0.4156910000000  0.4685900000000  0.5218120000000 1.0
C      1  0.4530790000000  0.4920610000000  0.5584390000000 1.0
C      1  0.4347750000000  0.4873790000000  0.5378800000000 1.0
C      1  0.5684840000000  0.5575240000000  0.4867980000000 1.0
END
