TITL C-2778423-5760-281 0.000921269304018842 125000 -292.778562959324 0 0 51 (C1) n - 1
REM
REM in /home/nfs/bkarasulu/CARBON/AIRSS/Generating-Clusters/REBO/Only-C1/SD-CG/HFTN-CG
REM
REM
REM
REM
REM
REM ./C.cell (11c1c37f851c82e70ff6c80c92926a4b)
REM
REM compiler GCC version 9.2.1 20190827 (Red Hat 9.2.1-1)
REM options -cpp -mtune=generic -march=x86-64 -g -O0 -fpre-include=/usr/include/finclude/math-vector-fortran.h
REM seed 1966795473 795921639 773567153 -2065579550 -1148576707 -541540748 2046393048 -1457196403 -1347661726 -362193348 234659269 -592661085 -351900814 -823375593 -64113791 1500394807 -1607664944 1533381530 -678435043 1165673447 774858900 411559270 1222266816 931670965 -925058522 891014894 1673318000 787460956 -1036832166 -383147470 -204418498 908672768 -81244675
REM
CELL 1.54180   50.00000   50.00000   50.00000   90.00000   90.00000   90.00000
LATT -1
SFAC C  
C      1  0.4754740000000  0.4218740000000  0.4594100000000 1.0
C      1  0.4574370000000  0.4943860000000  0.4534150000000 1.0
C      1  0.4570220000000  0.4416550000000  0.4653930000000 1.0
C      1  0.5195440000000  0.4458290000000  0.4915290000000 1.0
C      1  0.4530760000000  0.5563190000000  0.5335670000000 1.0
C      1  0.5579880000000  0.5482110000000  0.5189240000000 1.0
C      1  0.4920050000000  0.5370430000000  0.5630070000000 1.0
C      1  0.5229550000000  0.4929420000000  0.4816490000000 1.0
C      1  0.4125380000000  0.5292100000000  0.5376020000000 1.0
C      1  0.5672680000000  0.5226370000000  0.5583040000000 1.0
C      1  0.4504530000000  0.4583940000000  0.5080650000000 1.0
C      1  0.5312600000000  0.5499040000000  0.4738210000000 1.0
C      1  0.4449290000000  0.5151310000000  0.5038400000000 1.0
C      1  0.4419670000000  0.4394120000000  0.4902600000000 1.0
C      1  0.5432140000000  0.5582600000000  0.5430920000000 1.0
C      1  0.4959660000000  0.3987930000000  0.4528080000000 1.0
C      1  0.4425360000000  0.4915870000000  0.4302170000000 1.0
C      1  0.5693400000000  0.5058800000000  0.4633990000000 1.0
C      1  0.5010300000000  0.3745070000000  0.4425370000000 1.0
C      1  0.4871810000000  0.4834380000000  0.5567110000000 1.0
C      1  0.4705470000000  0.4982130000000  0.5407360000000 1.0
C      1  0.5331840000000  0.4745230000000  0.4477080000000 1.0
C      1  0.5300770000000  0.5298150000000  0.4473600000000 1.0
C      1  0.4672200000000  0.4691920000000  0.4667130000000 1.0
C      1  0.5166060000000  0.4943790000000  0.5555560000000 1.0
C      1  0.5400410000000  0.5378250000000  0.4985630000000 1.0
C      1  0.5072910000000  0.4259660000000  0.4677560000000 1.0
C      1  0.5017590000000  0.5599490000000  0.4752770000000 1.0
C      1  0.5213060000000  0.4929100000000  0.5215980000000 1.0
C      1  0.5392390000000  0.4740590000000  0.5425600000000 1.0
C      1  0.4800560000000  0.5248490000000  0.5375380000000 1.0
C      1  0.5418080000000  0.5038740000000  0.4578550000000 1.0
C      1  0.5385140000000  0.5380880000000  0.4221910000000 1.0
C      1  0.4764900000000  0.5213430000000  0.4575380000000 1.0
C      1  0.4358270000000  0.5342770000000  0.5242090000000 1.0
C      1  0.4671940000000  0.5556400000000  0.5592830000000 1.0
C      1  0.5472020000000  0.4498790000000  0.5344670000000 1.0
C      1  0.5766990000000  0.5292450000000  0.5323150000000 1.0
C      1  0.4946550000000  0.5331090000000  0.5139640000000 1.0
C      1  0.4510380000000  0.5178920000000  0.4769100000000 1.0
C      1  0.5172870000000  0.5232820000000  0.5669990000000 1.0
C      1  0.5420200000000  0.5370640000000  0.5639960000000 1.0
C      1  0.5197900000000  0.5207950000000  0.5101200000000 1.0
C      1  0.4663520000000  0.5705750000000  0.5125140000000 1.0
C      1  0.4878070000000  0.5571260000000  0.5000260000000 1.0
C      1  0.4782030000000  0.4744350000000  0.4961670000000 1.0
C      1  0.4567950000000  0.4899460000000  0.5161010000000 1.0
C      1  0.5388840000000  0.4355300000000  0.5128470000000 1.0
C      1  0.5264340000000  0.4510550000000  0.4589530000000 1.0
C      1  0.4987750000000  0.5362300000000  0.4556370000000 1.0
C      1  0.5077170000000  0.4735220000000  0.4989950000000 1.0
END
