TITL C-2778425-5191-989 0.00636726589313974 125000 -1077.23060726574 0 0 185 (C1) n - 1
REM
REM in /home/nfs/bkarasulu/CARBON/AIRSS/Generating-Clusters/REBO/Only-C1/SD-CG/HFTN-CG
REM
REM
REM
REM
REM
REM ./C.cell (11c1c37f851c82e70ff6c80c92926a4b)
REM
REM compiler GCC version 9.2.1 20190827 (Red Hat 9.2.1-1)
REM options -cpp -mtune=generic -march=x86-64 -g -O0 -fpre-include=/usr/include/finclude/math-vector-fortran.h
REM seed 14972079 2019902651 -428909348 1405076308 -865628532 -1190495927 -478953243 -575235312 -681494176 176284611 -863869753 762963068 503108469 180157524 1271202537 -1406268707 -1516068505 122801239 300558717 1797447497 394525383 208087396 -1117382036 1531868270 1088858410 899354911 224465753 -1050575289 1851235837 -826626693 40737430 1857336338 -1650218790
REM
CELL 1.54180   50.00000   50.00000   50.00000   90.00000   90.00000   90.00000
LATT -1
SFAC C  
C      1  0.5489590000000  0.4405210000000  0.4898180000000 1.0
C      1  0.4803340000000  0.5537230000000  0.4959700000000 1.0
C      1  0.4963560000000  0.4394640000000  0.4854290000000 1.0
C      1  0.3980650000000  0.4898080000000  0.5112630000000 1.0
C      1  0.5637520000000  0.4686680000000  0.5137570000000 1.0
C      1  0.5664370000000  0.5781020000000  0.4758590000000 1.0
C      1  0.4897780000000  0.5322270000000  0.6126690000000 1.0
C      1  0.4761980000000  0.4349430000000  0.5059210000000 1.0
C      1  0.4794720000000  0.4557320000000  0.5326490000000 1.0
C      1  0.4826100000000  0.3989910000000  0.4299100000000 1.0
C      1  0.4430180000000  0.4267350000000  0.5586830000000 1.0
C      1  0.5791230000000  0.4820680000000  0.5854330000000 1.0
C      1  0.4865380000000  0.4345640000000  0.5581080000000 1.0
C      1  0.4814780000000  0.5433070000000  0.4356770000000 1.0
C      1  0.4427270000000  0.5223460000000  0.5565420000000 1.0
C      1  0.5479800000000  0.4022790000000  0.4693320000000 1.0
C      1  0.5167710000000  0.5769710000000  0.5067230000000 1.0
C      1  0.4426880000000  0.4805850000000  0.5070280000000 1.0
C      1  0.5877940000000  0.4759000000000  0.5326440000000 1.0
C      1  0.5682810000000  0.5513760000000  0.5814830000000 1.0
C      1  0.4889330000000  0.3947670000000  0.5606880000000 1.0
C      1  0.4538520000000  0.4023490000000  0.5108120000000 1.0
C      1  0.4208540000000  0.5836030000000  0.5527050000000 1.0
C      1  0.5029470000000  0.5257120000000  0.5443210000000 1.0
C      1  0.4083700000000  0.4596200000000  0.4743650000000 1.0
C      1  0.5183650000000  0.5004460000000  0.5392470000000 1.0
C      1  0.4817260000000  0.4854300000000  0.6012100000000 1.0
C      1  0.5487840000000  0.5173580000000  0.4248470000000 1.0
C      1  0.5867300000000  0.5359570000000  0.5572060000000 1.0
C      1  0.5436260000000  0.4430930000000  0.4596380000000 1.0
C      1  0.5099870000000  0.3801940000000  0.4931590000000 1.0
C      1  0.4428780000000  0.4575430000000  0.5738650000000 1.0
C      1  0.5139330000000  0.6006510000000  0.4854350000000 1.0
C      1  0.5392290000000  0.4657920000000  0.4023290000000 1.0
C      1  0.4630330000000  0.5690380000000  0.4225660000000 1.0
C      1  0.4877680000000  0.4577670000000  0.4615200000000 1.0
C      1  0.4548550000000  0.5434170000000  0.4031190000000 1.0
C      1  0.4616120000000  0.5327750000000  0.5965500000000 1.0
C      1  0.4996790000000  0.5335580000000  0.3897850000000 1.0
C      1  0.4956380000000  0.5174540000000  0.5824200000000 1.0
C      1  0.5101620000000  0.5525280000000  0.5947710000000 1.0
C      1  0.5751230000000  0.5023500000000  0.4317710000000 1.0
C      1  0.5843130000000  0.5044040000000  0.4961240000000 1.0
C      1  0.5458460000000  0.5387600000000  0.5080260000000 1.0
C      1  0.3988190000000  0.4898490000000  0.4769910000000 1.0
C      1  0.5360770000000  0.4814410000000  0.5602670000000 1.0
C      1  0.5745530000000  0.5182320000000  0.4684290000000 1.0
C      1  0.4412130000000  0.4979930000000  0.4500770000000 1.0
C      1  0.4744090000000  0.5283280000000  0.5591940000000 1.0
C      1  0.3950190000000  0.5210780000000  0.4865930000000 1.0
C      1  0.4188480000000  0.5357570000000  0.4913460000000 1.0
C      1  0.5255760000000  0.5228110000000  0.5985570000000 1.0
C      1  0.4608080000000  0.5310840000000  0.5219610000000 1.0
C      1  0.5247840000000  0.4700360000000  0.4287780000000 1.0
C      1  0.4066910000000  0.5678730000000  0.5312200000000 1.0
C      1  0.5055090000000  0.4860500000000  0.3959950000000 1.0
C      1  0.5426700000000  0.6013160000000  0.4690260000000 1.0
C      1  0.4781920000000  0.4659550000000  0.3999780000000 1.0
C      1  0.4875460000000  0.6145240000000  0.4922710000000 1.0
C      1  0.6004400000000  0.4574470000000  0.4927330000000 1.0
C      1  0.4583560000000  0.5588150000000  0.5792740000000 1.0
C      1  0.5142380000000  0.3971240000000  0.5379520000000 1.0
C      1  0.6019120000000  0.5293810000000  0.5314200000000 1.0
C      1  0.4884200000000  0.4173110000000  0.5287540000000 1.0
C      1  0.5005670000000  0.4757090000000  0.5281260000000 1.0
C      1  0.5289500000000  0.4720030000000  0.4628330000000 1.0
C      1  0.5152930000000  0.5975650000000  0.5341590000000 1.0
C      1  0.4164830000000  0.4493200000000  0.4992090000000 1.0
C      1  0.5565780000000  0.5060200000000  0.5503120000000 1.0
C      1  0.4192520000000  0.5632380000000  0.4763220000000 1.0
C      1  0.5816070000000  0.4338850000000  0.4513890000000 1.0
C      1  0.4291400000000  0.5672920000000  0.4273730000000 1.0
C      1  0.5092900000000  0.4520700000000  0.3966660000000 1.0
C      1  0.4953840000000  0.4550210000000  0.5938430000000 1.0
C      1  0.4311720000000  0.5299670000000  0.4139360000000 1.0
C      1  0.5195400000000  0.5795040000000  0.5808780000000 1.0
C      1  0.4300460000000  0.5642370000000  0.5727570000000 1.0
C      1  0.5063670000000  0.5591620000000  0.4745980000000 1.0
C      1  0.4087580000000  0.4650540000000  0.5213560000000 1.0
C      1  0.4530320000000  0.5344630000000  0.4887430000000 1.0
C      1  0.6077200000000  0.4849240000000  0.4995350000000 1.0
C      1  0.5453180000000  0.4108680000000  0.5352840000000 1.0
C      1  0.4253210000000  0.4532070000000  0.5465340000000 1.0
C      1  0.4689210000000  0.4897530000000  0.4911260000000 1.0
C      1  0.4984680000000  0.4182830000000  0.4197160000000 1.0
C      1  0.5121060000000  0.3740270000000  0.5173600000000 1.0
C      1  0.5109210000000  0.5523560000000  0.4415600000000 1.0
C      1  0.4377400000000  0.4999120000000  0.5313880000000 1.0
C      1  0.5285860000000  0.5678370000000  0.5437870000000 1.0
C      1  0.4397510000000  0.4241770000000  0.4637550000000 1.0
C      1  0.4145450000000  0.4949750000000  0.5613430000000 1.0
C      1  0.4573220000000  0.4521270000000  0.4554130000000 1.0
C      1  0.6029340000000  0.5618120000000  0.4795940000000 1.0
C      1  0.4426060000000  0.4319900000000  0.5027190000000 1.0
C      1  0.4654790000000  0.5986390000000  0.4891140000000 1.0
C      1  0.4965180000000  0.5250170000000  0.5049990000000 1.0
C      1  0.4764510000000  0.3975800000000  0.4592980000000 1.0
C      1  0.5771750000000  0.4153960000000  0.4771960000000 1.0
C      1  0.5440080000000  0.5456200000000  0.4351140000000 1.0
C      1  0.4700440000000  0.5631380000000  0.5272630000000 1.0
C      1  0.5354560000000  0.5068320000000  0.5135520000000 1.0
C      1  0.5060380000000  0.5022940000000  0.6174540000000 1.0
C      1  0.5102300000000  0.5495080000000  0.5227100000000 1.0
C      1  0.5509010000000  0.5749490000000  0.5684840000000 1.0
C      1  0.4115940000000  0.5096530000000  0.4523480000000 1.0
C      1  0.5798830000000  0.5508540000000  0.4602360000000 1.0
C      1  0.4992870000000  0.5881110000000  0.5612850000000 1.0
C      1  0.5437270000000  0.5160580000000  0.3940560000000 1.0
C      1  0.4550890000000  0.4038420000000  0.4773950000000 1.0
C      1  0.5449110000000  0.5929320000000  0.5174820000000 1.0
C      1  0.3986290000000  0.5405380000000  0.5428600000000 1.0
C      1  0.5255590000000  0.4557050000000  0.5788790000000 1.0
C      1  0.5530870000000  0.4963220000000  0.4671440000000 1.0
C      1  0.5625200000000  0.5483190000000  0.5356930000000 1.0
C      1  0.5192050000000  0.4735040000000  0.6076180000000 1.0
C      1  0.4497560000000  0.5370630000000  0.4421580000000 1.0
C      1  0.4183350000000  0.4437540000000  0.4534960000000 1.0
C      1  0.4202970000000  0.5382940000000  0.5637670000000 1.0
C      1  0.5640940000000  0.4693980000000  0.4816940000000 1.0
C      1  0.4607830000000  0.4047680000000  0.5441020000000 1.0
C      1  0.4995690000000  0.4196820000000  0.4595880000000 1.0
C      1  0.4675310000000  0.4981010000000  0.3945840000000 1.0
C      1  0.5751760000000  0.5122720000000  0.5781180000000 1.0
C      1  0.5295760000000  0.4315060000000  0.5583410000000 1.0
C      1  0.5887300000000  0.4847730000000  0.4421880000000 1.0
C      1  0.4163870000000  0.5435260000000  0.4484060000000 1.0
C      1  0.5141590000000  0.5900380000000  0.4534680000000 1.0
C      1  0.5188140000000  0.5437300000000  0.5635480000000 1.0
C      1  0.4400290000000  0.6006880000000  0.5394280000000 1.0
C      1  0.4511280000000  0.5859480000000  0.5127240000000 1.0
C      1  0.5242710000000  0.5020590000000  0.4369160000000 1.0
C      1  0.5889660000000  0.4612390000000  0.4624530000000 1.0
C      1  0.5335160000000  0.5658590000000  0.4115990000000 1.0
C      1  0.4552970000000  0.4577760000000  0.4222890000000 1.0
C      1  0.5055710000000  0.4457210000000  0.4381100000000 1.0
C      1  0.5632240000000  0.4650890000000  0.5702720000000 1.0
C      1  0.5573960000000  0.4356890000000  0.4291320000000 1.0
C      1  0.5178480000000  0.5116890000000  0.3863380000000 1.0
C      1  0.4766800000000  0.5704860000000  0.5576390000000 1.0
C      1  0.4595180000000  0.4895470000000  0.4261340000000 1.0
C      1  0.5066240000000  0.5551350000000  0.4069690000000 1.0
C      1  0.5739080000000  0.5785600000000  0.5061350000000 1.0
C      1  0.5549160000000  0.5261470000000  0.5991690000000 1.0
C      1  0.4933530000000  0.4943090000000  0.4246640000000 1.0
C      1  0.4244620000000  0.4509200000000  0.4266250000000 1.0
C      1  0.5438170000000  0.5729970000000  0.4507480000000 1.0
C      1  0.4212670000000  0.5732290000000  0.5063000000000 1.0
C      1  0.4653470000000  0.5840330000000  0.4649620000000 1.0
C      1  0.4473380000000  0.5636500000000  0.4623140000000 1.0
C      1  0.4854150000000  0.5843620000000  0.4432620000000 1.0
C      1  0.4941840000000  0.4138600000000  0.5832820000000 1.0
C      1  0.4820040000000  0.5143700000000  0.4479640000000 1.0
C      1  0.5192900000000  0.4070250000000  0.4812900000000 1.0
C      1  0.4351940000000  0.4875320000000  0.5793740000000 1.0
C      1  0.4729320000000  0.4600630000000  0.5717530000000 1.0
C      1  0.5542290000000  0.4093350000000  0.5024660000000 1.0
C      1  0.5859530000000  0.4336200000000  0.5041590000000 1.0
C      1  0.6069620000000  0.5009420000000  0.5286380000000 1.0
C      1  0.5657960000000  0.5808150000000  0.5390170000000 1.0
C      1  0.4933640000000  0.4961570000000  0.5040020000000 1.0
C      1  0.5678340000000  0.5077130000000  0.5192650000000 1.0
C      1  0.4475730000000  0.4559900000000  0.5235850000000 1.0
C      1  0.4287870000000  0.5294060000000  0.5198370000000 1.0
C      1  0.5708210000000  0.5416580000000  0.4917340000000 1.0
C      1  0.5350340000000  0.4149220000000  0.4421320000000 1.0
C      1  0.5292440000000  0.4284160000000  0.4111370000000 1.0
C      1  0.4824860000000  0.4902480000000  0.5665640000000 1.0
C      1  0.5203770000000  0.4411860000000  0.5311570000000 1.0
C      1  0.5339120000000  0.4679370000000  0.5222150000000 1.0
C      1  0.4094820000000  0.5153570000000  0.4209110000000 1.0
C      1  0.4979350000000  0.4887940000000  0.4637460000000 1.0
C      1  0.5214660000000  0.4320270000000  0.5025970000000 1.0
C      1  0.5952230000000  0.5518780000000  0.5109780000000 1.0
C      1  0.5215070000000  0.5339090000000  0.4877050000000 1.0
C      1  0.3986630000000  0.5141110000000  0.5257790000000 1.0
C      1  0.4451800000000  0.4752260000000  0.4732480000000 1.0
C      1  0.5727700000000  0.4305900000000  0.5302660000000 1.0
C      1  0.5763140000000  0.4525120000000  0.5480350000000 1.0
C      1  0.5472390000000  0.5351110000000  0.5610280000000 1.0
C      1  0.4711670000000  0.5024920000000  0.5374960000000 1.0
C      1  0.4725060000000  0.5256340000000  0.3904380000000 1.0
C      1  0.5234780000000  0.5111080000000  0.4681430000000 1.0
C      1  0.5219160000000  0.4816510000000  0.4950040000000 1.0
C      1  0.4550170000000  0.5036900000000  0.5923100000000 1.0
C      1  0.4608780000000  0.5118360000000  0.4711170000000 1.0
END
