TITL C-2778424-3986-1466 -0.000928087793105391 125000 -494.984208542362 0 0 86 (C1) n - 1
REM
REM in /home/nfs/bkarasulu/CARBON/AIRSS/Generating-Clusters/REBO/Only-C1/SD-CG/HFTN-CG
REM
REM
REM
REM
REM
REM ./C.cell (11c1c37f851c82e70ff6c80c92926a4b)
REM
REM compiler GCC version 9.2.1 20190827 (Red Hat 9.2.1-1)
REM options -cpp -mtune=generic -march=x86-64 -g -O0 -fpre-include=/usr/include/finclude/math-vector-fortran.h
REM seed -1628411698 648143634 -1424349429 400285153 -1146734128 1012995354 457912973 -154918404 -1368215087 947177946 -268807584 895507761 145373926 -2145953171 608991938 464784337 1640994452 -894041675 786750557 1558422061 -1702990226 889072408 1971473568 -1588855964 697113175 1776702977 -1881999762 95218866 609661476 -212887581 -318193992 1769992682 -1847548504
REM
CELL 1.54180   50.00000   50.00000   50.00000   90.00000   90.00000   90.00000
LATT -1
SFAC C  
C      1  0.4394930000000  0.5746870000000  0.5034210000000 1.0
C      1  0.4747480000000  0.5912350000000  0.5397730000000 1.0
C      1  0.5302130000000  0.5679150000000  0.5293040000000 1.0
C      1  0.5393770000000  0.5625300000000  0.4819220000000 1.0
C      1  0.5280530000000  0.4651170000000  0.5296660000000 1.0
C      1  0.4440220000000  0.5008460000000  0.4262590000000 1.0
C      1  0.4734390000000  0.5071700000000  0.4760790000000 1.0
C      1  0.5132790000000  0.4816620000000  0.4819560000000 1.0
C      1  0.4909910000000  0.4662120000000  0.4528500000000 1.0
C      1  0.4386440000000  0.4955480000000  0.5395440000000 1.0
C      1  0.5227850000000  0.5763330000000  0.5020980000000 1.0
C      1  0.6194910000000  0.5385560000000  0.4537810000000 1.0
C      1  0.4432350000000  0.4680250000000  0.5584530000000 1.0
C      1  0.5543040000000  0.5525730000000  0.5265440000000 1.0
C      1  0.4631170000000  0.4405910000000  0.5528880000000 1.0
C      1  0.6005610000000  0.5352030000000  0.4715920000000 1.0
C      1  0.5115170000000  0.5593190000000  0.5486780000000 1.0
C      1  0.5472580000000  0.4410650000000  0.4986510000000 1.0
C      1  0.5371190000000  0.4901580000000  0.5720580000000 1.0
C      1  0.5804890000000  0.5316480000000  0.4904770000000 1.0
C      1  0.4429950000000  0.4756890000000  0.4458320000000 1.0
C      1  0.4824620000000  0.5517760000000  0.5079710000000 1.0
C      1  0.5351630000000  0.5198720000000  0.5686990000000 1.0
C      1  0.5309090000000  0.5169320000000  0.4532640000000 1.0
C      1  0.5310140000000  0.4369030000000  0.5702400000000 1.0
C      1  0.4324810000000  0.4480510000000  0.4997670000000 1.0
C      1  0.4505630000000  0.5331240000000  0.4322370000000 1.0
C      1  0.5247850000000  0.5496790000000  0.4548260000000 1.0
C      1  0.5223800000000  0.4907460000000  0.4543130000000 1.0
C      1  0.4419540000000  0.5294410000000  0.5384460000000 1.0
C      1  0.4838240000000  0.4931140000000  0.5724740000000 1.0
C      1  0.5717720000000  0.5036980000000  0.5313660000000 1.0
C      1  0.4482070000000  0.5244060000000  0.4791930000000 1.0
C      1  0.5067390000000  0.4974290000000  0.5473780000000 1.0
C      1  0.5215540000000  0.5080830000000  0.5009270000000 1.0
C      1  0.4853060000000  0.4855990000000  0.4995250000000 1.0
C      1  0.5492640000000  0.4816010000000  0.5445880000000 1.0
C      1  0.4822930000000  0.4037100000000  0.5050640000000 1.0
C      1  0.4850170000000  0.5267510000000  0.5720980000000 1.0
C      1  0.5531640000000  0.4675570000000  0.4827150000000 1.0
C      1  0.4506960000000  0.5536050000000  0.5175490000000 1.0
C      1  0.5533050000000  0.5266990000000  0.5422770000000 1.0
C      1  0.4764730000000  0.5047060000000  0.4232510000000 1.0
C      1  0.4953440000000  0.4742900000000  0.5278080000000 1.0
C      1  0.4420680000000  0.5406050000000  0.4584120000000 1.0
C      1  0.4883110000000  0.4469560000000  0.4272460000000 1.0
C      1  0.4826900000000  0.5641790000000  0.5388220000000 1.0
C      1  0.4503810000000  0.4401920000000  0.4792080000000 1.0
C      1  0.4642020000000  0.5451900000000  0.5553720000000 1.0
C      1  0.4637650000000  0.4738390000000  0.5311000000000 1.0
C      1  0.4376360000000  0.5177020000000  0.5067380000000 1.0
C      1  0.5281450000000  0.4384610000000  0.4731080000000 1.0
C      1  0.4998430000000  0.4505800000000  0.4787140000000 1.0
C      1  0.5249720000000  0.4665980000000  0.5833290000000 1.0
C      1  0.4942630000000  0.5242110000000  0.4970010000000 1.0
C      1  0.4837860000000  0.5343520000000  0.4250980000000 1.0
C      1  0.4575420000000  0.5863170000000  0.4852630000000 1.0
C      1  0.5130070000000  0.5382210000000  0.5684020000000 1.0
C      1  0.5616400000000  0.5518210000000  0.4979980000000 1.0
C      1  0.5500650000000  0.5005800000000  0.4211450000000 1.0
C      1  0.4636910000000  0.4346720000000  0.4308380000000 1.0
C      1  0.5030260000000  0.5701740000000  0.4673530000000 1.0
C      1  0.4971560000000  0.4479170000000  0.5768330000000 1.0
C      1  0.4688820000000  0.5107550000000  0.5155650000000 1.0
C      1  0.4726460000000  0.4656670000000  0.5743060000000 1.0
C      1  0.5525350000000  0.4759580000000  0.4326560000000 1.0
C      1  0.5826590000000  0.4748730000000  0.5455290000000 1.0
C      1  0.5461410000000  0.4585860000000  0.4535370000000 1.0
C      1  0.4800470000000  0.4282610000000  0.5262240000000 1.0
C      1  0.5012420000000  0.4290250000000  0.5497860000000 1.0
C      1  0.4448920000000  0.4466860000000  0.5248350000000 1.0
C      1  0.4760650000000  0.5095930000000  0.5436650000000 1.0
C      1  0.4783490000000  0.4350530000000  0.4924500000000 1.0
C      1  0.4831440000000  0.5730390000000  0.4851200000000 1.0
C      1  0.4465330000000  0.4471480000000  0.4511180000000 1.0
C      1  0.5119230000000  0.5389100000000  0.4260620000000 1.0
C      1  0.5731360000000  0.5064640000000  0.5016170000000 1.0
C      1  0.5144120000000  0.4922280000000  0.4051040000000 1.0
C      1  0.4139770000000  0.4695750000000  0.4981670000000 1.0
C      1  0.4722510000000  0.4895510000000  0.4519060000000 1.0
C      1  0.5122250000000  0.4714180000000  0.4282420000000 1.0
C      1  0.5268390000000  0.5115180000000  0.5307200000000 1.0
C      1  0.5273750000000  0.5185340000000  0.4130600000000 1.0
C      1  0.5297580000000  0.4378610000000  0.5384130000000 1.0
C      1  0.4188210000000  0.4922730000000  0.5120170000000 1.0
C      1  0.5501560000000  0.4946030000000  0.4901170000000 1.0
END
