TITL C-2778426-5645-512 0.00406463652776128 125000 -957.702954993282 0 0 166 (C1) n - 1
REM
REM in /home/nfs/bkarasulu/CARBON/AIRSS/Generating-Clusters/REBO/Only-C1/SD-CG/HFTN-CG
REM
REM
REM
REM
REM
REM ./C.cell (11c1c37f851c82e70ff6c80c92926a4b)
REM
REM compiler GCC version 9.2.1 20190827 (Red Hat 9.2.1-1)
REM options -cpp -mtune=generic -march=x86-64 -g -O0 -fpre-include=/usr/include/finclude/math-vector-fortran.h
REM seed 231877344 -105743336 -1741033118 670594102 1485580902 -894767044 -861089191 -11776487 -186097609 -771475462 -467752728 -711555301 66599157 573920103 -667044928 -325952262 911675657 -1077075194 904262347 -600127764 -1102632211 1616865586 -236499745 454777005 1458250303 434918481 -174016586 775392953 -1542898449 176387168 -1002923688 968550481 1310785167
REM
CELL 1.54180   50.00000   50.00000   50.00000   90.00000   90.00000   90.00000
LATT -1
SFAC C  
C      1  0.4439410000000  0.4307160000000  0.4508670000000 1.0
C      1  0.5317720000000  0.4803940000000  0.4399930000000 1.0
C      1  0.4068680000000  0.5037920000000  0.5428700000000 1.0
C      1  0.5253480000000  0.5824970000000  0.5626390000000 1.0
C      1  0.4349000000000  0.4490300000000  0.4296710000000 1.0
C      1  0.5687740000000  0.4889360000000  0.4802860000000 1.0
C      1  0.5405250000000  0.5456400000000  0.4443410000000 1.0
C      1  0.4241300000000  0.5623330000000  0.5565260000000 1.0
C      1  0.5456030000000  0.4355110000000  0.5106240000000 1.0
C      1  0.5950670000000  0.4524340000000  0.5115030000000 1.0
C      1  0.4090630000000  0.5212280000000  0.5202470000000 1.0
C      1  0.5688170000000  0.5228870000000  0.4776810000000 1.0
C      1  0.4326840000000  0.4908090000000  0.5100580000000 1.0
C      1  0.5177420000000  0.5273450000000  0.5597700000000 1.0
C      1  0.5975820000000  0.5377200000000  0.4793240000000 1.0
C      1  0.6006160000000  0.4761660000000  0.5289070000000 1.0
C      1  0.6304490000000  0.5050340000000  0.4773070000000 1.0
C      1  0.4816410000000  0.5008260000000  0.4008600000000 1.0
C      1  0.4764380000000  0.4543170000000  0.4141160000000 1.0
C      1  0.4950970000000  0.5261990000000  0.3977670000000 1.0
C      1  0.5505710000000  0.4194640000000  0.5391920000000 1.0
C      1  0.5025790000000  0.4721830000000  0.5082280000000 1.0
C      1  0.4018590000000  0.4862290000000  0.5018970000000 1.0
C      1  0.4470250000000  0.5341340000000  0.4726110000000 1.0
C      1  0.5978750000000  0.5314450000000  0.4489390000000 1.0
C      1  0.4813950000000  0.4347300000000  0.5031610000000 1.0
C      1  0.4301220000000  0.4613670000000  0.5519460000000 1.0
C      1  0.5684900000000  0.5914290000000  0.5402770000000 1.0
C      1  0.5902810000000  0.4367360000000  0.4632590000000 1.0
C      1  0.5946280000000  0.4612700000000  0.4082540000000 1.0
C      1  0.5014790000000  0.5768660000000  0.5041710000000 1.0
C      1  0.4631890000000  0.5347090000000  0.5616820000000 1.0
C      1  0.5230330000000  0.4045250000000  0.5008680000000 1.0
C      1  0.4762060000000  0.5494980000000  0.5864470000000 1.0
C      1  0.4750840000000  0.4052670000000  0.4743270000000 1.0
C      1  0.5494920000000  0.4893830000000  0.5617830000000 1.0
C      1  0.5247580000000  0.5272690000000  0.4112550000000 1.0
C      1  0.6138330000000  0.4827350000000  0.4597780000000 1.0
C      1  0.4690100000000  0.5035550000000  0.5604940000000 1.0
C      1  0.4788080000000  0.5420990000000  0.5358640000000 1.0
C      1  0.5465130000000  0.5435000000000  0.4903710000000 1.0
C      1  0.4820580000000  0.4685510000000  0.5782980000000 1.0
C      1  0.6176340000000  0.5244820000000  0.4956850000000 1.0
C      1  0.4926850000000  0.5546380000000  0.4795190000000 1.0
C      1  0.5007650000000  0.5704810000000  0.5810270000000 1.0
C      1  0.3996200000000  0.4524400000000  0.4808600000000 1.0
C      1  0.3893960000000  0.4835330000000  0.4704080000000 1.0
C      1  0.5288410000000  0.4550010000000  0.5676910000000 1.0
C      1  0.4804180000000  0.5276350000000  0.6059960000000 1.0
C      1  0.4694010000000  0.3967900000000  0.4996100000000 1.0
C      1  0.5692320000000  0.5166450000000  0.5831640000000 1.0
C      1  0.5611040000000  0.4489050000000  0.5449720000000 1.0
C      1  0.4259080000000  0.4913320000000  0.5869520000000 1.0
C      1  0.4735120000000  0.5733080000000  0.5620730000000 1.0
C      1  0.5474270000000  0.5097310000000  0.4007590000000 1.0
C      1  0.4624940000000  0.4183380000000  0.5469940000000 1.0
C      1  0.5394690000000  0.4784140000000  0.4943680000000 1.0
C      1  0.5775580000000  0.5166600000000  0.5240320000000 1.0
C      1  0.4803110000000  0.4000690000000  0.5257250000000 1.0
C      1  0.4554100000000  0.4443260000000  0.4876130000000 1.0
C      1  0.4885340000000  0.5673910000000  0.4477210000000 1.0
C      1  0.4932770000000  0.5944630000000  0.4765900000000 1.0
C      1  0.5408800000000  0.5023840000000  0.4535510000000 1.0
C      1  0.5622430000000  0.5402390000000  0.5402180000000 1.0
C      1  0.4285170000000  0.5087060000000  0.4823650000000 1.0
C      1  0.4197300000000  0.4921340000000  0.4580090000000 1.0
C      1  0.4184200000000  0.4342000000000  0.5107220000000 1.0
C      1  0.4802700000000  0.4400380000000  0.5316470000000 1.0
C      1  0.3955020000000  0.4568860000000  0.5144370000000 1.0
C      1  0.4732410000000  0.5364800000000  0.4289680000000 1.0
C      1  0.5653520000000  0.5227800000000  0.4438050000000 1.0
C      1  0.5089370000000  0.3961530000000  0.5246990000000 1.0
C      1  0.4382950000000  0.5843060000000  0.4569990000000 1.0
C      1  0.5296920000000  0.5084430000000  0.4821620000000 1.0
C      1  0.5491230000000  0.5832640000000  0.4928030000000 1.0
C      1  0.5677180000000  0.5030440000000  0.4185910000000 1.0
C      1  0.5378470000000  0.5921570000000  0.5399510000000 1.0
C      1  0.4046600000000  0.4752530000000  0.5399820000000 1.0
C      1  0.5149490000000  0.5855900000000  0.4554860000000 1.0
C      1  0.4701490000000  0.4897100000000  0.5233180000000 1.0
C      1  0.4720650000000  0.6027150000000  0.4961540000000 1.0
C      1  0.4707130000000  0.4228140000000  0.4527000000000 1.0
C      1  0.5292160000000  0.5884260000000  0.4268330000000 1.0
C      1  0.5602450000000  0.4537340000000  0.5749920000000 1.0
C      1  0.4663570000000  0.4608230000000  0.4645100000000 1.0
C      1  0.4733220000000  0.5190120000000  0.5154080000000 1.0
C      1  0.4970680000000  0.5552640000000  0.4164060000000 1.0
C      1  0.5090370000000  0.5019490000000  0.5156110000000 1.0
C      1  0.5421820000000  0.5133890000000  0.5423850000000 1.0
C      1  0.5299190000000  0.5597630000000  0.4176870000000 1.0
C      1  0.4820660000000  0.6048720000000  0.5248930000000 1.0
C      1  0.6091920000000  0.5210490000000  0.5225620000000 1.0
C      1  0.4849800000000  0.4711460000000  0.4871390000000 1.0
C      1  0.5234570000000  0.4359120000000  0.5436780000000 1.0
C      1  0.5450170000000  0.4644080000000  0.4194180000000 1.0
C      1  0.4515680000000  0.4626790000000  0.5133550000000 1.0
C      1  0.4426880000000  0.5278250000000  0.4273790000000 1.0
C      1  0.3854510000000  0.5159370000000  0.4607340000000 1.0
C      1  0.4811530000000  0.4660660000000  0.5445850000000 1.0
C      1  0.4569690000000  0.5092610000000  0.4528930000000 1.0
C      1  0.5443300000000  0.4273130000000  0.4541410000000 1.0
C      1  0.4991290000000  0.5014870000000  0.5482460000000 1.0
C      1  0.4620660000000  0.5511060000000  0.4945740000000 1.0
C      1  0.5109260000000  0.5337300000000  0.5279900000000 1.0
C      1  0.4347570000000  0.4640450000000  0.5817590000000 1.0
C      1  0.4722470000000  0.4692990000000  0.4396850000000 1.0
C      1  0.4269520000000  0.4319830000000  0.4789120000000 1.0
C      1  0.4227970000000  0.5480760000000  0.4346700000000 1.0
C      1  0.5377000000000  0.5668750000000  0.4689250000000 1.0
C      1  0.4559950000000  0.5796670000000  0.5083960000000 1.0
C      1  0.5027650000000  0.5214330000000  0.4365830000000 1.0
C      1  0.5062380000000  0.4270470000000  0.4869370000000 1.0
C      1  0.5110380000000  0.4643310000000  0.5893100000000 1.0
C      1  0.5154070000000  0.5338590000000  0.4645450000000 1.0
C      1  0.3957200000000  0.5341370000000  0.4431260000000 1.0
C      1  0.5855810000000  0.4699420000000  0.4575600000000 1.0
C      1  0.6192540000000  0.5115450000000  0.4466850000000 1.0
C      1  0.5370450000000  0.5512440000000  0.5214380000000 1.0
C      1  0.4804330000000  0.4977250000000  0.4708390000000 1.0
C      1  0.4751120000000  0.4974800000000  0.5912860000000 1.0
C      1  0.4615460000000  0.4236970000000  0.5777240000000 1.0
C      1  0.5280790000000  0.5892400000000  0.5130320000000 1.0
C      1  0.5174330000000  0.4217480000000  0.4560990000000 1.0
C      1  0.5482240000000  0.4951010000000  0.5916930000000 1.0
C      1  0.5530510000000  0.4100720000000  0.4901880000000 1.0
C      1  0.4217240000000  0.5686580000000  0.5248690000000 1.0
C      1  0.5758550000000  0.4728940000000  0.4258700000000 1.0
C      1  0.5163010000000  0.4553500000000  0.4129260000000 1.0
C      1  0.5485760000000  0.4722000000000  0.5258810000000 1.0
C      1  0.5567390000000  0.5395710000000  0.5712650000000 1.0
C      1  0.5464280000000  0.5147510000000  0.5095390000000 1.0
C      1  0.4404170000000  0.4381990000000  0.5335670000000 1.0
C      1  0.5738300000000  0.4861960000000  0.5128570000000 1.0
C      1  0.5019990000000  0.5046750000000  0.6102950000000 1.0
C      1  0.4922590000000  0.5183490000000  0.4905370000000 1.0
C      1  0.6070230000000  0.4998570000000  0.5451780000000 1.0
C      1  0.4870700000000  0.5728870000000  0.5323370000000 1.0
C      1  0.5092020000000  0.4649320000000  0.4537280000000 1.0
C      1  0.5639570000000  0.5721860000000  0.5172250000000 1.0
C      1  0.4592250000000  0.4498240000000  0.5869170000000 1.0
C      1  0.5228270000000  0.4867590000000  0.6033800000000 1.0
C      1  0.4935990000000  0.4743300000000  0.3980860000000 1.0
C      1  0.4576250000000  0.5003580000000  0.4195180000000 1.0
C      1  0.4489410000000  0.5798730000000  0.5416960000000 1.0
C      1  0.3879020000000  0.5150130000000  0.4945870000000 1.0
C      1  0.4353020000000  0.4812980000000  0.4307220000000 1.0
C      1  0.5534770000000  0.4477690000000  0.4733870000000 1.0
C      1  0.4438970000000  0.4887820000000  0.5425340000000 1.0
C      1  0.5765630000000  0.4152410000000  0.4745040000000 1.0
C      1  0.5225120000000  0.4543670000000  0.4786350000000 1.0
C      1  0.4311500000000  0.5444910000000  0.5083140000000 1.0
C      1  0.5163650000000  0.4501140000000  0.5178800000000 1.0
C      1  0.4193850000000  0.5122320000000  0.5676860000000 1.0
C      1  0.5762670000000  0.4545440000000  0.5967830000000 1.0
C      1  0.4147740000000  0.4592440000000  0.4524690000000 1.0
C      1  0.5278770000000  0.5517570000000  0.5760270000000 1.0
C      1  0.4094010000000  0.5375260000000  0.4843710000000 1.0
C      1  0.4968200000000  0.4379310000000  0.4367310000000 1.0
C      1  0.5225780000000  0.4787040000000  0.5451280000000 1.0
C      1  0.4941090000000  0.4932830000000  0.4421460000000 1.0
C      1  0.5717840000000  0.4481010000000  0.4968030000000 1.0
C      1  0.4554240000000  0.5631580000000  0.4406340000000 1.0
C      1  0.4242790000000  0.5579290000000  0.4648990000000 1.0
C      1  0.5928990000000  0.5069360000000  0.5693150000000 1.0
C      1  0.4330800000000  0.5371410000000  0.5655400000000 1.0
C      1  0.4002080000000  0.5862500000000  0.5136370000000 1.0
END
