TITL C-2778431-5191-635 -0.000823594782291006 125000 -831.196116794368 0 0 142 (C1) n - 1
REM
REM in /home/nfs/bkarasulu/CARBON/AIRSS/Generating-Clusters/REBO/Only-C1/SD-CG/HFTN-CG
REM
REM
REM
REM
REM
REM ./C.cell (11c1c37f851c82e70ff6c80c92926a4b)
REM
REM compiler GCC version 9.2.1 20190827 (Red Hat 9.2.1-1)
REM options -cpp -mtune=generic -march=x86-64 -g -O0 -fpre-include=/usr/include/finclude/math-vector-fortran.h
REM seed 650940426 363003700 -1860191245 1124384397 -1327762498 -1104816255 -1355597873 1399539638 -1293790458 845171025 -756190573 -826910471 435646236 -1027826929 -1654307773 -74292828 110841901 1146415255 -1483064649 663167060 -1965566959 -99074926 68058485 -1905395112 -1251964538 -1609364496 933916134 1373764315 -259398978 785763931 1767900703 713475533 484097130
REM
CELL 1.54180   50.00000   50.00000   50.00000   90.00000   90.00000   90.00000
LATT -1
SFAC C  
C      1  0.4634510000000  0.5202090000000  0.5751350000000 1.0
C      1  0.5522640000000  0.4153240000000  0.5276510000000 1.0
C      1  0.4338380000000  0.5636330000000  0.5614140000000 1.0
C      1  0.5666750000000  0.4598910000000  0.5046150000000 1.0
C      1  0.5741880000000  0.5094230000000  0.4444250000000 1.0
C      1  0.5009270000000  0.5868590000000  0.5392330000000 1.0
C      1  0.5364090000000  0.4426010000000  0.5377250000000 1.0
C      1  0.5252810000000  0.5879100000000  0.5631100000000 1.0
C      1  0.5960620000000  0.4855880000000  0.5122600000000 1.0
C      1  0.4186160000000  0.4314120000000  0.5253370000000 1.0
C      1  0.5224390000000  0.5089500000000  0.5551140000000 1.0
C      1  0.4612670000000  0.5368270000000  0.4545450000000 1.0
C      1  0.5304770000000  0.4719360000000  0.4631830000000 1.0
C      1  0.4386940000000  0.4605400000000  0.4891930000000 1.0
C      1  0.5631150000000  0.5383440000000  0.4471700000000 1.0
C      1  0.3967890000000  0.4787290000000  0.4262120000000 1.0
C      1  0.4462880000000  0.5827570000000  0.4894500000000 1.0
C      1  0.4850600000000  0.4161130000000  0.5121070000000 1.0
C      1  0.4899200000000  0.5621690000000  0.4846920000000 1.0
C      1  0.5981480000000  0.4979010000000  0.4859680000000 1.0
C      1  0.4949530000000  0.4573000000000  0.4191480000000 1.0
C      1  0.5155110000000  0.4881610000000  0.5300280000000 1.0
C      1  0.4996660000000  0.5631040000000  0.5149260000000 1.0
C      1  0.5571640000000  0.5128880000000  0.4174330000000 1.0
C      1  0.4544860000000  0.6056760000000  0.5309790000000 1.0
C      1  0.5129390000000  0.5903750000000  0.4569400000000 1.0
C      1  0.4726600000000  0.5921480000000  0.5481040000000 1.0
C      1  0.4378050000000  0.4755170000000  0.5388780000000 1.0
C      1  0.5312400000000  0.5751460000000  0.5154720000000 1.0
C      1  0.5565200000000  0.4461760000000  0.4329590000000 1.0
C      1  0.5754470000000  0.4178200000000  0.4819760000000 1.0
C      1  0.5752150000000  0.4281000000000  0.5115590000000 1.0
C      1  0.4838140000000  0.5064770000000  0.4104830000000 1.0
C      1  0.4244800000000  0.5270240000000  0.5098520000000 1.0
C      1  0.5707800000000  0.5302010000000  0.5193920000000 1.0
C      1  0.4926240000000  0.5769900000000  0.4399360000000 1.0
C      1  0.4988640000000  0.5017900000000  0.5757020000000 1.0
C      1  0.4694230000000  0.5184350000000  0.5356670000000 1.0
C      1  0.4367840000000  0.4441890000000  0.4656880000000 1.0
C      1  0.5816340000000  0.5033720000000  0.5327950000000 1.0
C      1  0.4329980000000  0.5295810000000  0.5626300000000 1.0
C      1  0.5330120000000  0.4980470000000  0.4117930000000 1.0
C      1  0.5279330000000  0.5215520000000  0.5009280000000 1.0
C      1  0.5151800000000  0.4740860000000  0.5818430000000 1.0
C      1  0.5948160000000  0.5541160000000  0.4756140000000 1.0
C      1  0.5619260000000  0.5549170000000  0.4750260000000 1.0
C      1  0.5440990000000  0.4854850000000  0.5788880000000 1.0
C      1  0.5596030000000  0.5746340000000  0.5018190000000 1.0
C      1  0.4364220000000  0.5887530000000  0.5159160000000 1.0
C      1  0.5045160000000  0.5525900000000  0.5598730000000 1.0
C      1  0.5240940000000  0.6108750000000  0.5313940000000 1.0
C      1  0.5542610000000  0.5300660000000  0.4962780000000 1.0
C      1  0.5125260000000  0.6011920000000  0.5038780000000 1.0
C      1  0.5330970000000  0.4212900000000  0.4322520000000 1.0
C      1  0.4859270000000  0.4402170000000  0.4395090000000 1.0
C      1  0.5107840000000  0.5148260000000  0.4052150000000 1.0
C      1  0.4958500000000  0.5298920000000  0.5070200000000 1.0
C      1  0.4631450000000  0.5600580000000  0.4756290000000 1.0
C      1  0.4677280000000  0.5996190000000  0.4733420000000 1.0
C      1  0.4208400000000  0.5709080000000  0.5334130000000 1.0
C      1  0.5954200000000  0.4397260000000  0.4661790000000 1.0
C      1  0.4493550000000  0.4728930000000  0.4200080000000 1.0
C      1  0.5545070000000  0.5471670000000  0.5565650000000 1.0
C      1  0.4077710000000  0.4851010000000  0.4491380000000 1.0
C      1  0.5781060000000  0.5235770000000  0.5579300000000 1.0
C      1  0.4195400000000  0.4919280000000  0.4737060000000 1.0
C      1  0.4192350000000  0.5399030000000  0.5337010000000 1.0
C      1  0.5453130000000  0.5425720000000  0.4220690000000 1.0
C      1  0.4909050000000  0.5262280000000  0.5939770000000 1.0
C      1  0.5689320000000  0.5809060000000  0.5309160000000 1.0
C      1  0.3847160000000  0.4947930000000  0.5087780000000 1.0
C      1  0.5070590000000  0.5495850000000  0.5902580000000 1.0
C      1  0.5289340000000  0.4393060000000  0.4726130000000 1.0
C      1  0.5420960000000  0.4085120000000  0.5577230000000 1.0
C      1  0.4367460000000  0.5277740000000  0.4237110000000 1.0
C      1  0.4861880000000  0.4955820000000  0.5457320000000 1.0
C      1  0.4740240000000  0.4200420000000  0.5410730000000 1.0
C      1  0.4976600000000  0.6018460000000  0.4801380000000 1.0
C      1  0.5357670000000  0.4011570000000  0.5066220000000 1.0
C      1  0.4891440000000  0.5169890000000  0.4569680000000 1.0
C      1  0.4760180000000  0.5441180000000  0.5543750000000 1.0
C      1  0.4744650000000  0.5192930000000  0.4877430000000 1.0
C      1  0.4640980000000  0.4026030000000  0.4545260000000 1.0
C      1  0.4231530000000  0.3998710000000  0.4849310000000 1.0
C      1  0.5849010000000  0.4888930000000  0.4607800000000 1.0
C      1  0.6070060000000  0.5536850000000  0.5051140000000 1.0
C      1  0.5255940000000  0.4041800000000  0.4538200000000 1.0
C      1  0.4389740000000  0.4148910000000  0.4687200000000 1.0
C      1  0.5095230000000  0.5521220000000  0.4673350000000 1.0
C      1  0.6061300000000  0.5256570000000  0.4865010000000 1.0
C      1  0.5261410000000  0.4505990000000  0.4181190000000 1.0
C      1  0.5029730000000  0.4900970000000  0.4555940000000 1.0
C      1  0.4430170000000  0.4267740000000  0.5387590000000 1.0
C      1  0.4755780000000  0.4378010000000  0.5700380000000 1.0
C      1  0.5855020000000  0.5550450000000  0.5251730000000 1.0
C      1  0.5110020000000  0.4556960000000  0.5209150000000 1.0
C      1  0.4057440000000  0.4815910000000  0.4975240000000 1.0
C      1  0.4665040000000  0.5259480000000  0.4224850000000 1.0
C      1  0.4997240000000  0.4320770000000  0.4654520000000 1.0
C      1  0.3831350000000  0.4721550000000  0.5544760000000 1.0
C      1  0.5177170000000  0.5279790000000  0.5315050000000 1.0
C      1  0.4961510000000  0.4442090000000  0.4964240000000 1.0
C      1  0.5605300000000  0.4846720000000  0.5504690000000 1.0
C      1  0.5661110000000  0.4540230000000  0.5438670000000 1.0
C      1  0.4975740000000  0.5449750000000  0.4389920000000 1.0
C      1  0.4865100000000  0.4637490000000  0.5420240000000 1.0
C      1  0.4049240000000  0.5292980000000  0.4900050000000 1.0
C      1  0.5235390000000  0.5742290000000  0.5875320000000 1.0
C      1  0.4149590000000  0.4546800000000  0.5095000000000 1.0
C      1  0.5795730000000  0.4620740000000  0.4523930000000 1.0
C      1  0.4939510000000  0.4005220000000  0.4600750000000 1.0
C      1  0.5933530000000  0.4543890000000  0.5234160000000 1.0
C      1  0.4677110000000  0.5899780000000  0.4453720000000 1.0
C      1  0.5168520000000  0.5403030000000  0.4165870000000 1.0
C      1  0.5440700000000  0.4113890000000  0.4793100000000 1.0
C      1  0.4330830000000  0.4975450000000  0.5635210000000 1.0
C      1  0.4930700000000  0.4695210000000  0.4770100000000 1.0
C      1  0.4648320000000  0.4033980000000  0.4966600000000 1.0
C      1  0.5737300000000  0.4229820000000  0.4483260000000 1.0
C      1  0.5240250000000  0.4216300000000  0.5693690000000 1.0
C      1  0.5439690000000  0.4782950000000  0.5213590000000 1.0
C      1  0.5344780000000  0.5695180000000  0.4649090000000 1.0
C      1  0.4612620000000  0.5697740000000  0.5601010000000 1.0
C      1  0.4621380000000  0.4865320000000  0.5773900000000 1.0
C      1  0.4563470000000  0.4547850000000  0.5473750000000 1.0
C      1  0.5487890000000  0.5169610000000  0.5711020000000 1.0
C      1  0.4512710000000  0.5119810000000  0.5098320000000 1.0
C      1  0.4435740000000  0.4825940000000  0.5100990000000 1.0
C      1  0.5385200000000  0.4638840000000  0.4922020000000 1.0
C      1  0.5296150000000  0.5554090000000  0.5404380000000 1.0
C      1  0.4246000000000  0.5223110000000  0.4482860000000 1.0
C      1  0.5498320000000  0.5970100000000  0.5453750000000 1.0
C      1  0.5256590000000  0.4787420000000  0.4325020000000 1.0
C      1  0.5095440000000  0.3972100000000  0.5126940000000 1.0
C      1  0.4462670000000  0.5105370000000  0.4703170000000 1.0
C      1  0.4077600000000  0.4789500000000  0.5529630000000 1.0
C      1  0.5119410000000  0.4504430000000  0.5602860000000 1.0
C      1  0.4819240000000  0.4660500000000  0.5815730000000 1.0
C      1  0.4599730000000  0.4282080000000  0.4374130000000 1.0
C      1  0.4017080000000  0.5295260000000  0.4628860000000 1.0
C      1  0.4767910000000  0.4786810000000  0.4131820000000 1.0
C      1  0.4404980000000  0.4516590000000  0.4364540000000 1.0
END
