TITL C-2778432-5617-401 0.00155384900084748 125000 -750.518520345041 0 0 127 (C1) n - 1
REM
REM in /home/nfs/bkarasulu/CARBON/AIRSS/Generating-Clusters/REBO/Only-C1/SD-CG/HFTN-CG
REM
REM
REM
REM
REM
REM ./C.cell (11c1c37f851c82e70ff6c80c92926a4b)
REM
REM compiler GCC version 9.2.1 20190827 (Red Hat 9.2.1-1)
REM options -cpp -mtune=generic -march=x86-64 -g -O0 -fpre-include=/usr/include/finclude/math-vector-fortran.h
REM seed 1817372268 233955647 1036807947 -924735520 -1003829353 -1117408494 -67947117 -1352878849 -1147600385 -678177770 -1379496012 -676042026 1831965896 -412922923 -1372036925 150105113 -1670488239 1009753182 610521443 1356163112 -1856906934 1829127415 -1022417179 -997261089 -1620562077 1591496368 -2137912282 49641019 1042727045 1768365818 1081024435 -1159497959 1833974911
REM
CELL 1.54180   50.00000   50.00000   50.00000   90.00000   90.00000   90.00000
LATT -1
SFAC C  
C      1  0.4944670000000  0.4507160000000  0.4683930000000 1.0
C      1  0.4787070000000  0.4464300000000  0.4920900000000 1.0
C      1  0.5725370000000  0.4812740000000  0.5374520000000 1.0
C      1  0.4754270000000  0.5540470000000  0.4202690000000 1.0
C      1  0.5224650000000  0.5174860000000  0.4838450000000 1.0
C      1  0.4947360000000  0.4650260000000  0.4139840000000 1.0
C      1  0.4402570000000  0.5401610000000  0.5950610000000 1.0
C      1  0.5352040000000  0.5456600000000  0.4693380000000 1.0
C      1  0.4149510000000  0.4917220000000  0.4892880000000 1.0
C      1  0.4710480000000  0.5366700000000  0.5218850000000 1.0
C      1  0.5712250000000  0.5444670000000  0.5010290000000 1.0
C      1  0.5215080000000  0.4719230000000  0.5673130000000 1.0
C      1  0.4638710000000  0.5225070000000  0.6040010000000 1.0
C      1  0.4761570000000  0.4678210000000  0.5899770000000 1.0
C      1  0.6023430000000  0.4921560000000  0.4119420000000 1.0
C      1  0.4312500000000  0.4559710000000  0.4517990000000 1.0
C      1  0.5002000000000  0.4935550000000  0.4200980000000 1.0
C      1  0.4697990000000  0.4553210000000  0.4236940000000 1.0
C      1  0.5845120000000  0.4857480000000  0.4304120000000 1.0
C      1  0.4215060000000  0.5251590000000  0.4864350000000 1.0
C      1  0.4270420000000  0.4445890000000  0.4971670000000 1.0
C      1  0.5054340000000  0.4941510000000  0.5018770000000 1.0
C      1  0.4859250000000  0.5896160000000  0.5552360000000 1.0
C      1  0.5757190000000  0.4887030000000  0.4814470000000 1.0
C      1  0.5333980000000  0.5779140000000  0.5466060000000 1.0
C      1  0.4411610000000  0.4455500000000  0.5441570000000 1.0
C      1  0.4558660000000  0.4926350000000  0.5927860000000 1.0
C      1  0.4768170000000  0.4357860000000  0.5809620000000 1.0
C      1  0.5204860000000  0.5430220000000  0.5057040000000 1.0
C      1  0.5258520000000  0.4671570000000  0.4979430000000 1.0
C      1  0.5169160000000  0.4165960000000  0.4814510000000 1.0
C      1  0.5829970000000  0.5250440000000  0.5186820000000 1.0
C      1  0.5065120000000  0.5610240000000  0.4077590000000 1.0
C      1  0.4590820000000  0.5838480000000  0.4618710000000 1.0
C      1  0.4704180000000  0.4317480000000  0.4406730000000 1.0
C      1  0.4784360000000  0.5792510000000  0.4407840000000 1.0
C      1  0.4946540000000  0.6030920000000  0.5305700000000 1.0
C      1  0.4143470000000  0.4940080000000  0.5517060000000 1.0
C      1  0.5236870000000  0.5675950000000  0.4573260000000 1.0
C      1  0.4277360000000  0.5347930000000  0.5666290000000 1.0
C      1  0.4770460000000  0.4679680000000  0.5122440000000 1.0
C      1  0.4281320000000  0.4558680000000  0.5225930000000 1.0
C      1  0.4624960000000  0.3998220000000  0.5251680000000 1.0
C      1  0.5542220000000  0.5536990000000  0.5478620000000 1.0
C      1  0.4847690000000  0.5151720000000  0.4113630000000 1.0
C      1  0.4422310000000  0.5118840000000  0.5100950000000 1.0
C      1  0.4543350000000  0.5145100000000  0.5662820000000 1.0
C      1  0.4660010000000  0.5450630000000  0.5711570000000 1.0
C      1  0.4275970000000  0.5565240000000  0.4894040000000 1.0
C      1  0.4432530000000  0.5601240000000  0.4627400000000 1.0
C      1  0.5195730000000  0.4499320000000  0.4153790000000 1.0
C      1  0.5053810000000  0.5843970000000  0.4469460000000 1.0
C      1  0.4228370000000  0.4871360000000  0.5220940000000 1.0
C      1  0.5480150000000  0.4894530000000  0.4964440000000 1.0
C      1  0.5548770000000  0.5496470000000  0.4233680000000 1.0
C      1  0.5308190000000  0.5815590000000  0.5068580000000 1.0
C      1  0.5315830000000  0.4498480000000  0.5244810000000 1.0
C      1  0.4285320000000  0.4850970000000  0.5738260000000 1.0
C      1  0.5006930000000  0.5675290000000  0.5662270000000 1.0
C      1  0.4458560000000  0.4719270000000  0.4311340000000 1.0
C      1  0.5148470000000  0.5493480000000  0.5429260000000 1.0
C      1  0.6200050000000  0.4985020000000  0.3936490000000 1.0
C      1  0.4892480000000  0.4898410000000  0.5322990000000 1.0
C      1  0.4477610000000  0.5783940000000  0.5339060000000 1.0
C      1  0.5375810000000  0.4381610000000  0.4868950000000 1.0
C      1  0.4857100000000  0.5959780000000  0.5025800000000 1.0
C      1  0.5693930000000  0.4582790000000  0.4335350000000 1.0
C      1  0.4606680000000  0.4020580000000  0.4975140000000 1.0
C      1  0.4969220000000  0.4268010000000  0.5583170000000 1.0
C      1  0.5050180000000  0.4781710000000  0.5877440000000 1.0
C      1  0.5287020000000  0.4254410000000  0.5699070000000 1.0
C      1  0.5478530000000  0.5565800000000  0.5161620000000 1.0
C      1  0.5403610000000  0.5082730000000  0.4563970000000 1.0
C      1  0.5243440000000  0.4874540000000  0.4422240000000 1.0
C      1  0.4521270000000  0.4755630000000  0.4975540000000 1.0
C      1  0.5245970000000  0.4179040000000  0.5309400000000 1.0
C      1  0.5646440000000  0.4524770000000  0.5304230000000 1.0
C      1  0.4634250000000  0.5584380000000  0.5442980000000 1.0
C      1  0.5243790000000  0.6002200000000  0.5297810000000 1.0
C      1  0.5005650000000  0.4775930000000  0.4606120000000 1.0
C      1  0.5560480000000  0.4197530000000  0.5338200000000 1.0
C      1  0.4932030000000  0.5369760000000  0.3938330000000 1.0
C      1  0.4748650000000  0.5098000000000  0.5013570000000 1.0
C      1  0.4898440000000  0.5345550000000  0.5925180000000 1.0
C      1  0.5063290000000  0.5777190000000  0.4919080000000 1.0
C      1  0.5891210000000  0.4421590000000  0.4794570000000 1.0
C      1  0.4519570000000  0.4292060000000  0.4873300000000 1.0
C      1  0.5736860000000  0.5019200000000  0.4529250000000 1.0
C      1  0.4530450000000  0.4898170000000  0.4746280000000 1.0
C      1  0.5626770000000  0.5043760000000  0.5608200000000 1.0
C      1  0.4282540000000  0.5055600000000  0.4608450000000 1.0
C      1  0.5334460000000  0.5619980000000  0.4130520000000 1.0
C      1  0.4522990000000  0.4632730000000  0.5660840000000 1.0
C      1  0.5393940000000  0.4626390000000  0.4306290000000 1.0
C      1  0.4821840000000  0.5318420000000  0.4689010000000 1.0
C      1  0.4980040000000  0.5492020000000  0.4835140000000 1.0
C      1  0.4472470000000  0.4320690000000  0.4568110000000 1.0
C      1  0.5456600000000  0.5089050000000  0.5152760000000 1.0
C      1  0.5744360000000  0.5298080000000  0.5458740000000 1.0
C      1  0.4213080000000  0.5468040000000  0.5434560000000 1.0
C      1  0.5530710000000  0.4737980000000  0.5647410000000 1.0
C      1  0.5825120000000  0.4637050000000  0.4633940000000 1.0
C      1  0.5652780000000  0.5455840000000  0.4741700000000 1.0
C      1  0.5837040000000  0.4970490000000  0.5126000000000 1.0
C      1  0.4949820000000  0.4197640000000  0.4562180000000 1.0
C      1  0.4415050000000  0.5000490000000  0.4335680000000 1.0
C      1  0.5116880000000  0.4538170000000  0.5476330000000 1.0
C      1  0.4881330000000  0.3984600000000  0.4821250000000 1.0
C      1  0.5066180000000  0.4037120000000  0.5103050000000 1.0
C      1  0.4689510000000  0.4889200000000  0.5553270000000 1.0
C      1  0.5684590000000  0.4377540000000  0.5007410000000 1.0
C      1  0.4980580000000  0.5216050000000  0.5316650000000 1.0
C      1  0.4595180000000  0.5391230000000  0.4536740000000 1.0
C      1  0.4603540000000  0.5940580000000  0.4895230000000 1.0
C      1  0.4588580000000  0.5243040000000  0.4262790000000 1.0
C      1  0.4404710000000  0.5813650000000  0.5063940000000 1.0
C      1  0.5158280000000  0.5424210000000  0.5821450000000 1.0
C      1  0.5794620000000  0.4361350000000  0.4197250000000 1.0
C      1  0.4870250000000  0.4076280000000  0.5361510000000 1.0
C      1  0.4377180000000  0.5431700000000  0.5179370000000 1.0
C      1  0.5502640000000  0.4099670000000  0.5023490000000 1.0
C      1  0.5475180000000  0.4418400000000  0.5707870000000 1.0
C      1  0.5407340000000  0.5298140000000  0.5673690000000 1.0
C      1  0.5306170000000  0.5208970000000  0.5372290000000 1.0
C      1  0.4184580000000  0.4629730000000  0.4766880000000 1.0
C      1  0.5636040000000  0.5311900000000  0.4455780000000 1.0
C      1  0.4825510000000  0.4999360000000  0.4696820000000 1.0
END
