TITL C-2778433-5640-468 -0.793173441930779 125000 -1014.02409851744 0 0 172 (C1) n - 1
REM
REM in /home/nfs/bkarasulu/CARBON/AIRSS/Generating-Clusters/REBO/Only-C1/SD-CG/HFTN-CG
REM
REM
REM
REM
REM
REM ./C.cell (11c1c37f851c82e70ff6c80c92926a4b)
REM
REM compiler GCC version 9.2.1 20190827 (Red Hat 9.2.1-1)
REM options -cpp -mtune=generic -march=x86-64 -g -O0 -fpre-include=/usr/include/finclude/math-vector-fortran.h
REM seed -1084121286 -482002591 -1312490741 1453039522 -949155403 384353303 -386219642 1666353715 -665536461 -803185617 -2096751550 -1711415645 -1435451570 596399797 667955236 -1299486762 -2132378424 -1567110614 -947763599 405614455 1419764100 -2095046263 -767163464 -788631144 1504286576 -863804900 1764464274 -458150628 1215580938 1558792230 1194087291 -485898973 1195858232
REM
CELL 1.54180   50.00000   50.00000   50.00000   90.00000   90.00000   90.00000
LATT -1
SFAC C  
C      1  0.5140430000000  0.4010290000000  0.5089840000000 1.0
C      1  0.4385080000000  0.5862870000000  0.4961230000000 1.0
C      1  0.4133650000000  0.4907590000000  0.5625160000000 1.0
C      1  0.5482470000000  0.4911650000000  0.3964160000000 1.0
C      1  0.4836540000000  0.5922350000000  0.4642210000000 1.0
C      1  0.5470440000000  0.5104860000000  0.4398140000000 1.0
C      1  0.5860720000000  0.4932280000000  0.4530860000000 1.0
C      1  0.5516660000000  0.5093360000000  0.5374450000000 1.0
C      1  0.5551730000000  0.4177960000000  0.5262290000000 1.0
C      1  0.5092900000000  0.4393800000000  0.4791000000000 1.0
C      1  0.4322400000000  0.5096880000000  0.5143680000000 1.0
C      1  0.5393980000000  0.4089440000000  0.5477520000000 1.0
C      1  0.4264740000000  0.5391330000000  0.5650670000000 1.0
C      1  0.4157580000000  0.4490390000000  0.4481670000000 1.0
C      1  0.5627900000000  0.5088640000000  0.4130880000000 1.0
C      1  0.6088130000000  0.5454000000000  0.5133650000000 1.0
C      1  0.3959430000000  0.5436850000000  0.4649870000000 1.0
C      1  0.5774300000000  0.5179860000000  0.5753970000000 1.0
C      1  0.4441030000000  0.5427660000000  0.4936700000000 1.0
C      1  0.5222860000000  0.4473400000000  0.5073790000000 1.0
C      1  0.5940730000000  0.4968450000000  0.5662010000000 1.0
C      1  0.5149960000000  0.4899560000000  0.4036170000000 1.0
C      1  0.5833620000000  0.5414770000000  0.4405700000000 1.0
C      1  0.4262850000000  0.4789410000000  0.5071910000000 1.0
C      1  0.4804650000000  0.5381890000000  0.4617190000000 1.0
C      1  0.4726380000000  0.5505700000000  0.5731300000000 1.0
C      1  0.4071010000000  0.4573880000000  0.5248830000000 1.0
C      1  0.4671550000000  0.5479710000000  0.4147970000000 1.0
C      1  0.5494910000000  0.5542890000000  0.5260410000000 1.0
C      1  0.4860860000000  0.5293750000000  0.5870650000000 1.0
C      1  0.4883240000000  0.5354550000000  0.3938540000000 1.0
C      1  0.4692420000000  0.5236900000000  0.4372290000000 1.0
C      1  0.5953130000000  0.5305320000000  0.5328100000000 1.0
C      1  0.6353430000000  0.5424850000000  0.5081370000000 1.0
C      1  0.5058350000000  0.4074640000000  0.5415110000000 1.0
C      1  0.4862460000000  0.4830960000000  0.4101150000000 1.0
C      1  0.5436040000000  0.4679960000000  0.6091110000000 1.0
C      1  0.4548410000000  0.5411690000000  0.5241680000000 1.0
C      1  0.5896080000000  0.5466760000000  0.4677580000000 1.0
C      1  0.5203100000000  0.4446150000000  0.5726130000000 1.0
C      1  0.5188150000000  0.4142380000000  0.4578470000000 1.0
C      1  0.5035730000000  0.4372930000000  0.4399800000000 1.0
C      1  0.4553770000000  0.5260450000000  0.5618610000000 1.0
C      1  0.5782000000000  0.4403000000000  0.5311230000000 1.0
C      1  0.6004860000000  0.4988520000000  0.5365060000000 1.0
C      1  0.5184980000000  0.5565990000000  0.5627760000000 1.0
C      1  0.5561730000000  0.5115640000000  0.5938290000000 1.0
C      1  0.4302010000000  0.5676660000000  0.5522970000000 1.0
C      1  0.4786290000000  0.4275350000000  0.5203230000000 1.0
C      1  0.5090840000000  0.5221380000000  0.4394450000000 1.0
C      1  0.5609430000000  0.5544830000000  0.4269570000000 1.0
C      1  0.5486310000000  0.5502230000000  0.5724630000000 1.0
C      1  0.4959940000000  0.3971000000000  0.4441160000000 1.0
C      1  0.5481360000000  0.5056820000000  0.5091840000000 1.0
C      1  0.5011860000000  0.5798640000000  0.5494120000000 1.0
C      1  0.4729070000000  0.4394180000000  0.5748810000000 1.0
C      1  0.4583380000000  0.4625890000000  0.5815410000000 1.0
C      1  0.5571410000000  0.6113880000000  0.4683480000000 1.0
C      1  0.5406650000000  0.4122600000000  0.5018530000000 1.0
C      1  0.4294790000000  0.5096040000000  0.4817240000000 1.0
C      1  0.5649280000000  0.4596610000000  0.5919930000000 1.0
C      1  0.5163150000000  0.5144940000000  0.6081660000000 1.0
C      1  0.5150410000000  0.4796750000000  0.5296550000000 1.0
C      1  0.5488520000000  0.4553210000000  0.4374180000000 1.0
C      1  0.4431960000000  0.4105980000000  0.5265110000000 1.0
C      1  0.5118750000000  0.5120490000000  0.4642180000000 1.0
C      1  0.5350980000000  0.4591960000000  0.5485570000000 1.0
C      1  0.4292730000000  0.4318270000000  0.4694570000000 1.0
C      1  0.5163290000000  0.5224890000000  0.4069290000000 1.0
C      1  0.5191070000000  0.4591520000000  0.5983460000000 1.0
C      1  0.4627830000000  0.4758860000000  0.5441170000000 1.0
C      1  0.5866600000000  0.4472380000000  0.4714540000000 1.0
C      1  0.4305750000000  0.4636240000000  0.4272310000000 1.0
C      1  0.4975250000000  0.5523100000000  0.4286640000000 1.0
C      1  0.5412020000000  0.5861740000000  0.5213870000000 1.0
C      1  0.4244120000000  0.4939130000000  0.4269810000000 1.0
C      1  0.5419410000000  0.5450620000000  0.4064940000000 1.0
C      1  0.4367980000000  0.5076900000000  0.5805290000000 1.0
C      1  0.4824240000000  0.4714080000000  0.4853980000000 1.0
C      1  0.4115280000000  0.5456740000000  0.4875670000000 1.0
C      1  0.4701090000000  0.4376140000000  0.4410930000000 1.0
C      1  0.5260560000000  0.5388960000000  0.5089360000000 1.0
C      1  0.4881190000000  0.5062560000000  0.5171030000000 1.0
C      1  0.5663720000000  0.5361710000000  0.5485660000000 1.0
C      1  0.4923550000000  0.4670570000000  0.5509880000000 1.0
C      1  0.4911230000000  0.5616740000000  0.4919980000000 1.0
C      1  0.5249830000000  0.5361730000000  0.5897550000000 1.0
C      1  0.5757270000000  0.4139250000000  0.4378280000000 1.0
C      1  0.5344660000000  0.5971750000000  0.4531560000000 1.0
C      1  0.5021720000000  0.5233670000000  0.4928230000000 1.0
C      1  0.3996800000000  0.4713740000000  0.4636100000000 1.0
C      1  0.5878040000000  0.4715140000000  0.5747810000000 1.0
C      1  0.5693550000000  0.5718910000000  0.5072850000000 1.0
C      1  0.4705470000000  0.4068010000000  0.4508300000000 1.0
C      1  0.4637210000000  0.3978780000000  0.4775630000000 1.0
C      1  0.5372670000000  0.4649360000000  0.4108170000000 1.0
C      1  0.5223570000000  0.5747240000000  0.4882080000000 1.0
C      1  0.5442010000000  0.4195510000000  0.4747530000000 1.0
C      1  0.5038870000000  0.4415320000000  0.5316080000000 1.0
C      1  0.5642800000000  0.4335960000000  0.4553080000000 1.0
C      1  0.4901030000000  0.3998900000000  0.4938210000000 1.0
C      1  0.5801500000000  0.5224590000000  0.4873150000000 1.0
C      1  0.4444390000000  0.5826340000000  0.4628870000000 1.0
C      1  0.5149870000000  0.4643450000000  0.4565470000000 1.0
C      1  0.4305180000000  0.4705620000000  0.4781330000000 1.0
C      1  0.4663820000000  0.5863630000000  0.5121670000000 1.0
C      1  0.4533080000000  0.5793220000000  0.5419070000000 1.0
C      1  0.5041160000000  0.4804180000000  0.5797270000000 1.0
C      1  0.4006280000000  0.5034840000000  0.4746410000000 1.0
C      1  0.5097030000000  0.4748260000000  0.4976170000000 1.0
C      1  0.4640100000000  0.4936420000000  0.4964940000000 1.0
C      1  0.3843520000000  0.5114910000000  0.4992780000000 1.0
C      1  0.4819770000000  0.4669020000000  0.4538080000000 1.0
C      1  0.4390300000000  0.5192520000000  0.4261360000000 1.0
C      1  0.5350950000000  0.4949760000000  0.5789590000000 1.0
C      1  0.4840280000000  0.5036040000000  0.6053790000000 1.0
C      1  0.5113920000000  0.5518130000000  0.4661410000000 1.0
C      1  0.4463560000000  0.5690710000000  0.4317500000000 1.0
C      1  0.5870560000000  0.4978700000000  0.5052840000000 1.0
C      1  0.5104230000000  0.5913810000000  0.5246340000000 1.0
C      1  0.5991880000000  0.4685720000000  0.4572310000000 1.0
C      1  0.5453740000000  0.4883910000000  0.5539200000000 1.0
C      1  0.5889080000000  0.4456750000000  0.4991790000000 1.0
C      1  0.5104680000000  0.6063300000000  0.4674320000000 1.0
C      1  0.4752000000000  0.5740000000000  0.5585400000000 1.0
C      1  0.4262750000000  0.5446390000000  0.4266400000000 1.0
C      1  0.4634600000000  0.4239670000000  0.5508960000000 1.0
C      1  0.5915460000000  0.5599390000000  0.4952560000000 1.0
C      1  0.5860690000000  0.5135320000000  0.4323340000000 1.0
C      1  0.5179210000000  0.5623240000000  0.4075220000000 1.0
C      1  0.4601230000000  0.5074620000000  0.5339990000000 1.0
C      1  0.5499610000000  0.4516780000000  0.5056790000000 1.0
C      1  0.4705610000000  0.4634780000000  0.3994270000000 1.0
C      1  0.4345120000000  0.4647900000000  0.5600500000000 1.0
C      1  0.3878870000000  0.5169650000000  0.5230460000000 1.0
C      1  0.4685550000000  0.5233000000000  0.4872710000000 1.0
C      1  0.4623780000000  0.5610750000000  0.4768430000000 1.0
C      1  0.3991940000000  0.4966410000000  0.4421330000000 1.0
C      1  0.5074940000000  0.5430160000000  0.5354440000000 1.0
C      1  0.4206810000000  0.5396820000000  0.5256660000000 1.0
C      1  0.5659670000000  0.4524570000000  0.5581510000000 1.0
C      1  0.4569170000000  0.4491490000000  0.4791480000000 1.0
C      1  0.4467360000000  0.4577430000000  0.5229770000000 1.0
C      1  0.5409270000000  0.5383450000000  0.4574070000000 1.0
C      1  0.4006560000000  0.5460310000000  0.4382110000000 1.0
C      1  0.4742660000000  0.4927900000000  0.4376620000000 1.0
C      1  0.4817040000000  0.5572520000000  0.5227310000000 1.0
C      1  0.4260870000000  0.4393720000000  0.5026170000000 1.0
C      1  0.4931240000000  0.6008140000000  0.4967160000000 1.0
C      1  0.4991800000000  0.4270980000000  0.5685940000000 1.0
C      1  0.4779030000000  0.5744620000000  0.4426450000000 1.0
C      1  0.4178790000000  0.5689220000000  0.5081060000000 1.0
C      1  0.5411530000000  0.4966220000000  0.6181730000000 1.0
C      1  0.3950850000000  0.4718420000000  0.5470200000000 1.0
C      1  0.4738160000000  0.3967640000000  0.5345320000000 1.0
C      1  0.5444400000000  0.5970160000000  0.4916980000000 1.0
C      1  0.4996470000000  0.5097200000000  0.5693000000000 1.0
C      1  0.5297840000000  0.4933520000000  0.4833380000000 1.0
C      1  0.5423440000000  0.5706100000000  0.4462580000000 1.0
C      1  0.5081470000000  0.5111410000000  0.5407400000000 1.0
C      1  0.5945200000000  0.4688910000000  0.5215190000000 1.0
C      1  0.4066190000000  0.5193970000000  0.5493140000000 1.0
C      1  0.4539130000000  0.4502700000000  0.4181720000000 1.0
C      1  0.5368650000000  0.4845350000000  0.4454870000000 1.0
C      1  0.5616510000000  0.4757360000000  0.4998830000000 1.0
C      1  0.4273970000000  0.4365310000000  0.5421170000000 1.0
C      1  0.5627110000000  0.4962850000000  0.4736080000000 1.0
C      1  0.4599040000000  0.4885310000000  0.5945930000000 1.0
C      1  0.4798470000000  0.4320010000000  0.4898200000000 1.0
C      1  0.4400310000000  0.4099460000000  0.4933620000000 1.0
C      1  0.4527630000000  0.4922080000000  0.4640310000000 1.0
C      1  0.5486890000000  0.5312980000000  0.4866960000000 1.0
END
