TITL C-2778434-4341-1435 0.00468580198788347 125000 -600.224435246273 0 0 105 (C1) n - 1
REM
REM in /home/nfs/bkarasulu/CARBON/AIRSS/Generating-Clusters/REBO/Only-C1/SD-CG/HFTN-CG
REM
REM
REM
REM
REM
REM ./C.cell (11c1c37f851c82e70ff6c80c92926a4b)
REM
REM compiler GCC version 9.2.1 20190827 (Red Hat 9.2.1-1)
REM options -cpp -mtune=generic -march=x86-64 -g -O0 -fpre-include=/usr/include/finclude/math-vector-fortran.h
REM seed -1068258328 -563979003 -524043998 1348964419 -748303449 -1066617385 1572667610 -1118755422 1492952562 -1605761142 -581475864 -1200450888 -1836826948 -310857103 -943724297 -967501400 902686231 -1486829333 288608613 295917948 668149204 -487926872 1142622152 -1715028982 651639510 83487922 1324704605 1931379101 1416571054 1440091462 -479283066 -18561368 -1496027369
REM
CELL 1.54180   50.00000   50.00000   50.00000   90.00000   90.00000   90.00000
LATT -1
SFAC C  
C      1  0.4937540000000  0.4780970000000  0.5009230000000 1.0
C      1  0.5365330000000  0.4350600000000  0.5110260000000 1.0
C      1  0.4850440000000  0.5200190000000  0.4091530000000 1.0
C      1  0.5652600000000  0.4710070000000  0.4570290000000 1.0
C      1  0.5035850000000  0.5535130000000  0.5644710000000 1.0
C      1  0.5313280000000  0.4924300000000  0.4120000000000 1.0
C      1  0.5444770000000  0.4852460000000  0.5745300000000 1.0
C      1  0.5186730000000  0.5199370000000  0.4088610000000 1.0
C      1  0.4519070000000  0.5699710000000  0.5053120000000 1.0
C      1  0.5371960000000  0.4080460000000  0.5626620000000 1.0
C      1  0.4757400000000  0.4992010000000  0.5329760000000 1.0
C      1  0.5295350000000  0.4823110000000  0.4436280000000 1.0
C      1  0.5221410000000  0.4236540000000  0.4636110000000 1.0
C      1  0.5183570000000  0.5237800000000  0.4515070000000 1.0
C      1  0.5206380000000  0.5697300000000  0.5091240000000 1.0
C      1  0.5487820000000  0.4872190000000  0.5099700000000 1.0
C      1  0.4433450000000  0.4918040000000  0.4469040000000 1.0
C      1  0.4992320000000  0.4612440000000  0.4589680000000 1.0
C      1  0.4414090000000  0.5501370000000  0.4807740000000 1.0
C      1  0.4818480000000  0.4564360000000  0.4213320000000 1.0
C      1  0.4835500000000  0.5615970000000  0.4467560000000 1.0
C      1  0.5325680000000  0.5145880000000  0.4808940000000 1.0
C      1  0.5883750000000  0.4383740000000  0.4942550000000 1.0
C      1  0.4210280000000  0.4439390000000  0.4703840000000 1.0
C      1  0.4382860000000  0.4698850000000  0.5639740000000 1.0
C      1  0.5376710000000  0.5392280000000  0.4268160000000 1.0
C      1  0.4791620000000  0.5588460000000  0.5442410000000 1.0
C      1  0.5310110000000  0.5433820000000  0.5775930000000 1.0
C      1  0.5027210000000  0.5151630000000  0.5833040000000 1.0
C      1  0.4509460000000  0.5495090000000  0.5597570000000 1.0
C      1  0.4495750000000  0.4409300000000  0.5189420000000 1.0
C      1  0.4671560000000  0.5717380000000  0.4743600000000 1.0
C      1  0.5136390000000  0.4636070000000  0.4123780000000 1.0
C      1  0.5614680000000  0.5537610000000  0.5394300000000 1.0
C      1  0.4246390000000  0.4963160000000  0.5246260000000 1.0
C      1  0.5024500000000  0.5145290000000  0.5294950000000 1.0
C      1  0.5502940000000  0.5266990000000  0.5053040000000 1.0
C      1  0.5815970000000  0.4569680000000  0.5153660000000 1.0
C      1  0.5835000000000  0.5173070000000  0.5035910000000 1.0
C      1  0.4494400000000  0.4464460000000  0.4878460000000 1.0
C      1  0.5218550000000  0.4829180000000  0.5146470000000 1.0
C      1  0.5553330000000  0.4502150000000  0.5275350000000 1.0
C      1  0.5656210000000  0.4901880000000  0.4809610000000 1.0
C      1  0.4833030000000  0.4841330000000  0.5606910000000 1.0
C      1  0.5146920000000  0.4794620000000  0.5477570000000 1.0
C      1  0.5625620000000  0.5513510000000  0.4852970000000 1.0
C      1  0.4624770000000  0.4779800000000  0.5124040000000 1.0
C      1  0.4945550000000  0.4159700000000  0.4627090000000 1.0
C      1  0.4172670000000  0.4697910000000  0.4846920000000 1.0
C      1  0.5629660000000  0.5225890000000  0.4414810000000 1.0
C      1  0.4183680000000  0.5279130000000  0.4779210000000 1.0
C      1  0.5271650000000  0.5574420000000  0.5402420000000 1.0
C      1  0.5294300000000  0.4297020000000  0.5499830000000 1.0
C      1  0.5075730000000  0.4308210000000  0.5262010000000 1.0
C      1  0.4251970000000  0.4644210000000  0.5140970000000 1.0
C      1  0.4420840000000  0.4927410000000  0.5808640000000 1.0
C      1  0.5405290000000  0.4301160000000  0.4834890000000 1.0
C      1  0.5401180000000  0.4596750000000  0.5555520000000 1.0
C      1  0.5503550000000  0.4439490000000  0.4438510000000 1.0
C      1  0.4767020000000  0.5361350000000  0.5767160000000 1.0
C      1  0.5586920000000  0.4936140000000  0.4324730000000 1.0
C      1  0.5681130000000  0.4401480000000  0.4715450000000 1.0
C      1  0.4502800000000  0.5149070000000  0.5206950000000 1.0
C      1  0.4934620000000  0.4587240000000  0.5287160000000 1.0
C      1  0.4374790000000  0.5253100000000  0.4499440000000 1.0
C      1  0.5196300000000  0.5110730000000  0.5568170000000 1.0
C      1  0.4128220000000  0.5241790000000  0.5311090000000 1.0
C      1  0.4628660000000  0.4624120000000  0.5437630000000 1.0
C      1  0.5159400000000  0.5581590000000  0.4544390000000 1.0
C      1  0.4231300000000  0.5325080000000  0.5572870000000 1.0
C      1  0.4682830000000  0.4710950000000  0.4478750000000 1.0
C      1  0.4835610000000  0.5369520000000  0.5223530000000 1.0
C      1  0.4855430000000  0.4954120000000  0.4742680000000 1.0
C      1  0.5173960000000  0.4880510000000  0.4705250000000 1.0
C      1  0.4919620000000  0.5472550000000  0.4932990000000 1.0
C      1  0.5252680000000  0.4936660000000  0.5923130000000 1.0
C      1  0.4630010000000  0.5129620000000  0.4313300000000 1.0
C      1  0.5496190000000  0.5507850000000  0.4563920000000 1.0
C      1  0.4228080000000  0.4949140000000  0.4713390000000 1.0
C      1  0.4164470000000  0.4722570000000  0.5451260000000 1.0
C      1  0.5335210000000  0.5268940000000  0.5300790000000 1.0
C      1  0.5627280000000  0.4991660000000  0.5322470000000 1.0
C      1  0.4742570000000  0.4240290000000  0.5253430000000 1.0
C      1  0.5007620000000  0.5462830000000  0.4216970000000 1.0
C      1  0.4928170000000  0.5085120000000  0.4465870000000 1.0
C      1  0.4752830000000  0.4407400000000  0.4727380000000 1.0
C      1  0.5526980000000  0.5661920000000  0.5110260000000 1.0
C      1  0.4596240000000  0.4766910000000  0.4801590000000 1.0
C      1  0.4547420000000  0.5500220000000  0.4433310000000 1.0
C      1  0.4051940000000  0.5350730000000  0.5067200000000 1.0
C      1  0.5531530000000  0.5341770000000  0.5645580000000 1.0
C      1  0.4221720000000  0.5130220000000  0.5783550000000 1.0
C      1  0.5880750000000  0.4836590000000  0.5057110000000 1.0
C      1  0.4898870000000  0.5798590000000  0.4986130000000 1.0
C      1  0.4735180000000  0.5836350000000  0.5262080000000 1.0
C      1  0.5218080000000  0.5456890000000  0.4846570000000 1.0
C      1  0.5714880000000  0.5213320000000  0.4719410000000 1.0
C      1  0.4710230000000  0.5030480000000  0.5826790000000 1.0
C      1  0.4633080000000  0.5322970000000  0.4953020000000 1.0
C      1  0.5198870000000  0.4445920000000  0.4376840000000 1.0
C      1  0.4452120000000  0.5469290000000  0.5274260000000 1.0
C      1  0.4772750000000  0.4320070000000  0.4400120000000 1.0
C      1  0.5588890000000  0.5060210000000  0.5611900000000 1.0
C      1  0.4921790000000  0.4887480000000  0.4191310000000 1.0
C      1  0.5781810000000  0.5278370000000  0.5338360000000 1.0
END
