TITL C-2778434-4341-819 -0.000241917613532727 125000 -853.450788627297 0 0 146 (C1) n - 1
REM
REM in /home/nfs/bkarasulu/CARBON/AIRSS/Generating-Clusters/REBO/Only-C1/SD-CG/HFTN-CG
REM
REM
REM
REM
REM
REM ./C.cell (11c1c37f851c82e70ff6c80c92926a4b)
REM
REM compiler GCC version 9.2.1 20190827 (Red Hat 9.2.1-1)
REM options -cpp -mtune=generic -march=x86-64 -g -O0 -fpre-include=/usr/include/finclude/math-vector-fortran.h
REM seed -1387775137 815385252 -807953371 -1524286838 1564885047 -167275417 997392068 -1221007771 -1714114964 1529821509 464983582 -1177700795 -644134069 1158779078 2008039664 2014629536 162948559 704534833 388795249 1080558806 1756029422 -1872531592 -1616481133 -262485942 555881320 -149673915 615496965 2109066560 1795956266 -134831177 -1463241910 1812755109 1953742800
REM
CELL 1.54180   50.00000   50.00000   50.00000   90.00000   90.00000   90.00000
LATT -1
SFAC C  
C      1  0.5400170000000  0.4404730000000  0.4395400000000 1.0
C      1  0.5560880000000  0.4368500000000  0.5490340000000 1.0
C      1  0.6070790000000  0.4951000000000  0.5307500000000 1.0
C      1  0.4192280000000  0.5078370000000  0.4420260000000 1.0
C      1  0.5667010000000  0.4733820000000  0.4798370000000 1.0
C      1  0.4312640000000  0.4864070000000  0.4608310000000 1.0
C      1  0.4614240000000  0.4834380000000  0.4507940000000 1.0
C      1  0.5289460000000  0.4658660000000  0.4524890000000 1.0
C      1  0.5114460000000  0.4633650000000  0.4065220000000 1.0
C      1  0.4133310000000  0.4795160000000  0.5114270000000 1.0
C      1  0.4253950000000  0.5470080000000  0.5331910000000 1.0
C      1  0.4501690000000  0.4847360000000  0.4890930000000 1.0
C      1  0.5756970000000  0.4566100000000  0.5290630000000 1.0
C      1  0.5082970000000  0.5336330000000  0.5043250000000 1.0
C      1  0.5036540000000  0.4788840000000  0.4918420000000 1.0
C      1  0.5696890000000  0.4470010000000  0.4455130000000 1.0
C      1  0.5230880000000  0.4561550000000  0.4828990000000 1.0
C      1  0.4244770000000  0.4526690000000  0.5242180000000 1.0
C      1  0.4636320000000  0.5397960000000  0.5877080000000 1.0
C      1  0.4820860000000  0.4693380000000  0.5074280000000 1.0
C      1  0.5575550000000  0.4839830000000  0.5190530000000 1.0
C      1  0.5670200000000  0.4593860000000  0.5705220000000 1.0
C      1  0.5000620000000  0.4773100000000  0.4582560000000 1.0
C      1  0.4596230000000  0.5824560000000  0.5621010000000 1.0
C      1  0.5084700000000  0.5185420000000  0.4055800000000 1.0
C      1  0.5642380000000  0.4955340000000  0.5608450000000 1.0
C      1  0.5704430000000  0.4985690000000  0.4347370000000 1.0
C      1  0.4060360000000  0.5338750000000  0.4592300000000 1.0
C      1  0.4434340000000  0.4190600000000  0.4809450000000 1.0
C      1  0.5585740000000  0.5734220000000  0.4831220000000 1.0
C      1  0.4661930000000  0.5602640000000  0.5358980000000 1.0
C      1  0.4777100000000  0.4734240000000  0.5589370000000 1.0
C      1  0.5276600000000  0.5825160000000  0.5370920000000 1.0
C      1  0.4920520000000  0.5956450000000  0.4511940000000 1.0
C      1  0.5397210000000  0.4727200000000  0.5545540000000 1.0
C      1  0.4464120000000  0.4344420000000  0.5103630000000 1.0
C      1  0.4649020000000  0.4933500000000  0.4200860000000 1.0
C      1  0.4795160000000  0.5035520000000  0.5934800000000 1.0
C      1  0.5094840000000  0.5521210000000  0.5744490000000 1.0
C      1  0.3998240000000  0.4629500000000  0.5662280000000 1.0
C      1  0.4810700000000  0.4182310000000  0.4333330000000 1.0
C      1  0.4793520000000  0.4335060000000  0.4710490000000 1.0
C      1  0.5661820000000  0.5449640000000  0.4504710000000 1.0
C      1  0.5108610000000  0.5884480000000  0.4978260000000 1.0
C      1  0.4574330000000  0.5926000000000  0.4833280000000 1.0
C      1  0.4025530000000  0.5194190000000  0.4860350000000 1.0
C      1  0.4964980000000  0.4778750000000  0.5865630000000 1.0
C      1  0.4651030000000  0.4416630000000  0.5614870000000 1.0
C      1  0.4762440000000  0.5372360000000  0.5131770000000 1.0
C      1  0.5456360000000  0.4320860000000  0.5200180000000 1.0
C      1  0.5386440000000  0.5761700000000  0.5076270000000 1.0
C      1  0.4853050000000  0.5980560000000  0.4789000000000 1.0
C      1  0.5775560000000  0.5173140000000  0.4927560000000 1.0
C      1  0.4489500000000  0.5259130000000  0.5255800000000 1.0
C      1  0.5380390000000  0.5509200000000  0.4693590000000 1.0
C      1  0.4313970000000  0.5675250000000  0.5539990000000 1.0
C      1  0.4511440000000  0.4630020000000  0.5389610000000 1.0
C      1  0.4422000000000  0.5871450000000  0.4568600000000 1.0
C      1  0.5492210000000  0.4877750000000  0.4571480000000 1.0
C      1  0.5676630000000  0.4075820000000  0.5117920000000 1.0
C      1  0.4413390000000  0.5167270000000  0.4948970000000 1.0
C      1  0.4889390000000  0.4447290000000  0.5834350000000 1.0
C      1  0.4607340000000  0.4881090000000  0.5213580000000 1.0
C      1  0.4954290000000  0.5605110000000  0.4877940000000 1.0
C      1  0.4110260000000  0.4917320000000  0.4861940000000 1.0
C      1  0.4823070000000  0.5780120000000  0.5133820000000 1.0
C      1  0.4870350000000  0.4468430000000  0.4187690000000 1.0
C      1  0.5230820000000  0.5255960000000  0.5594450000000 1.0
C      1  0.5003720000000  0.5866320000000  0.5384130000000 1.0
C      1  0.5694740000000  0.5153800000000  0.5258050000000 1.0
C      1  0.5260970000000  0.4833790000000  0.5905940000000 1.0
C      1  0.4599620000000  0.5517370000000  0.4487060000000 1.0
C      1  0.4641100000000  0.5436630000000  0.4037240000000 1.0
C      1  0.4580900000000  0.4990510000000  0.6168690000000 1.0
C      1  0.5887200000000  0.5344980000000  0.4677940000000 1.0
C      1  0.5335120000000  0.5115570000000  0.4669100000000 1.0
C      1  0.5443350000000  0.5788900000000  0.4521460000000 1.0
C      1  0.5933940000000  0.4841270000000  0.4776510000000 1.0
C      1  0.5146460000000  0.4755530000000  0.5439360000000 1.0
C      1  0.5103950000000  0.3936890000000  0.5301870000000 1.0
C      1  0.5357880000000  0.5685700000000  0.5603890000000 1.0
C      1  0.5468870000000  0.5347850000000  0.5422290000000 1.0
C      1  0.5391210000000  0.4664950000000  0.4093190000000 1.0
C      1  0.5461730000000  0.5207070000000  0.4940410000000 1.0
C      1  0.4563650000000  0.4609610000000  0.4176690000000 1.0
C      1  0.4351800000000  0.4301780000000  0.4556960000000 1.0
C      1  0.4902470000000  0.4553600000000  0.5337010000000 1.0
C      1  0.5628070000000  0.5571760000000  0.5585880000000 1.0
C      1  0.4876640000000  0.5337840000000  0.4463770000000 1.0
C      1  0.5472550000000  0.4566540000000  0.5013140000000 1.0
C      1  0.4166220000000  0.5774730000000  0.5089050000000 1.0
C      1  0.5386320000000  0.5054520000000  0.5772190000000 1.0
C      1  0.5340650000000  0.4020950000000  0.5124070000000 1.0
C      1  0.4082210000000  0.4970370000000  0.5339880000000 1.0
C      1  0.4797590000000  0.4557200000000  0.4494660000000 1.0
C      1  0.5572590000000  0.4133820000000  0.4632570000000 1.0
C      1  0.5931460000000  0.5040650000000  0.4562790000000 1.0
C      1  0.4137740000000  0.5335750000000  0.5092100000000 1.0
C      1  0.5594890000000  0.5249940000000  0.4239300000000 1.0
C      1  0.4621290000000  0.5675320000000  0.4103780000000 1.0
C      1  0.4798040000000  0.5210410000000  0.4179220000000 1.0
C      1  0.5402260000000  0.5528970000000  0.4299460000000 1.0
C      1  0.4521680000000  0.4328010000000  0.4321890000000 1.0
C      1  0.5179250000000  0.5345820000000  0.4482740000000 1.0
C      1  0.5632990000000  0.4692690000000  0.4247110000000 1.0
C      1  0.4897030000000  0.5774180000000  0.5631650000000 1.0
C      1  0.4906680000000  0.4830120000000  0.4021450000000 1.0
C      1  0.5097920000000  0.4271170000000  0.5811140000000 1.0
C      1  0.4049700000000  0.4437260000000  0.5469330000000 1.0
C      1  0.4916380000000  0.5338710000000  0.5923660000000 1.0
C      1  0.5873510000000  0.4824560000000  0.5454220000000 1.0
C      1  0.5770450000000  0.4352980000000  0.4735330000000 1.0
C      1  0.6028860000000  0.4973730000000  0.5033650000000 1.0
C      1  0.5812420000000  0.4356530000000  0.5027430000000 1.0
C      1  0.4673500000000  0.4023860000000  0.4757080000000 1.0
C      1  0.5360860000000  0.4352820000000  0.5760070000000 1.0
C      1  0.4702160000000  0.4279550000000  0.5317340000000 1.0
C      1  0.4384440000000  0.5710670000000  0.4932410000000 1.0
C      1  0.5840110000000  0.5565000000000  0.4922980000000 1.0
C      1  0.4777370000000  0.5332550000000  0.4790920000000 1.0
C      1  0.5857510000000  0.5451510000000  0.5197730000000 1.0
C      1  0.4803000000000  0.5022570000000  0.4694900000000 1.0
C      1  0.4873690000000  0.4024950000000  0.5326210000000 1.0
C      1  0.4583000000000  0.5048600000000  0.5691560000000 1.0
C      1  0.4523740000000  0.5437050000000  0.5624310000000 1.0
C      1  0.4321610000000  0.4967430000000  0.6069050000000 1.0
C      1  0.4409610000000  0.5434450000000  0.4761430000000 1.0
C      1  0.5042590000000  0.4055300000000  0.4427650000000 1.0
C      1  0.5088210000000  0.5092830000000  0.4863780000000 1.0
C      1  0.5207530000000  0.4059060000000  0.4848930000000 1.0
C      1  0.4314520000000  0.4990210000000  0.5781640000000 1.0
C      1  0.5312300000000  0.4129310000000  0.4469820000000 1.0
C      1  0.4102700000000  0.4893710000000  0.5614900000000 1.0
C      1  0.5326790000000  0.5210280000000  0.4070690000000 1.0
C      1  0.4324630000000  0.5377240000000  0.4374790000000 1.0
C      1  0.5312140000000  0.5051680000000  0.5204490000000 1.0
C      1  0.4625740000000  0.4528950000000  0.4898220000000 1.0
C      1  0.5430970000000  0.4605490000000  0.5924790000000 1.0
C      1  0.4674550000000  0.5830100000000  0.4375460000000 1.0
C      1  0.5040770000000  0.5068430000000  0.5410070000000 1.0
C      1  0.5866190000000  0.5608290000000  0.5436360000000 1.0
C      1  0.4726360000000  0.5089590000000  0.5413240000000 1.0
C      1  0.5360990000000  0.5443760000000  0.5144600000000 1.0
C      1  0.5187060000000  0.5960380000000  0.4457510000000 1.0
C      1  0.4220750000000  0.5640280000000  0.4565360000000 1.0
C      1  0.5084720000000  0.4298730000000  0.4795010000000 1.0
END
