TITL C-2778435-5768-20 0.00397550949269785 125000 -910.378059997187 0 0 154 (C1) n - 1
REM
REM in /home/nfs/bkarasulu/CARBON/AIRSS/Generating-Clusters/REBO/Only-C1/SD-CG/HFTN-CG
REM
REM
REM
REM
REM
REM ./C.cell (11c1c37f851c82e70ff6c80c92926a4b)
REM
REM compiler GCC version 9.2.1 20190827 (Red Hat 9.2.1-1)
REM options -cpp -mtune=generic -march=x86-64 -g -O0 -fpre-include=/usr/include/finclude/math-vector-fortran.h
REM seed 1714396721 -177613590 -1874141386 1323602112 1245507606 1273427798 -219008929 -1119449673 558257294 -539864374 -451966754 -1808134816 -556468067 -805491740 -514654418 -1791240398 -1496604648 923939338 -1853466953 -104145644 -1129123718 1016130234 309051638 -2025342407 393610611 -1901601830 -1210649856 -92703798 -756222589 -1835217124 -1345875367 726854532 691148081
REM
CELL 1.54180   50.00000   50.00000   50.00000   90.00000   90.00000   90.00000
LATT -1
SFAC C  
C      1  0.4251570000000  0.5203000000000  0.5636180000000 1.0
C      1  0.4463630000000  0.4678130000000  0.5766760000000 1.0
C      1  0.4228080000000  0.4561930000000  0.4618470000000 1.0
C      1  0.5597640000000  0.5363910000000  0.5233360000000 1.0
C      1  0.5450690000000  0.4613230000000  0.5003630000000 1.0
C      1  0.4706460000000  0.4057810000000  0.5121130000000 1.0
C      1  0.4471100000000  0.4248360000000  0.5548860000000 1.0
C      1  0.5605900000000  0.5421950000000  0.4494560000000 1.0
C      1  0.4889350000000  0.5667210000000  0.5738350000000 1.0
C      1  0.5919500000000  0.5376570000000  0.5168560000000 1.0
C      1  0.4646970000000  0.4149960000000  0.4647770000000 1.0
C      1  0.4439490000000  0.4940010000000  0.4459610000000 1.0
C      1  0.5602530000000  0.4771840000000  0.5200430000000 1.0
C      1  0.4792950000000  0.5194920000000  0.5290270000000 1.0
C      1  0.5804520000000  0.4537430000000  0.5554360000000 1.0
C      1  0.4501680000000  0.5316470000000  0.4997760000000 1.0
C      1  0.4837830000000  0.5545610000000  0.4661830000000 1.0
C      1  0.4260190000000  0.5032330000000  0.4854690000000 1.0
C      1  0.4382350000000  0.4458030000000  0.5068250000000 1.0
C      1  0.5451920000000  0.4918000000000  0.5405160000000 1.0
C      1  0.5392320000000  0.5360090000000  0.4985270000000 1.0
C      1  0.4702560000000  0.4587060000000  0.4747730000000 1.0
C      1  0.4658630000000  0.4496630000000  0.4303040000000 1.0
C      1  0.5558360000000  0.5549340000000  0.5495160000000 1.0
C      1  0.5555780000000  0.4154420000000  0.5234230000000 1.0
C      1  0.4172860000000  0.4583180000000  0.4881780000000 1.0
C      1  0.4616250000000  0.5355540000000  0.4301340000000 1.0
C      1  0.5236650000000  0.5105180000000  0.3926140000000 1.0
C      1  0.5421170000000  0.4416910000000  0.5504310000000 1.0
C      1  0.4281210000000  0.5583960000000  0.4732140000000 1.0
C      1  0.4074640000000  0.5517980000000  0.5307380000000 1.0
C      1  0.5510490000000  0.5124320000000  0.4640500000000 1.0
C      1  0.4746270000000  0.4107110000000  0.5581870000000 1.0
C      1  0.5126640000000  0.4578830000000  0.5076920000000 1.0
C      1  0.4828270000000  0.4889760000000  0.6013670000000 1.0
C      1  0.5029410000000  0.5766210000000  0.4312300000000 1.0
C      1  0.4523740000000  0.4221290000000  0.4935080000000 1.0
C      1  0.5490260000000  0.4814750000000  0.4512480000000 1.0
C      1  0.4115100000000  0.4939220000000  0.4553920000000 1.0
C      1  0.4393190000000  0.5214620000000  0.4627470000000 1.0
C      1  0.4722530000000  0.4882660000000  0.5183320000000 1.0
C      1  0.3976420000000  0.5038640000000  0.5242350000000 1.0
C      1  0.3980720000000  0.4782830000000  0.5043550000000 1.0
C      1  0.5024570000000  0.4324600000000  0.5218690000000 1.0
C      1  0.4593790000000  0.5556300000000  0.5609830000000 1.0
C      1  0.5726320000000  0.4394040000000  0.5296410000000 1.0
C      1  0.5149200000000  0.5824810000000  0.4950400000000 1.0
C      1  0.5798610000000  0.5624260000000  0.4880810000000 1.0
C      1  0.4780250000000  0.4260940000000  0.4415110000000 1.0
C      1  0.5809540000000  0.4745170000000  0.5696300000000 1.0
C      1  0.4723080000000  0.6028310000000  0.5164760000000 1.0
C      1  0.4906930000000  0.6024030000000  0.4494270000000 1.0
C      1  0.4714460000000  0.5652990000000  0.5026760000000 1.0
C      1  0.3968720000000  0.5299420000000  0.5117990000000 1.0
C      1  0.5439840000000  0.4546840000000  0.4290090000000 1.0
C      1  0.5893770000000  0.4834300000000  0.5182080000000 1.0
C      1  0.4034340000000  0.5356310000000  0.4798990000000 1.0
C      1  0.5458880000000  0.6023710000000  0.5368320000000 1.0
C      1  0.4920330000000  0.4329070000000  0.5760030000000 1.0
C      1  0.4607110000000  0.4440630000000  0.5744760000000 1.0
C      1  0.4558140000000  0.4896040000000  0.5918300000000 1.0
C      1  0.5224250000000  0.5075710000000  0.4994990000000 1.0
C      1  0.5745790000000  0.4505250000000  0.4370350000000 1.0
C      1  0.4512410000000  0.5750560000000  0.4771190000000 1.0
C      1  0.5283940000000  0.5123130000000  0.5288650000000 1.0
C      1  0.5961180000000  0.5344950000000  0.4841520000000 1.0
C      1  0.5857960000000  0.4994110000000  0.4333950000000 1.0
C      1  0.4438850000000  0.4745060000000  0.5242730000000 1.0
C      1  0.5593250000000  0.5660160000000  0.4692260000000 1.0
C      1  0.4985010000000  0.4715370000000  0.5839280000000 1.0
C      1  0.4961740000000  0.5027350000000  0.4568270000000 1.0
C      1  0.4352480000000  0.5674350000000  0.5433960000000 1.0
C      1  0.5392830000000  0.4158620000000  0.5711980000000 1.0
C      1  0.5378670000000  0.4028320000000  0.5421370000000 1.0
C      1  0.5162310000000  0.4505560000000  0.4644870000000 1.0
C      1  0.4983610000000  0.5217050000000  0.4836970000000 1.0
C      1  0.4362600000000  0.5047160000000  0.5139880000000 1.0
C      1  0.5796320000000  0.5113070000000  0.5351720000000 1.0
C      1  0.5241300000000  0.5957070000000  0.4480870000000 1.0
C      1  0.5240810000000  0.4176960000000  0.4686390000000 1.0
C      1  0.4642180000000  0.5378610000000  0.4705990000000 1.0
C      1  0.5467440000000  0.5221770000000  0.4052520000000 1.0
C      1  0.4696490000000  0.5010930000000  0.5561240000000 1.0
C      1  0.5864910000000  0.4529740000000  0.5026340000000 1.0
C      1  0.4778940000000  0.5356660000000  0.5821860000000 1.0
C      1  0.5144840000000  0.5454090000000  0.4357630000000 1.0
C      1  0.5432990000000  0.5423410000000  0.4248570000000 1.0
C      1  0.5424060000000  0.4687160000000  0.5609150000000 1.0
C      1  0.4484310000000  0.5910020000000  0.5225510000000 1.0
C      1  0.4289670000000  0.5289630000000  0.5352940000000 1.0
C      1  0.5136450000000  0.3946640000000  0.5282920000000 1.0
C      1  0.4957570000000  0.5331190000000  0.4098580000000 1.0
C      1  0.5176290000000  0.3998250000000  0.4971510000000 1.0
C      1  0.4339120000000  0.5254480000000  0.4235550000000 1.0
C      1  0.3927640000000  0.5032450000000  0.4823140000000 1.0
C      1  0.5030000000000  0.5129840000000  0.5882100000000 1.0
C      1  0.4984590000000  0.5912240000000  0.5518720000000 1.0
C      1  0.5422280000000  0.5335730000000  0.5724750000000 1.0
C      1  0.4992170000000  0.5149210000000  0.5557700000000 1.0
C      1  0.4940730000000  0.4706490000000  0.5295060000000 1.0
C      1  0.5094840000000  0.4891400000000  0.4068160000000 1.0
C      1  0.4277340000000  0.4724770000000  0.5527900000000 1.0
C      1  0.5360620000000  0.5040950000000  0.5838050000000 1.0
C      1  0.5010940000000  0.4509430000000  0.4053300000000 1.0
C      1  0.4896570000000  0.5405340000000  0.5091710000000 1.0
C      1  0.5010830000000  0.6026380000000  0.5136310000000 1.0
C      1  0.5252540000000  0.5347850000000  0.4664940000000 1.0
C      1  0.5887370000000  0.4771000000000  0.4786520000000 1.0
C      1  0.5221240000000  0.4379430000000  0.5856980000000 1.0
C      1  0.4507920000000  0.5165500000000  0.5775380000000 1.0
C      1  0.5823210000000  0.5707780000000  0.5163250000000 1.0
C      1  0.5712580000000  0.4302100000000  0.4823510000000 1.0
C      1  0.5647250000000  0.5016600000000  0.5645940000000 1.0
C      1  0.5879880000000  0.4741270000000  0.4461670000000 1.0
C      1  0.4854920000000  0.3988200000000  0.5352080000000 1.0
C      1  0.4800970000000  0.5584440000000  0.4202740000000 1.0
C      1  0.4780630000000  0.5150860000000  0.4408150000000 1.0
C      1  0.4918430000000  0.4409180000000  0.4778150000000 1.0
C      1  0.5368910000000  0.5840160000000  0.4710050000000 1.0
C      1  0.5215850000000  0.5346540000000  0.5488030000000 1.0
C      1  0.4076070000000  0.4586260000000  0.5290130000000 1.0
C      1  0.4964890000000  0.5776170000000  0.4705280000000 1.0
C      1  0.4410030000000  0.5590970000000  0.5120200000000 1.0
C      1  0.4696640000000  0.5047260000000  0.4917370000000 1.0
C      1  0.4289190000000  0.4358390000000  0.5368300000000 1.0
C      1  0.5796190000000  0.4280380000000  0.4519580000000 1.0
C      1  0.5480740000000  0.4134060000000  0.4924900000000 1.0
C      1  0.5170030000000  0.5554240000000  0.5082860000000 1.0
C      1  0.4787490000000  0.4756010000000  0.4124930000000 1.0
C      1  0.5608290000000  0.4607280000000  0.4731210000000 1.0
C      1  0.5094700000000  0.5600860000000  0.5472480000000 1.0
C      1  0.4897080000000  0.4101530000000  0.4872280000000 1.0
C      1  0.4530950000000  0.4979770000000  0.4151630000000 1.0
C      1  0.5642370000000  0.5544550000000  0.5825550000000 1.0
C      1  0.4895120000000  0.4749480000000  0.5577170000000 1.0
C      1  0.4156240000000  0.5389530000000  0.4480450000000 1.0
C      1  0.5874770000000  0.5240190000000  0.4528120000000 1.0
C      1  0.5290410000000  0.4711600000000  0.5887400000000 1.0
C      1  0.5802800000000  0.5060110000000  0.4802920000000 1.0
C      1  0.5385730000000  0.4844940000000  0.4190470000000 1.0
C      1  0.5662550000000  0.5014290000000  0.4135990000000 1.0
C      1  0.4788180000000  0.5137380000000  0.4008780000000 1.0
C      1  0.4090330000000  0.4981470000000  0.5507200000000 1.0
C      1  0.4615880000000  0.5948680000000  0.4614840000000 1.0
C      1  0.5069010000000  0.4208330000000  0.4399660000000 1.0
C      1  0.5636040000000  0.5806270000000  0.5349810000000 1.0
C      1  0.5193830000000  0.4383320000000  0.4217090000000 1.0
C      1  0.5107130000000  0.4796250000000  0.4609400000000 1.0
C      1  0.5185190000000  0.6095100000000  0.5368040000000 1.0
C      1  0.4619720000000  0.4840640000000  0.4700170000000 1.0
C      1  0.4399250000000  0.4545470000000  0.4409430000000 1.0
C      1  0.5110170000000  0.4317380000000  0.5480160000000 1.0
C      1  0.5231090000000  0.4812220000000  0.4888640000000 1.0
C      1  0.4785340000000  0.5683090000000  0.5355890000000 1.0
END
