TITL C-2778422-5617-250 -0.0017343441358161 125000 -398.966142634232 0 0 70 (C1) n - 1
REM
REM in /home/nfs/bkarasulu/CARBON/AIRSS/Generating-Clusters/REBO/Only-C1/SD-CG/HFTN-CG
REM
REM
REM
REM
REM
REM ./C.cell (11c1c37f851c82e70ff6c80c92926a4b)
REM
REM compiler GCC version 9.2.1 20190827 (Red Hat 9.2.1-1)
REM options -cpp -mtune=generic -march=x86-64 -g -O0 -fpre-include=/usr/include/finclude/math-vector-fortran.h
REM seed -352352400 -605781888 -18099652 -280918701 -1312806460 -703686865 9650710 -1425874144 501893750 -388922069 105907181 -77158106 805508827 696671681 861592794 1571673678 -119158199 1107707592 -690589424 -1263503141 1228894948 1283736955 -1753275520 504088396 535042084 -378212262 1123709162 165112675 752174922 59320701 -863800278 -175950587 -1721025180
REM
CELL 1.54180   50.00000   50.00000   50.00000   90.00000   90.00000   90.00000
LATT -1
SFAC C  
C      1  0.5586010000000  0.4754610000000  0.4935790000000 1.0
C      1  0.4624210000000  0.5697880000000  0.4936460000000 1.0
C      1  0.5106170000000  0.4971660000000  0.4345880000000 1.0
C      1  0.5501220000000  0.4748630000000  0.5234000000000 1.0
C      1  0.4882350000000  0.5381010000000  0.5501620000000 1.0
C      1  0.5205070000000  0.4806500000000  0.5073590000000 1.0
C      1  0.4552710000000  0.4846490000000  0.5560210000000 1.0
C      1  0.5107100000000  0.4299900000000  0.4830810000000 1.0
C      1  0.5145960000000  0.5069280000000  0.5841290000000 1.0
C      1  0.5204100000000  0.4815830000000  0.5622200000000 1.0
C      1  0.4969030000000  0.4857290000000  0.4833360000000 1.0
C      1  0.5287790000000  0.5601420000000  0.5259640000000 1.0
C      1  0.4721040000000  0.5559920000000  0.5182780000000 1.0
C      1  0.4683870000000  0.4552020000000  0.5538460000000 1.0
C      1  0.4982050000000  0.4328000000000  0.5209140000000 1.0
C      1  0.5155210000000  0.5509350000000  0.4675390000000 1.0
C      1  0.5440400000000  0.5621970000000  0.4998020000000 1.0
C      1  0.4990050000000  0.5239110000000  0.4277820000000 1.0
C      1  0.4341590000000  0.5653170000000  0.4925550000000 1.0
C      1  0.5648340000000  0.5284090000000  0.4643150000000 1.0
C      1  0.4632930000000  0.5522550000000  0.4577390000000 1.0
C      1  0.4800720000000  0.4517760000000  0.4959250000000 1.0
C      1  0.4436760000000  0.5672860000000  0.4448530000000 1.0
C      1  0.4656170000000  0.5149270000000  0.5798150000000 1.0
C      1  0.5455200000000  0.4551040000000  0.4522900000000 1.0
C      1  0.5133540000000  0.5742430000000  0.4920110000000 1.0
C      1  0.5218440000000  0.4519920000000  0.5564350000000 1.0
C      1  0.4931710000000  0.4863080000000  0.5434840000000 1.0
C      1  0.5607950000000  0.4497710000000  0.4793340000000 1.0
C      1  0.4744380000000  0.5267610000000  0.4424580000000 1.0
C      1  0.4326870000000  0.4911640000000  0.4892800000000 1.0
C      1  0.4307600000000  0.5189690000000  0.4831970000000 1.0
C      1  0.4994660000000  0.5625030000000  0.5205400000000 1.0
C      1  0.5495120000000  0.4871200000000  0.4392620000000 1.0
C      1  0.5201280000000  0.5226780000000  0.4838530000000 1.0
C      1  0.5074230000000  0.5119070000000  0.5112890000000 1.0
C      1  0.5088860000000  0.5272950000000  0.5369380000000 1.0
C      1  0.5662440000000  0.5241680000000  0.5368080000000 1.0
C      1  0.4953540000000  0.4424250000000  0.5488830000000 1.0
C      1  0.4378010000000  0.4853400000000  0.5171960000000 1.0
C      1  0.4842850000000  0.4720900000000  0.5215990000000 1.0
C      1  0.5532190000000  0.4383760000000  0.5077470000000 1.0
C      1  0.5403570000000  0.5089290000000  0.5629260000000 1.0
C      1  0.5384730000000  0.5380320000000  0.5453690000000 1.0
C      1  0.5227370000000  0.4482220000000  0.5057820000000 1.0
C      1  0.4867910000000  0.5686750000000  0.4717390000000 1.0
C      1  0.4464500000000  0.4752180000000  0.4695780000000 1.0
C      1  0.5483370000000  0.5161230000000  0.4435400000000 1.0
C      1  0.4684140000000  0.5505760000000  0.5619460000000 1.0
C      1  0.4545670000000  0.5325070000000  0.4822120000000 1.0
C      1  0.5481530000000  0.4950020000000  0.4782580000000 1.0
C      1  0.4714740000000  0.5047070000000  0.4594800000000 1.0
C      1  0.5158160000000  0.4399840000000  0.4571240000000 1.0
C      1  0.5445520000000  0.4471070000000  0.5389910000000 1.0
C      1  0.4667630000000  0.3963750000000  0.4902720000000 1.0
C      1  0.4932840000000  0.4534590000000  0.4456780000000 1.0
C      1  0.4265040000000  0.5463830000000  0.5119720000000 1.0
C      1  0.4821930000000  0.4177870000000  0.4950730000000 1.0
C      1  0.4795280000000  0.5128330000000  0.4917280000000 1.0
C      1  0.5240590000000  0.5340820000000  0.4414920000000 1.0
C      1  0.4467370000000  0.5076090000000  0.5367630000000 1.0
C      1  0.5194130000000  0.4971580000000  0.4635410000000 1.0
C      1  0.5622440000000  0.4951460000000  0.5412860000000 1.0
C      1  0.4535110000000  0.4614540000000  0.5237260000000 1.0
C      1  0.5328680000000  0.4661670000000  0.4226340000000 1.0
C      1  0.4763270000000  0.4655770000000  0.4686110000000 1.0
C      1  0.4499170000000  0.5351720000000  0.5269510000000 1.0
C      1  0.4878940000000  0.5032230000000  0.5696480000000 1.0
C      1  0.5030500000000  0.4702160000000  0.4243940000000 1.0
C      1  0.5486180000000  0.5380080000000  0.4858390000000 1.0
END
