TITL C-2778431-5191-1384 -0.00219744809856914 125000 -747.122894897151 0 0 128 (C1) n - 1
REM
REM in /home/nfs/bkarasulu/CARBON/AIRSS/Generating-Clusters/REBO/Only-C1/SD-CG/HFTN-CG
REM
REM
REM
REM
REM
REM ./C.cell (11c1c37f851c82e70ff6c80c92926a4b)
REM
REM compiler GCC version 9.2.1 20190827 (Red Hat 9.2.1-1)
REM options -cpp -mtune=generic -march=x86-64 -g -O0 -fpre-include=/usr/include/finclude/math-vector-fortran.h
REM seed 963793632 1736460260 -583840881 1712507898 -1324628028 1038224308 1448916027 74135076 2030244591 -1872578986 -1140477283 1479901648 -865623963 -1257204074 45014904 523784801 -1737542716 2130521746 174093881 1348526899 -1709903376 -849085944 225925417 853382018 -2034495152 -1758372247 1512103889 749107565 -1269369934 -1021649387 -1793836572 -890222112 97128867
REM
CELL 1.54180   50.00000   50.00000   50.00000   90.00000   90.00000   90.00000
LATT -1
SFAC C  
C      1  0.4337600000000  0.5527520000000  0.5280440000000 1.0
C      1  0.4521480000000  0.4953710000000  0.4034750000000 1.0
C      1  0.4124070000000  0.4743730000000  0.5095480000000 1.0
C      1  0.5252900000000  0.4963450000000  0.5165300000000 1.0
C      1  0.5696580000000  0.4764620000000  0.5646250000000 1.0
C      1  0.4894420000000  0.5339330000000  0.5941020000000 1.0
C      1  0.5315650000000  0.5318930000000  0.4387420000000 1.0
C      1  0.4144630000000  0.4985410000000  0.4436040000000 1.0
C      1  0.4347100000000  0.4998570000000  0.5308140000000 1.0
C      1  0.5441210000000  0.5703540000000  0.5402760000000 1.0
C      1  0.4129250000000  0.4967830000000  0.5554950000000 1.0
C      1  0.4357570000000  0.4841340000000  0.4261900000000 1.0
C      1  0.4873850000000  0.5244170000000  0.5232900000000 1.0
C      1  0.5480700000000  0.4587490000000  0.4455740000000 1.0
C      1  0.5942300000000  0.4831270000000  0.4784420000000 1.0
C      1  0.4725420000000  0.5426270000000  0.4196420000000 1.0
C      1  0.5260860000000  0.5986900000000  0.5457230000000 1.0
C      1  0.4630900000000  0.4926390000000  0.5433350000000 1.0
C      1  0.4681220000000  0.5483940000000  0.5083890000000 1.0
C      1  0.4239510000000  0.5374380000000  0.4775470000000 1.0
C      1  0.5776620000000  0.5084690000000  0.4734600000000 1.0
C      1  0.5236680000000  0.5633340000000  0.5639450000000 1.0
C      1  0.5052480000000  0.4452850000000  0.4548980000000 1.0
C      1  0.5669420000000  0.5052990000000  0.4431950000000 1.0
C      1  0.4902070000000  0.4204650000000  0.5279560000000 1.0
C      1  0.4537130000000  0.4912790000000  0.5820860000000 1.0
C      1  0.5032790000000  0.4864510000000  0.3969340000000 1.0
C      1  0.5517700000000  0.4129780000000  0.5045600000000 1.0
C      1  0.4331780000000  0.5634210000000  0.4961920000000 1.0
C      1  0.5211730000000  0.5176780000000  0.4138340000000 1.0
C      1  0.4487250000000  0.5136040000000  0.4571730000000 1.0
C      1  0.4881910000000  0.5204110000000  0.4890850000000 1.0
C      1  0.4723240000000  0.4876890000000  0.3868560000000 1.0
C      1  0.5367050000000  0.5245180000000  0.5059250000000 1.0
C      1  0.4678050000000  0.4926870000000  0.5097840000000 1.0
C      1  0.4492290000000  0.4634820000000  0.5373390000000 1.0
C      1  0.4599630000000  0.4168600000000  0.5282740000000 1.0
C      1  0.5497370000000  0.5520000000000  0.4594730000000 1.0
C      1  0.4581000000000  0.4492820000000  0.4905670000000 1.0
C      1  0.4658060000000  0.5844540000000  0.4634500000000 1.0
C      1  0.5171410000000  0.5263510000000  0.5952630000000 1.0
C      1  0.5872500000000  0.4933410000000  0.5490450000000 1.0
C      1  0.5253640000000  0.5046990000000  0.4575130000000 1.0
C      1  0.4789580000000  0.4742680000000  0.4872220000000 1.0
C      1  0.5107550000000  0.4466080000000  0.5579000000000 1.0
C      1  0.5500660000000  0.4766470000000  0.5187400000000 1.0
C      1  0.4379870000000  0.5422580000000  0.4409100000000 1.0
C      1  0.5084410000000  0.4653760000000  0.4891390000000 1.0
C      1  0.5382850000000  0.4522810000000  0.4145330000000 1.0
C      1  0.4509020000000  0.5840410000000  0.4880670000000 1.0
C      1  0.4726400000000  0.5480390000000  0.5695170000000 1.0
C      1  0.5545600000000  0.4431750000000  0.5806570000000 1.0
C      1  0.5597790000000  0.4514630000000  0.4975930000000 1.0
C      1  0.4567010000000  0.5666150000000  0.4382840000000 1.0
C      1  0.4626030000000  0.5134930000000  0.4287760000000 1.0
C      1  0.4375810000000  0.4540040000000  0.4652910000000 1.0
C      1  0.5179510000000  0.5603630000000  0.4377240000000 1.0
C      1  0.5330280000000  0.5025520000000  0.5487130000000 1.0
C      1  0.5012130000000  0.4019120000000  0.4877070000000 1.0
C      1  0.4956380000000  0.5033130000000  0.4656200000000 1.0
C      1  0.5301000000000  0.5797920000000  0.4589960000000 1.0
C      1  0.5935040000000  0.4793620000000  0.5228940000000 1.0
C      1  0.4847460000000  0.4109630000000  0.4552220000000 1.0
C      1  0.5538040000000  0.5384410000000  0.5318180000000 1.0
C      1  0.5274010000000  0.4992870000000  0.5961040000000 1.0
C      1  0.4021190000000  0.5029100000000  0.5236980000000 1.0
C      1  0.5551600000000  0.5315910000000  0.5650090000000 1.0
C      1  0.5038550000000  0.5137730000000  0.5451290000000 1.0
C      1  0.5640520000000  0.4435880000000  0.4658760000000 1.0
C      1  0.4861180000000  0.4335950000000  0.4791850000000 1.0
C      1  0.4573450000000  0.4063720000000  0.4518630000000 1.0
C      1  0.5109420000000  0.4772240000000  0.5833620000000 1.0
C      1  0.5910190000000  0.4589070000000  0.4738290000000 1.0
C      1  0.5091920000000  0.5638800000000  0.5221540000000 1.0
C      1  0.4539760000000  0.4692290000000  0.4432220000000 1.0
C      1  0.4940630000000  0.5621980000000  0.5521780000000 1.0
C      1  0.5819370000000  0.4528860000000  0.5216800000000 1.0
C      1  0.5760990000000  0.5280120000000  0.5004480000000 1.0
C      1  0.5218300000000  0.5843880000000  0.4900560000000 1.0
C      1  0.4980410000000  0.5907780000000  0.4663780000000 1.0
C      1  0.5460740000000  0.4919480000000  0.5715220000000 1.0
C      1  0.5125310000000  0.5417360000000  0.4977850000000 1.0
C      1  0.4185450000000  0.5288580000000  0.5090860000000 1.0
C      1  0.5292360000000  0.4459850000000  0.5042890000000 1.0
C      1  0.5470370000000  0.4191830000000  0.4778160000000 1.0
C      1  0.5344660000000  0.5428770000000  0.5797610000000 1.0
C      1  0.4249550000000  0.4900230000000  0.5790230000000 1.0
C      1  0.5465320000000  0.5221700000000  0.4744170000000 1.0
C      1  0.5120220000000  0.4581420000000  0.4082900000000 1.0
C      1  0.4750720000000  0.4828830000000  0.4561910000000 1.0
C      1  0.5697710000000  0.4448810000000  0.5518370000000 1.0
C      1  0.4882560000000  0.5595450000000  0.4416670000000 1.0
C      1  0.5408150000000  0.5678520000000  0.5085250000000 1.0
C      1  0.4581350000000  0.5315910000000  0.5362440000000 1.0
C      1  0.4988290000000  0.4481190000000  0.5178840000000 1.0
C      1  0.4617250000000  0.4408080000000  0.5470100000000 1.0
C      1  0.4946420000000  0.4466140000000  0.4261640000000 1.0
C      1  0.4870960000000  0.5723590000000  0.5001050000000 1.0
C      1  0.5337410000000  0.4520860000000  0.5366040000000 1.0
C      1  0.4961600000000  0.4805260000000  0.5244300000000 1.0
C      1  0.4547080000000  0.5685840000000  0.5497930000000 1.0
C      1  0.5780760000000  0.5199640000000  0.5472610000000 1.0
C      1  0.5232830000000  0.4730120000000  0.4614890000000 1.0
C      1  0.4718370000000  0.4688950000000  0.5832850000000 1.0
C      1  0.5029120000000  0.3991680000000  0.5144720000000 1.0
C      1  0.4496760000000  0.4184390000000  0.5012840000000 1.0
C      1  0.4825540000000  0.4488660000000  0.5648590000000 1.0
C      1  0.4309990000000  0.4872650000000  0.4701780000000 1.0
C      1  0.4368270000000  0.4623380000000  0.5122630000000 1.0
C      1  0.5759140000000  0.5668260000000  0.4720130000000 1.0
C      1  0.4647890000000  0.5164350000000  0.5657850000000 1.0
C      1  0.4119370000000  0.5267180000000  0.4491810000000 1.0
C      1  0.4395440000000  0.4203540000000  0.4704580000000 1.0
C      1  0.4989790000000  0.5945220000000  0.5490170000000 1.0
C      1  0.4984640000000  0.4849560000000  0.5582010000000 1.0
C      1  0.5346980000000  0.4917780000000  0.4095200000000 1.0
C      1  0.4379430000000  0.5027160000000  0.4977350000000 1.0
C      1  0.5192140000000  0.4164340000000  0.4653750000000 1.0
C      1  0.5274040000000  0.4507760000000  0.5830170000000 1.0
C      1  0.4672820000000  0.5949640000000  0.5111800000000 1.0
C      1  0.4696340000000  0.5914730000000  0.5397620000000 1.0
C      1  0.5538030000000  0.4859800000000  0.4291040000000 1.0
C      1  0.4901810000000  0.5158180000000  0.4089250000000 1.0
C      1  0.4979610000000  0.5568340000000  0.4721680000000 1.0
C      1  0.5538240000000  0.4258100000000  0.5284600000000 1.0
C      1  0.5731320000000  0.5008990000000  0.5124520000000 1.0
C      1  0.5658520000000  0.5539640000000  0.4965760000000 1.0
C      1  0.4576440000000  0.5335260000000  0.4818490000000 1.0
END
