TITL C-2778423-5760-44 -0.0920954858783241 125000 -743.707585720098 0 0 129 (C1) n - 1
REM
REM in /home/nfs/bkarasulu/CARBON/AIRSS/Generating-Clusters/REBO/Only-C1/SD-CG/HFTN-CG
REM
REM
REM
REM
REM
REM ./C.cell (11c1c37f851c82e70ff6c80c92926a4b)
REM
REM compiler GCC version 9.2.1 20190827 (Red Hat 9.2.1-1)
REM options -cpp -mtune=generic -march=x86-64 -g -O0 -fpre-include=/usr/include/finclude/math-vector-fortran.h
REM seed 1134431891 930014009 398301819 34502743 -1922549056 1746884976 1436915304 -127425109 1366773249 -1435488934 836025652 -905010262 -598853361 -1034478883 -2015276900 -1777757132 -654417292 -1360339676 938872290 342448505 -593893112 827471406 1700040055 503853583 1068015368 1940202678 1490565802 28617541 -1045570986 -1174779078 -1626062413 753414485 -1000866482
REM
CELL 1.54180   50.00000   50.00000   50.00000   90.00000   90.00000   90.00000
LATT -1
SFAC C  
C      1  0.4682090000000  0.4122670000000  0.4599650000000 1.0
C      1  0.5804980000000  0.4325830000000  0.4884050000000 1.0
C      1  0.4641780000000  0.4568360000000  0.5730100000000 1.0
C      1  0.5398510000000  0.5919160000000  0.4997370000000 1.0
C      1  0.4998880000000  0.3997500000000  0.5081750000000 1.0
C      1  0.5830820000000  0.5017240000000  0.5163840000000 1.0
C      1  0.4513890000000  0.4200810000000  0.5068900000000 1.0
C      1  0.4942720000000  0.4960350000000  0.4166700000000 1.0
C      1  0.5760690000000  0.4481090000000  0.4583270000000 1.0
C      1  0.5551130000000  0.5674410000000  0.5171080000000 1.0
C      1  0.5948720000000  0.5086150000000  0.4691080000000 1.0
C      1  0.4363060000000  0.5434970000000  0.5638700000000 1.0
C      1  0.5557570000000  0.5356510000000  0.4764120000000 1.0
C      1  0.4902590000000  0.4431320000000  0.5745200000000 1.0
C      1  0.4011490000000  0.5614350000000  0.5267830000000 1.0
C      1  0.4868490000000  0.4896560000000  0.5700700000000 1.0
C      1  0.4486680000000  0.4780100000000  0.5684650000000 1.0
C      1  0.4592770000000  0.4663120000000  0.4411490000000 1.0
C      1  0.5047650000000  0.4642310000000  0.4196700000000 1.0
C      1  0.5089750000000  0.4616800000000  0.6043340000000 1.0
C      1  0.4674300000000  0.4755020000000  0.4882120000000 1.0
C      1  0.5093210000000  0.5073600000000  0.5858150000000 1.0
C      1  0.5648150000000  0.5336310000000  0.5508830000000 1.0
C      1  0.4722580000000  0.4401600000000  0.5242690000000 1.0
C      1  0.4741360000000  0.5182800000000  0.5702910000000 1.0
C      1  0.4483890000000  0.5242900000000  0.5788390000000 1.0
C      1  0.5698430000000  0.4005030000000  0.4836670000000 1.0
C      1  0.5532760000000  0.4306590000000  0.4439550000000 1.0
C      1  0.5148750000000  0.4659340000000  0.4696460000000 1.0
C      1  0.4394250000000  0.5146630000000  0.4714070000000 1.0
C      1  0.4203570000000  0.5205440000000  0.5125230000000 1.0
C      1  0.3834960000000  0.5582160000000  0.5020790000000 1.0
C      1  0.5462430000000  0.4699340000000  0.5123660000000 1.0
C      1  0.4176070000000  0.5517340000000  0.4540340000000 1.0
C      1  0.5148410000000  0.5439920000000  0.4413600000000 1.0
C      1  0.5640650000000  0.5267630000000  0.5197000000000 1.0
C      1  0.4358190000000  0.5101490000000  0.5983180000000 1.0
C      1  0.4009090000000  0.5543830000000  0.4770300000000 1.0
C      1  0.6037050000000  0.4682130000000  0.5214470000000 1.0
C      1  0.5083820000000  0.5351610000000  0.5027810000000 1.0
C      1  0.4741980000000  0.5831100000000  0.5479470000000 1.0
C      1  0.4842670000000  0.4141370000000  0.5686430000000 1.0
C      1  0.5688490000000  0.5222900000000  0.4076830000000 1.0
C      1  0.4871490000000  0.4251160000000  0.4450110000000 1.0
C      1  0.5126960000000  0.4993560000000  0.4658710000000 1.0
C      1  0.4938720000000  0.5053010000000  0.5123500000000 1.0
C      1  0.4233720000000  0.5019390000000  0.4908680000000 1.0
C      1  0.4181320000000  0.5640940000000  0.5487110000000 1.0
C      1  0.4372990000000  0.5930610000000  0.4787080000000 1.0
C      1  0.4425390000000  0.4843230000000  0.5392470000000 1.0
C      1  0.5439240000000  0.5299420000000  0.5678740000000 1.0
C      1  0.4655250000000  0.5596280000000  0.5111230000000 1.0
C      1  0.4685570000000  0.5451190000000  0.4243820000000 1.0
C      1  0.5554560000000  0.5024770000000  0.4674370000000 1.0
C      1  0.5307720000000  0.4277170000000  0.5575760000000 1.0
C      1  0.5007450000000  0.4305960000000  0.5201590000000 1.0
C      1  0.5103580000000  0.4614180000000  0.5222530000000 1.0
C      1  0.4230950000000  0.5530860000000  0.5030490000000 1.0
C      1  0.5376600000000  0.4423700000000  0.5299390000000 1.0
C      1  0.4237050000000  0.5309310000000  0.4357210000000 1.0
C      1  0.5461630000000  0.4886940000000  0.4314250000000 1.0
C      1  0.5155720000000  0.4419010000000  0.4509180000000 1.0
C      1  0.4293770000000  0.5117130000000  0.5363890000000 1.0
C      1  0.4438610000000  0.5691940000000  0.4598570000000 1.0
C      1  0.5202910000000  0.5546410000000  0.5706800000000 1.0
C      1  0.5535250000000  0.5651490000000  0.4830890000000 1.0
C      1  0.5019160000000  0.3982700000000  0.4759130000000 1.0
C      1  0.5312630000000  0.5244360000000  0.4570830000000 1.0
C      1  0.5094330000000  0.4017780000000  0.5629720000000 1.0
C      1  0.5430010000000  0.4775690000000  0.4801130000000 1.0
C      1  0.5725050000000  0.4958610000000  0.4169640000000 1.0
C      1  0.4734430000000  0.5857310000000  0.4953720000000 1.0
C      1  0.4660270000000  0.4701540000000  0.5190670000000 1.0
C      1  0.5360590000000  0.5601310000000  0.5428980000000 1.0
C      1  0.5501010000000  0.4466770000000  0.4885220000000 1.0
C      1  0.5724130000000  0.4400570000000  0.5493700000000 1.0
C      1  0.5694400000000  0.4339630000000  0.5206060000000 1.0
C      1  0.5235180000000  0.4513450000000  0.5772660000000 1.0
C      1  0.5355650000000  0.4506610000000  0.4256740000000 1.0
C      1  0.5811160000000  0.5226510000000  0.4904850000000 1.0
C      1  0.5449930000000  0.4166250000000  0.4803400000000 1.0
C      1  0.4807250000000  0.4496960000000  0.4310690000000 1.0
C      1  0.5107950000000  0.5172570000000  0.5380790000000 1.0
C      1  0.4939550000000  0.5356220000000  0.4185820000000 1.0
C      1  0.5950980000000  0.4782730000000  0.4948250000000 1.0
C      1  0.5438040000000  0.5353980000000  0.4149970000000 1.0
C      1  0.5627880000000  0.5805720000000  0.4135730000000 1.0
C      1  0.5219630000000  0.4142390000000  0.4648130000000 1.0
C      1  0.5442150000000  0.4754760000000  0.5705290000000 1.0
C      1  0.5209860000000  0.5852880000000  0.5274270000000 1.0
C      1  0.4351290000000  0.5849990000000  0.5057450000000 1.0
C      1  0.5189840000000  0.5192240000000  0.4106050000000 1.0
C      1  0.4590250000000  0.4309040000000  0.5528450000000 1.0
C      1  0.4485000000000  0.4285700000000  0.4761920000000 1.0
C      1  0.4270150000000  0.4733200000000  0.4936540000000 1.0
C      1  0.5872440000000  0.4832500000000  0.5432420000000 1.0
C      1  0.5199370000000  0.4066940000000  0.5327440000000 1.0
C      1  0.5342880000000  0.5342640000000  0.5250760000000 1.0
C      1  0.4870490000000  0.5833830000000  0.4701420000000 1.0
C      1  0.4961210000000  0.4632170000000  0.4933890000000 1.0
C      1  0.5804020000000  0.4788950000000  0.4661400000000 1.0
C      1  0.4335650000000  0.4351290000000  0.5302390000000 1.0
C      1  0.5671690000000  0.4644760000000  0.4295270000000 1.0
C      1  0.4887830000000  0.5083380000000  0.4805160000000 1.0
C      1  0.4997960000000  0.4850570000000  0.5392170000000 1.0
C      1  0.5357640000000  0.5026780000000  0.5752990000000 1.0
C      1  0.4885870000000  0.4760740000000  0.5994820000000 1.0
C      1  0.5386750000000  0.5728660000000  0.4545920000000 1.0
C      1  0.3564250000000  0.5591840000000  0.5020530000000 1.0
C      1  0.4498190000000  0.5241150000000  0.4269830000000 1.0
C      1  0.5056250000000  0.5343090000000  0.5911930000000 1.0
C      1  0.5145880000000  0.5769150000000  0.4727930000000 1.0
C      1  0.4902180000000  0.5340600000000  0.5543920000000 1.0
C      1  0.5687010000000  0.4674450000000  0.5578430000000 1.0
C      1  0.5021230000000  0.5706130000000  0.4356080000000 1.0
C      1  0.4511270000000  0.5613000000000  0.5401270000000 1.0
C      1  0.4461150000000  0.4584070000000  0.4701260000000 1.0
C      1  0.5186790000000  0.4888520000000  0.4371440000000 1.0
C      1  0.4712360000000  0.3993920000000  0.4909330000000 1.0
C      1  0.4271250000000  0.4623990000000  0.5209340000000 1.0
C      1  0.5181000000000  0.5643840000000  0.5011900000000 1.0
C      1  0.4654370000000  0.4971920000000  0.4320880000000 1.0
C      1  0.4634250000000  0.4983270000000  0.4644770000000 1.0
C      1  0.4466420000000  0.5433590000000  0.4802020000000 1.0
C      1  0.4693640000000  0.5715890000000  0.4435860000000 1.0
C      1  0.4592600000000  0.5966290000000  0.5236150000000 1.0
C      1  0.5017570000000  0.5771810000000  0.5529460000000 1.0
C      1  0.5472770000000  0.5630200000000  0.4281040000000 1.0
C      1  0.4762200000000  0.5359250000000  0.4938950000000 1.0
END
