TITL C-2778425-5191-976 0.00233348224525708 125000 -136.881163482423 0 0 25 (C1) n - 1
REM
REM in /home/nfs/bkarasulu/CARBON/AIRSS/Generating-Clusters/REBO/Only-C1/SD-CG/HFTN-CG
REM
REM
REM
REM
REM
REM ./C.cell (11c1c37f851c82e70ff6c80c92926a4b)
REM
REM compiler GCC version 9.2.1 20190827 (Red Hat 9.2.1-1)
REM options -cpp -mtune=generic -march=x86-64 -g -O0 -fpre-include=/usr/include/finclude/math-vector-fortran.h
REM seed -548047320 242879352 564562062 886464838 1440308793 766972525 -1752943222 -1390950028 1729362041 824333656 -1486815075 1177837987 -1536917558 750611801 -2088275441 2094639842 -47215771 -145395484 -1020081750 205118376 1678900896 -954140255 406374500 -973229494 -846347670 295758517 -1492521814 -1413032813 -758428679 -961108796 1063632471 891970860 -366858226
REM
CELL 1.54180   50.00000   50.00000   50.00000   90.00000   90.00000   90.00000
LATT -1
SFAC C  
C      1  0.5096480000000  0.5328990000000  0.4594320000000 1.0
C      1  0.4789220000000  0.5177450000000  0.5012810000000 1.0
C      1  0.4560310000000  0.5088610000000  0.4412680000000 1.0
C      1  0.4831590000000  0.5492070000000  0.4960890000000 1.0
C      1  0.5377420000000  0.4448550000000  0.5071310000000 1.0
C      1  0.4940340000000  0.5225560000000  0.5416470000000 1.0
C      1  0.5016770000000  0.4969230000000  0.4996440000000 1.0
C      1  0.4734820000000  0.5394000000000  0.5261270000000 1.0
C      1  0.4744290000000  0.4745620000000  0.5184520000000 1.0
C      1  0.5392030000000  0.4677420000000  0.4929160000000 1.0
C      1  0.4663020000000  0.4193750000000  0.5419500000000 1.0
C      1  0.5390110000000  0.5291040000000  0.4425500000000 1.0
C      1  0.5075390000000  0.5533110000000  0.4817780000000 1.0
C      1  0.5318780000000  0.5087290000000  0.4654970000000 1.0
C      1  0.4656800000000  0.4811530000000  0.4922330000000 1.0
C      1  0.4960860000000  0.4275430000000  0.5324510000000 1.0
C      1  0.5332000000000  0.5501660000000  0.5247720000000 1.0
C      1  0.4719020000000  0.4494060000000  0.5306640000000 1.0
C      1  0.5194740000000  0.5356940000000  0.5436500000000 1.0
C      1  0.4936800000000  0.4953590000000  0.5309130000000 1.0
C      1  0.4836440000000  0.5199610000000  0.4536000000000 1.0
C      1  0.5297860000000  0.5582730000000  0.4987320000000 1.0
C      1  0.5252700000000  0.4908580000000  0.4853010000000 1.0
C      1  0.4667080000000  0.4966980000000  0.4695400000000 1.0
C      1  0.5215140000000  0.4296200000000  0.5223840000000 1.0
END
