TITL C-2778433-5640-778 -0.00302266150406693 125000 -332.987921512337 0 0 58 (C1) n - 1
REM
REM in /home/nfs/bkarasulu/CARBON/AIRSS/Generating-Clusters/REBO/Only-C1/SD-CG/HFTN-CG
REM
REM
REM
REM
REM
REM ./C.cell (11c1c37f851c82e70ff6c80c92926a4b)
REM
REM compiler GCC version 9.2.1 20190827 (Red Hat 9.2.1-1)
REM options -cpp -mtune=generic -march=x86-64 -g -O0 -fpre-include=/usr/include/finclude/math-vector-fortran.h
REM seed -1290958531 -970371165 -581920163 1169965294 -1595237282 -1938012512 789406901 -1569654690 -386829741 651766208 1325865495 -743504362 -501074609 1172173516 -640156620 -1895176698 -1844729137 1479459100 1348512519 -432378599 -1963768729 472081296 -1939492170 -1842577725 -1264672874 239753559 1757288734 -1902810589 -2009303823 20297394 -365711614 1168706495 -187764204
REM
CELL 1.54180   50.00000   50.00000   50.00000   90.00000   90.00000   90.00000
LATT -1
SFAC C  
C      1  0.4759790000000  0.4950920000000  0.5011130000000 1.0
C      1  0.4972960000000  0.4668230000000  0.4484390000000 1.0
C      1  0.4712760000000  0.4771040000000  0.4473260000000 1.0
C      1  0.4895640000000  0.5218510000000  0.5465420000000 1.0
C      1  0.4417470000000  0.4584960000000  0.5350970000000 1.0
C      1  0.5165320000000  0.4840180000000  0.4372100000000 1.0
C      1  0.5620520000000  0.5344410000000  0.5258510000000 1.0
C      1  0.5294770000000  0.4208340000000  0.5393700000000 1.0
C      1  0.4873940000000  0.4699220000000  0.5589770000000 1.0
C      1  0.5167350000000  0.5581650000000  0.5238430000000 1.0
C      1  0.5215260000000  0.4447290000000  0.5224880000000 1.0
C      1  0.5125690000000  0.5556020000000  0.4476500000000 1.0
C      1  0.5076430000000  0.5130600000000  0.4397550000000 1.0
C      1  0.4448530000000  0.5416150000000  0.5047640000000 1.0
C      1  0.4738680000000  0.5665070000000  0.4740560000000 1.0
C      1  0.5346670000000  0.5301030000000  0.4517630000000 1.0
C      1  0.5113850000000  0.5038270000000  0.5316660000000 1.0
C      1  0.5001570000000  0.4373250000000  0.4991440000000 1.0
C      1  0.4540500000000  0.4636830000000  0.4644440000000 1.0
C      1  0.4881650000000  0.5467970000000  0.4330040000000 1.0
C      1  0.5011300000000  0.4853180000000  0.5792050000000 1.0
C      1  0.5295100000000  0.4813620000000  0.5753830000000 1.0
C      1  0.4301900000000  0.4893880000000  0.5388040000000 1.0
C      1  0.5610320000000  0.4903420000000  0.5005750000000 1.0
C      1  0.4879230000000  0.5280960000000  0.4623770000000 1.0
C      1  0.5737520000000  0.5035140000000  0.4741700000000 1.0
C      1  0.4659770000000  0.5050960000000  0.5320650000000 1.0
C      1  0.4885170000000  0.5239750000000  0.4908690000000 1.0
C      1  0.5024920000000  0.5669760000000  0.4727610000000 1.0
C      1  0.5422300000000  0.4794390000000  0.4490320000000 1.0
C      1  0.5556490000000  0.5046520000000  0.4534330000000 1.0
C      1  0.5396730000000  0.4579980000000  0.4701090000000 1.0
C      1  0.5527510000000  0.4521720000000  0.4938590000000 1.0
C      1  0.4906040000000  0.5487710000000  0.5312570000000 1.0
C      1  0.5052820000000  0.4704170000000  0.5338160000000 1.0
C      1  0.5452930000000  0.4693620000000  0.5224420000000 1.0
C      1  0.4722500000000  0.5069380000000  0.4422320000000 1.0
C      1  0.4925820000000  0.5131740000000  0.5768540000000 1.0
C      1  0.5385880000000  0.4915060000000  0.5470500000000 1.0
C      1  0.5508280000000  0.5213400000000  0.5016430000000 1.0
C      1  0.4602540000000  0.4796140000000  0.5516220000000 1.0
C      1  0.4516040000000  0.5480000000000  0.4754650000000 1.0
C      1  0.5086530000000  0.4567800000000  0.4752080000000 1.0
C      1  0.5386900000000  0.5497080000000  0.5408130000000 1.0
C      1  0.5508040000000  0.5202010000000  0.5514130000000 1.0
C      1  0.4715990000000  0.4322740000000  0.4974790000000 1.0
C      1  0.4261030000000  0.4943220000000  0.4993260000000 1.0
C      1  0.4363390000000  0.5169770000000  0.5200620000000 1.0
C      1  0.4526350000000  0.4518320000000  0.5102470000000 1.0
C      1  0.5388390000000  0.5413830000000  0.4819450000000 1.0
C      1  0.4508650000000  0.4772460000000  0.4915690000000 1.0
C      1  0.5291890000000  0.4894250000000  0.4920380000000 1.0
C      1  0.4600130000000  0.4357370000000  0.4699670000000 1.0
C      1  0.4489270000000  0.5280890000000  0.4544810000000 1.0
C      1  0.4744250000000  0.5452760000000  0.5081090000000 1.0
C      1  0.5008490000000  0.4769310000000  0.5018720000000 1.0
C      1  0.5205090000000  0.5598880000000  0.4942210000000 1.0
C      1  0.5165180000000  0.5164880000000  0.5037260000000 1.0
END
