TITL C-2778426-5645-1464 0.00101483282888606 125000 -890.262119629991 0 0 152 (C1) n - 1
REM
REM in /home/nfs/bkarasulu/CARBON/AIRSS/Generating-Clusters/REBO/Only-C1/SD-CG/HFTN-CG
REM
REM
REM
REM
REM
REM ./C.cell (11c1c37f851c82e70ff6c80c92926a4b)
REM
REM compiler GCC version 9.2.1 20190827 (Red Hat 9.2.1-1)
REM options -cpp -mtune=generic -march=x86-64 -g -O0 -fpre-include=/usr/include/finclude/math-vector-fortran.h
REM seed 1811321086 -1107688578 608703769 -1492120296 1801836447 605161096 1298809632 -1673360787 1332253434 -416984866 1749095430 1837259060 -1362714039 1334936961 -1341392679 291420041 -554165789 -970862025 397167719 -1440021727 -854374079 1281070477 -592868453 -550636324 -1610559265 1764104882 -1989042885 -150654156 -1719612843 1405662977 -548568987 1707120063 1634005720
REM
CELL 1.54180   50.00000   50.00000   50.00000   90.00000   90.00000   90.00000
LATT -1
SFAC C  
C      1  0.5468020000000  0.4906840000000  0.5174060000000 1.0
C      1  0.5278220000000  0.6154900000000  0.4982010000000 1.0
C      1  0.4454200000000  0.5501400000000  0.4328330000000 1.0
C      1  0.4218650000000  0.4897890000000  0.4815480000000 1.0
C      1  0.4853470000000  0.6009760000000  0.4939180000000 1.0
C      1  0.5144890000000  0.4874260000000  0.4107340000000 1.0
C      1  0.4188780000000  0.4426400000000  0.4922720000000 1.0
C      1  0.4930460000000  0.5544870000000  0.5752050000000 1.0
C      1  0.4658170000000  0.4059490000000  0.5423360000000 1.0
C      1  0.4865430000000  0.4414760000000  0.4123220000000 1.0
C      1  0.4196160000000  0.4694760000000  0.4472310000000 1.0
C      1  0.4692270000000  0.4000490000000  0.4668810000000 1.0
C      1  0.4736490000000  0.4142380000000  0.5708870000000 1.0
C      1  0.5105180000000  0.4612620000000  0.5126430000000 1.0
C      1  0.5508500000000  0.5594030000000  0.4367080000000 1.0
C      1  0.4620110000000  0.4123670000000  0.4910760000000 1.0
C      1  0.5885860000000  0.5375690000000  0.5063590000000 1.0
C      1  0.5561250000000  0.4619130000000  0.4362170000000 1.0
C      1  0.5505110000000  0.4194060000000  0.4816190000000 1.0
C      1  0.5788980000000  0.5010790000000  0.4789470000000 1.0
C      1  0.5512870000000  0.5696770000000  0.5384310000000 1.0
C      1  0.4789770000000  0.5632250000000  0.4736820000000 1.0
C      1  0.4969110000000  0.4823890000000  0.4914870000000 1.0
C      1  0.5617290000000  0.5220190000000  0.5168760000000 1.0
C      1  0.4537170000000  0.5278590000000  0.5735080000000 1.0
C      1  0.5217370000000  0.4687040000000  0.5956010000000 1.0
C      1  0.5565050000000  0.4019500000000  0.5027260000000 1.0
C      1  0.4405320000000  0.4503490000000  0.5623700000000 1.0
C      1  0.5192050000000  0.5255240000000  0.4215850000000 1.0
C      1  0.4978410000000  0.4321010000000  0.5055800000000 1.0
C      1  0.5707990000000  0.5444900000000  0.5410020000000 1.0
C      1  0.5205530000000  0.5097360000000  0.5084570000000 1.0
C      1  0.5688300000000  0.4892330000000  0.5799970000000 1.0
C      1  0.4771460000000  0.4744020000000  0.5300010000000 1.0
C      1  0.4942570000000  0.4759860000000  0.4653910000000 1.0
C      1  0.5014420000000  0.4266330000000  0.4753390000000 1.0
C      1  0.4339730000000  0.5338800000000  0.4093030000000 1.0
C      1  0.4528980000000  0.4290070000000  0.5821160000000 1.0
C      1  0.4167310000000  0.5098590000000  0.5498570000000 1.0
C      1  0.5928530000000  0.4732770000000  0.4710220000000 1.0
C      1  0.5964500000000  0.4737930000000  0.5288740000000 1.0
C      1  0.4087040000000  0.4793060000000  0.5255630000000 1.0
C      1  0.5331270000000  0.4502220000000  0.4253340000000 1.0
C      1  0.4758460000000  0.5046350000000  0.4976910000000 1.0
C      1  0.4588390000000  0.5400090000000  0.5421760000000 1.0
C      1  0.4395460000000  0.4511290000000  0.4394050000000 1.0
C      1  0.4263760000000  0.5323520000000  0.5642390000000 1.0
C      1  0.5663080000000  0.4453000000000  0.4802170000000 1.0
C      1  0.4577620000000  0.4347870000000  0.5406090000000 1.0
C      1  0.4503530000000  0.4427920000000  0.4880120000000 1.0
C      1  0.5890320000000  0.4856600000000  0.5598840000000 1.0
C      1  0.5068630000000  0.4615370000000  0.4402410000000 1.0
C      1  0.5629600000000  0.5192960000000  0.5882970000000 1.0
C      1  0.5498800000000  0.4867440000000  0.4554620000000 1.0
C      1  0.5213620000000  0.5594210000000  0.5769730000000 1.0
C      1  0.4599990000000  0.4958440000000  0.5768610000000 1.0
C      1  0.5631980000000  0.5211220000000  0.5568150000000 1.0
C      1  0.5892750000000  0.4583470000000  0.5013630000000 1.0
C      1  0.4862650000000  0.3962630000000  0.4461660000000 1.0
C      1  0.5084110000000  0.5484850000000  0.4775160000000 1.0
C      1  0.4924660000000  0.5047450000000  0.5817430000000 1.0
C      1  0.4706370000000  0.4784390000000  0.4483390000000 1.0
C      1  0.4743090000000  0.5757680000000  0.5729070000000 1.0
C      1  0.4871570000000  0.5150020000000  0.4283300000000 1.0
C      1  0.4674930000000  0.5314450000000  0.4783540000000 1.0
C      1  0.4632360000000  0.6133960000000  0.5070070000000 1.0
C      1  0.4495720000000  0.6356740000000  0.5004070000000 1.0
C      1  0.5979040000000  0.4544890000000  0.5556230000000 1.0
C      1  0.5057840000000  0.5143510000000  0.4568560000000 1.0
C      1  0.4576890000000  0.4759280000000  0.4910730000000 1.0
C      1  0.5567830000000  0.4771910000000  0.4877450000000 1.0
C      1  0.5237370000000  0.3947800000000  0.5435570000000 1.0
C      1  0.6008200000000  0.5219430000000  0.4856490000000 1.0
C      1  0.4012570000000  0.5210170000000  0.4947950000000 1.0
C      1  0.5293310000000  0.5789990000000  0.5569230000000 1.0
C      1  0.4327010000000  0.4835690000000  0.5607010000000 1.0
C      1  0.4883790000000  0.5334470000000  0.5545790000000 1.0
C      1  0.5219140000000  0.5656540000000  0.4994440000000 1.0
C      1  0.4087250000000  0.4470990000000  0.5185100000000 1.0
C      1  0.4866470000000  0.5303770000000  0.5133000000000 1.0
C      1  0.5798230000000  0.4377740000000  0.5254840000000 1.0
C      1  0.5768370000000  0.4113320000000  0.5199190000000 1.0
C      1  0.4757260000000  0.5594400000000  0.5199180000000 1.0
C      1  0.5640830000000  0.4526360000000  0.5505020000000 1.0
C      1  0.4594750000000  0.4410900000000  0.4570210000000 1.0
C      1  0.5339570000000  0.3887660000000  0.5140450000000 1.0
C      1  0.4319150000000  0.5478620000000  0.4609580000000 1.0
C      1  0.4043020000000  0.5120390000000  0.5220200000000 1.0
C      1  0.4083620000000  0.4616840000000  0.4736550000000 1.0
C      1  0.5233030000000  0.5208320000000  0.4821420000000 1.0
C      1  0.5879970000000  0.4847520000000  0.4436920000000 1.0
C      1  0.4461430000000  0.5651430000000  0.4791270000000 1.0
C      1  0.5189580000000  0.5110890000000  0.5672050000000 1.0
C      1  0.4536600000000  0.5790400000000  0.4283020000000 1.0
C      1  0.5349320000000  0.5335390000000  0.5821610000000 1.0
C      1  0.5731120000000  0.5371910000000  0.4613570000000 1.0
C      1  0.5766920000000  0.5636490000000  0.4700290000000 1.0
C      1  0.4860710000000  0.5933780000000  0.4636920000000 1.0
C      1  0.5736220000000  0.5106210000000  0.4318970000000 1.0
C      1  0.4772080000000  0.5048160000000  0.5421240000000 1.0
C      1  0.5073430000000  0.4066990000000  0.5185910000000 1.0
C      1  0.5231260000000  0.5712200000000  0.4396310000000 1.0
C      1  0.5372240000000  0.5455060000000  0.5197460000000 1.0
C      1  0.5051430000000  0.5465140000000  0.4442940000000 1.0
C      1  0.4987430000000  0.4541990000000  0.5887940000000 1.0
C      1  0.4481980000000  0.5350400000000  0.5042680000000 1.0
C      1  0.5121130000000  0.4946210000000  0.6028690000000 1.0
C      1  0.5268430000000  0.4119000000000  0.5647800000000 1.0
C      1  0.5003290000000  0.4271710000000  0.5747090000000 1.0
C      1  0.4493040000000  0.4960430000000  0.4638860000000 1.0
C      1  0.5738010000000  0.4456230000000  0.4496810000000 1.0
C      1  0.5500010000000  0.5296620000000  0.4269310000000 1.0
C      1  0.4720770000000  0.4642830000000  0.4209300000000 1.0
C      1  0.4871980000000  0.4385560000000  0.4540010000000 1.0
C      1  0.5222350000000  0.4912400000000  0.4416740000000 1.0
C      1  0.3892440000000  0.4981810000000  0.4761370000000 1.0
C      1  0.5266250000000  0.4453610000000  0.5615330000000 1.0
C      1  0.4442340000000  0.5673770000000  0.5120780000000 1.0
C      1  0.5403940000000  0.5054630000000  0.5477380000000 1.0
C      1  0.5067400000000  0.5945730000000  0.5412010000000 1.0
C      1  0.5124080000000  0.5302290000000  0.5327950000000 1.0
C      1  0.4636310000000  0.4957320000000  0.4130540000000 1.0
C      1  0.4975090000000  0.5798780000000  0.5132420000000 1.0
C      1  0.5507890000000  0.5163600000000  0.4702820000000 1.0
C      1  0.5988620000000  0.5222710000000  0.4517060000000 1.0
C      1  0.5121150000000  0.4283580000000  0.4190100000000 1.0
C      1  0.5361490000000  0.4623230000000  0.5335550000000 1.0
C      1  0.4610070000000  0.5238180000000  0.4479570000000 1.0
C      1  0.4758300000000  0.4688720000000  0.5871830000000 1.0
C      1  0.5410190000000  0.5891470000000  0.4890480000000 1.0
C      1  0.4176450000000  0.5005290000000  0.4400090000000 1.0
C      1  0.5823970000000  0.5645970000000  0.4983400000000 1.0
C      1  0.4755370000000  0.5908610000000  0.5488190000000 1.0
C      1  0.5481800000000  0.4656140000000  0.5779150000000 1.0
C      1  0.4930080000000  0.4895290000000  0.3981420000000 1.0
C      1  0.5137810000000  0.5942830000000  0.4502970000000 1.0
C      1  0.4484420000000  0.5124690000000  0.5256390000000 1.0
C      1  0.4160550000000  0.5249660000000  0.4642930000000 1.0
C      1  0.4355210000000  0.5067150000000  0.4158210000000 1.0
C      1  0.5625010000000  0.5806120000000  0.5110850000000 1.0
C      1  0.4646700000000  0.5969940000000  0.4415130000000 1.0
C      1  0.5274140000000  0.4144570000000  0.4661140000000 1.0
C      1  0.5156870000000  0.6170820000000  0.5201070000000 1.0
C      1  0.4660870000000  0.3975700000000  0.5151540000000 1.0
C      1  0.3860250000000  0.5037420000000  0.4485880000000 1.0
C      1  0.4741170000000  0.4484900000000  0.5231330000000 1.0
C      1  0.5053760000000  0.4909310000000  0.5292100000000 1.0
C      1  0.5112550000000  0.4084920000000  0.4403610000000 1.0
C      1  0.5545610000000  0.5814520000000  0.4619020000000 1.0
C      1  0.4122440000000  0.4580140000000  0.5503030000000 1.0
C      1  0.4563320000000  0.5935650000000  0.5275810000000 1.0
C      1  0.4357180000000  0.4896720000000  0.5119040000000 1.0
END
