TITL C-2778436-5916-83 0.0113186399746592 125000 -1075.16597253481 0 0 186 (C1) n - 1
REM
REM in /home/nfs/bkarasulu/CARBON/AIRSS/Generating-Clusters/REBO/Only-C1/SD-CG/HFTN-CG
REM
REM
REM
REM
REM
REM ./C.cell (11c1c37f851c82e70ff6c80c92926a4b)
REM
REM compiler GCC version 9.2.1 20190827 (Red Hat 9.2.1-1)
REM options -cpp -mtune=generic -march=x86-64 -g -O0 -fpre-include=/usr/include/finclude/math-vector-fortran.h
REM seed -501774040 -1182397675 -297823788 987144243 1893853553 1441295021 489613369 664731042 -299482395 217379885 1786698503 1519406254 -629894182 1153881709 -1752871624 -1751514864 -801652990 528358327 2119374858 -1698398988 791219328 516136715 -624757870 -1829459574 -1098686461 -627690742 1552706511 -1795683251 -1075162244 2093359120 -1263768401 1295277176 1782798998
REM
CELL 1.54180   50.00000   50.00000   50.00000   90.00000   90.00000   90.00000
LATT -1
SFAC C  
C      1  0.4878940000000  0.4056080000000  0.5432930000000 1.0
C      1  0.5297600000000  0.5337460000000  0.5882270000000 1.0
C      1  0.4372580000000  0.5204730000000  0.4284470000000 1.0
C      1  0.6003650000000  0.5191920000000  0.4676570000000 1.0
C      1  0.5446920000000  0.5326020000000  0.5590130000000 1.0
C      1  0.4531410000000  0.4415070000000  0.4961000000000 1.0
C      1  0.4288640000000  0.5884650000000  0.4984110000000 1.0
C      1  0.4677440000000  0.5643060000000  0.4319180000000 1.0
C      1  0.4910570000000  0.5072320000000  0.3876930000000 1.0
C      1  0.5391940000000  0.6087190000000  0.4891010000000 1.0
C      1  0.4980380000000  0.4358270000000  0.5356020000000 1.0
C      1  0.5235180000000  0.4835090000000  0.6102150000000 1.0
C      1  0.4596820000000  0.4487800000000  0.4044990000000 1.0
C      1  0.4828850000000  0.4257460000000  0.4869600000000 1.0
C      1  0.4725650000000  0.5509150000000  0.4026160000000 1.0
C      1  0.4375010000000  0.5842910000000  0.4655690000000 1.0
C      1  0.4701680000000  0.4372820000000  0.5801110000000 1.0
C      1  0.5995780000000  0.5380590000000  0.5350500000000 1.0
C      1  0.4904570000000  0.4989780000000  0.5796190000000 1.0
C      1  0.3920150000000  0.5028410000000  0.4924570000000 1.0
C      1  0.4896620000000  0.4960250000000  0.5445070000000 1.0
C      1  0.4330310000000  0.4438870000000  0.4527140000000 1.0
C      1  0.6021170000000  0.4906970000000  0.5181780000000 1.0
C      1  0.5669360000000  0.4294130000000  0.5590160000000 1.0
C      1  0.5570620000000  0.4870010000000  0.5020520000000 1.0
C      1  0.5646310000000  0.4178380000000  0.4693220000000 1.0
C      1  0.4774150000000  0.4179640000000  0.4337240000000 1.0
C      1  0.5198740000000  0.4435220000000  0.4477990000000 1.0
C      1  0.4709390000000  0.4556130000000  0.4480410000000 1.0
C      1  0.5762470000000  0.5653820000000  0.4850160000000 1.0
C      1  0.5968510000000  0.4631720000000  0.5144700000000 1.0
C      1  0.4812420000000  0.4683620000000  0.5718970000000 1.0
C      1  0.5398690000000  0.5803280000000  0.5377800000000 1.0
C      1  0.5648930000000  0.4665870000000  0.4345980000000 1.0
C      1  0.4297790000000  0.5602290000000  0.4495320000000 1.0
C      1  0.5179780000000  0.4742650000000  0.5108920000000 1.0
C      1  0.5212010000000  0.4890890000000  0.5563310000000 1.0
C      1  0.5680200000000  0.4601690000000  0.5736450000000 1.0
C      1  0.5101030000000  0.5752260000000  0.5394060000000 1.0
C      1  0.5326930000000  0.4677840000000  0.4582630000000 1.0
C      1  0.4348620000000  0.5070410000000  0.4696690000000 1.0
C      1  0.5304120000000  0.5061260000000  0.5080250000000 1.0
C      1  0.4143680000000  0.5039530000000  0.5711880000000 1.0
C      1  0.4161030000000  0.5338060000000  0.4594750000000 1.0
C      1  0.4640040000000  0.5219240000000  0.5973450000000 1.0
C      1  0.5303570000000  0.5372490000000  0.5221130000000 1.0
C      1  0.4864190000000  0.4804450000000  0.4329350000000 1.0
C      1  0.5254380000000  0.4532980000000  0.4095150000000 1.0
C      1  0.4777610000000  0.6080010000000  0.4878330000000 1.0
C      1  0.4113340000000  0.5539320000000  0.5381090000000 1.0
C      1  0.5937610000000  0.5521030000000  0.4611090000000 1.0
C      1  0.5890660000000  0.4483320000000  0.5418250000000 1.0
C      1  0.4683020000000  0.5248540000000  0.3882050000000 1.0
C      1  0.5312340000000  0.5029390000000  0.5845120000000 1.0
C      1  0.5025300000000  0.5252210000000  0.5327490000000 1.0
C      1  0.5863280000000  0.4847220000000  0.4340620000000 1.0
C      1  0.4568550000000  0.4042790000000  0.4823440000000 1.0
C      1  0.5560020000000  0.5776100000000  0.5075900000000 1.0
C      1  0.4383860000000  0.4332410000000  0.4224370000000 1.0
C      1  0.4817160000000  0.5342930000000  0.4766990000000 1.0
C      1  0.4512280000000  0.5908660000000  0.5422270000000 1.0
C      1  0.5422780000000  0.4017340000000  0.4361550000000 1.0
C      1  0.5079880000000  0.5236030000000  0.4314200000000 1.0
C      1  0.5605150000000  0.4336730000000  0.5185470000000 1.0
C      1  0.4427600000000  0.4892820000000  0.5204850000000 1.0
C      1  0.5053760000000  0.4175800000000  0.4646060000000 1.0
C      1  0.4191540000000  0.5589400000000  0.4899200000000 1.0
C      1  0.4716350000000  0.4718740000000  0.4779040000000 1.0
C      1  0.3985530000000  0.4732490000000  0.5377040000000 1.0
C      1  0.3988970000000  0.5347790000000  0.4859760000000 1.0
C      1  0.5439250000000  0.4070070000000  0.5207630000000 1.0
C      1  0.5136880000000  0.4091320000000  0.5092160000000 1.0
C      1  0.4827140000000  0.4528600000000  0.5030070000000 1.0
C      1  0.5256990000000  0.5631050000000  0.5048850000000 1.0
C      1  0.4222180000000  0.4494290000000  0.5440300000000 1.0
C      1  0.4229660000000  0.4925070000000  0.4970840000000 1.0
C      1  0.4397540000000  0.5277560000000  0.5293780000000 1.0
C      1  0.5776760000000  0.5615870000000  0.5804980000000 1.0
C      1  0.5053020000000  0.4476580000000  0.5642520000000 1.0
C      1  0.3954230000000  0.5020530000000  0.5264780000000 1.0
C      1  0.5460630000000  0.3975320000000  0.4891520000000 1.0
C      1  0.5549310000000  0.6031110000000  0.4429760000000 1.0
C      1  0.4043220000000  0.4766890000000  0.5671420000000 1.0
C      1  0.5150330000000  0.5182730000000  0.3996090000000 1.0
C      1  0.5303100000000  0.6018410000000  0.4614290000000 1.0
C      1  0.5917630000000  0.5208730000000  0.5066340000000 1.0
C      1  0.5999080000000  0.4863870000000  0.4598630000000 1.0
C      1  0.5773340000000  0.4343190000000  0.4954160000000 1.0
C      1  0.4600890000000  0.5199120000000  0.4538520000000 1.0
C      1  0.4904170000000  0.4807190000000  0.6084230000000 1.0
C      1  0.5374870000000  0.4310020000000  0.4862580000000 1.0
C      1  0.4076580000000  0.5087800000000  0.4406270000000 1.0
C      1  0.4788600000000  0.5997860000000  0.5410130000000 1.0
C      1  0.4825310000000  0.4812080000000  0.4006730000000 1.0
C      1  0.4857280000000  0.5182160000000  0.5054700000000 1.0
C      1  0.4245600000000  0.4601120000000  0.5002500000000 1.0
C      1  0.5305660000000  0.3987190000000  0.4610600000000 1.0
C      1  0.5434190000000  0.4136750000000  0.5517620000000 1.0
C      1  0.4943110000000  0.6065470000000  0.5148780000000 1.0
C      1  0.5834000000000  0.4781390000000  0.5526320000000 1.0
C      1  0.4622640000000  0.5853860000000  0.5042310000000 1.0
C      1  0.4566990000000  0.5047850000000  0.5452180000000 1.0
C      1  0.4585330000000  0.4245870000000  0.4556350000000 1.0
C      1  0.5376190000000  0.4535820000000  0.5879530000000 1.0
C      1  0.4481280000000  0.4712640000000  0.4279970000000 1.0
C      1  0.3978490000000  0.4857870000000  0.4643830000000 1.0
C      1  0.4951370000000  0.5773540000000  0.4408410000000 1.0
C      1  0.5419720000000  0.5075530000000  0.5462630000000 1.0
C      1  0.5796060000000  0.5080110000000  0.4170500000000 1.0
C      1  0.5154650000000  0.5748620000000  0.4630660000000 1.0
C      1  0.4622080000000  0.4212710000000  0.5548070000000 1.0
C      1  0.5033050000000  0.5470510000000  0.5981190000000 1.0
C      1  0.5939900000000  0.5085520000000  0.5443920000000 1.0
C      1  0.4819650000000  0.5299220000000  0.5690390000000 1.0
C      1  0.4815200000000  0.3932150000000  0.4647000000000 1.0
C      1  0.4617700000000  0.5375610000000  0.5110750000000 1.0
C      1  0.4417040000000  0.4739900000000  0.4672480000000 1.0
C      1  0.5734830000000  0.5054690000000  0.4823660000000 1.0
C      1  0.5645960000000  0.5392560000000  0.5016790000000 1.0
C      1  0.4075460000000  0.4539710000000  0.4716100000000 1.0
C      1  0.5373120000000  0.5294560000000  0.4839120000000 1.0
C      1  0.5674010000000  0.5961380000000  0.4743480000000 1.0
C      1  0.4985540000000  0.4334390000000  0.4249340000000 1.0
C      1  0.5710150000000  0.5848450000000  0.5360570000000 1.0
C      1  0.4430420000000  0.5383270000000  0.5857620000000 1.0
C      1  0.4274640000000  0.5779340000000  0.5307940000000 1.0
C      1  0.5647730000000  0.4958090000000  0.5314950000000 1.0
C      1  0.5339200000000  0.5225330000000  0.4447860000000 1.0
C      1  0.4702460000000  0.5926720000000  0.4597040000000 1.0
C      1  0.5856270000000  0.5614700000000  0.5504770000000 1.0
C      1  0.5257550000000  0.5710480000000  0.5753460000000 1.0
C      1  0.5033090000000  0.5537380000000  0.4173120000000 1.0
C      1  0.4118630000000  0.5289040000000  0.5148800000000 1.0
C      1  0.4430600000000  0.5006840000000  0.5720550000000 1.0
C      1  0.5111690000000  0.5105330000000  0.4730730000000 1.0
C      1  0.4933680000000  0.3922590000000  0.5060320000000 1.0
C      1  0.5098110000000  0.4527840000000  0.6048790000000 1.0
C      1  0.5547000000000  0.4814500000000  0.5966490000000 1.0
C      1  0.5010700000000  0.4257810000000  0.5884500000000 1.0
C      1  0.5747910000000  0.5764920000000  0.4468400000000 1.0
C      1  0.4388530000000  0.4070630000000  0.5100640000000 1.0
C      1  0.5356220000000  0.5430340000000  0.4106420000000 1.0
C      1  0.5158310000000  0.4093920000000  0.5624930000000 1.0
C      1  0.4025670000000  0.5241490000000  0.5523950000000 1.0
C      1  0.5515860000000  0.5598160000000  0.5874030000000 1.0
C      1  0.4583380000000  0.4882050000000  0.5997940000000 1.0
C      1  0.4231110000000  0.4556640000000  0.5769780000000 1.0
C      1  0.4477540000000  0.4581070000000  0.5907140000000 1.0
C      1  0.4500790000000  0.4807690000000  0.3969920000000 1.0
C      1  0.4498780000000  0.4607160000000  0.5288640000000 1.0
C      1  0.4786800000000  0.4635660000000  0.5393300000000 1.0
C      1  0.5185310000000  0.4428430000000  0.5117630000000 1.0
C      1  0.5465410000000  0.5096190000000  0.4091300000000 1.0
C      1  0.5211090000000  0.5968840000000  0.5076730000000 1.0
C      1  0.4884610000000  0.5074600000000  0.4478280000000 1.0
C      1  0.4933110000000  0.4515150000000  0.3991600000000 1.0
C      1  0.5958870000000  0.5297570000000  0.4354720000000 1.0
C      1  0.5369560000000  0.4260780000000  0.4243870000000 1.0
C      1  0.4419850000000  0.5515050000000  0.4190070000000 1.0
C      1  0.5361040000000  0.5521320000000  0.4608220000000 1.0
C      1  0.4867840000000  0.5675760000000  0.5188200000000 1.0
C      1  0.4987340000000  0.5603150000000  0.4878200000000 1.0
C      1  0.4712870000000  0.5482250000000  0.5421200000000 1.0
C      1  0.4677430000000  0.3933140000000  0.5192230000000 1.0
C      1  0.5606000000000  0.5463090000000  0.5347570000000 1.0
C      1  0.4221930000000  0.4802820000000  0.4410880000000 1.0
C      1  0.5504070000000  0.4545050000000  0.5328380000000 1.0
C      1  0.5549800000000  0.5542990000000  0.4333700000000 1.0
C      1  0.4892990000000  0.5665800000000  0.5908340000000 1.0
C      1  0.4676060000000  0.5587060000000  0.4629010000000 1.0
C      1  0.5162750000000  0.4817110000000  0.4796290000000 1.0
C      1  0.4969290000000  0.5878570000000  0.5668880000000 1.0
C      1  0.4521400000000  0.5570900000000  0.4909550000000 1.0
C      1  0.5505980000000  0.4624960000000  0.4865620000000 1.0
C      1  0.5919900000000  0.4613680000000  0.4814870000000 1.0
C      1  0.5320160000000  0.4609980000000  0.5563030000000 1.0
C      1  0.5436280000000  0.4762690000000  0.4164730000000 1.0
C      1  0.4228060000000  0.4281770000000  0.4886680000000 1.0
C      1  0.4429560000000  0.5427810000000  0.5592580000000 1.0
C      1  0.4895540000000  0.4902060000000  0.4996180000000 1.0
C      1  0.5507400000000  0.4967730000000  0.4585420000000 1.0
C      1  0.5077210000000  0.5477470000000  0.5579120000000 1.0
C      1  0.4405070000000  0.4231730000000  0.5383120000000 1.0
C      1  0.5657070000000  0.5263130000000  0.4493670000000 1.0
C      1  0.5680920000000  0.4496470000000  0.4599760000000 1.0
C      1  0.4453140000000  0.5107730000000  0.3987750000000 1.0
END
