TITL C-2778433-5640-1329 -0.00606928961074845 125000 -789.527125832149 0 0 135 (C1) n - 1
REM
REM in /home/nfs/bkarasulu/CARBON/AIRSS/Generating-Clusters/REBO/Only-C1/SD-CG/HFTN-CG
REM
REM
REM
REM
REM
REM ./C.cell (11c1c37f851c82e70ff6c80c92926a4b)
REM
REM compiler GCC version 9.2.1 20190827 (Red Hat 9.2.1-1)
REM options -cpp -mtune=generic -march=x86-64 -g -O0 -fpre-include=/usr/include/finclude/math-vector-fortran.h
REM seed -1951686332 134256302 -1024260963 1822891440 374088028 -886120461 237647977 -1747626842 1174116821 1762005444 1798562904 1968513551 1358951187 -1360488456 -2033667543 -250673694 -1528931884 2025495412 496864732 371409608 1285201124 -458133651 135030208 68647070 778376003 -977196504 975774844 1983510357 1914473395 -1875243452 -1256266615 -552110362 -1152587294
REM
CELL 1.54180   50.00000   50.00000   50.00000   90.00000   90.00000   90.00000
LATT -1
SFAC C  
C      1  0.6065990000000  0.4827680000000  0.4673590000000 1.0
C      1  0.5310010000000  0.4945560000000  0.5794440000000 1.0
C      1  0.5245700000000  0.4921530000000  0.5135140000000 1.0
C      1  0.4441560000000  0.5429700000000  0.5695220000000 1.0
C      1  0.5063920000000  0.4961100000000  0.4004890000000 1.0
C      1  0.5769410000000  0.5099430000000  0.5244800000000 1.0
C      1  0.5332310000000  0.5427370000000  0.5082330000000 1.0
C      1  0.4432980000000  0.4345290000000  0.4395900000000 1.0
C      1  0.4533310000000  0.5158720000000  0.5163320000000 1.0
C      1  0.5063150000000  0.4177680000000  0.5182050000000 1.0
C      1  0.5493730000000  0.5086960000000  0.5209380000000 1.0
C      1  0.4969350000000  0.4861010000000  0.4415630000000 1.0
C      1  0.4033310000000  0.4594370000000  0.5105670000000 1.0
C      1  0.5060910000000  0.4563050000000  0.5277980000000 1.0
C      1  0.5176540000000  0.5060260000000  0.4489090000000 1.0
C      1  0.4137810000000  0.5160150000000  0.5200350000000 1.0
C      1  0.4574980000000  0.5871300000000  0.5014450000000 1.0
C      1  0.4037720000000  0.4788990000000  0.4866440000000 1.0
C      1  0.4804670000000  0.5415580000000  0.4151030000000 1.0
C      1  0.5056660000000  0.4627230000000  0.4286180000000 1.0
C      1  0.4473670000000  0.4961310000000  0.4735080000000 1.0
C      1  0.4864610000000  0.5555240000000  0.5190670000000 1.0
C      1  0.4221350000000  0.4840500000000  0.4421250000000 1.0
C      1  0.4569430000000  0.4544320000000  0.4231080000000 1.0
C      1  0.4748190000000  0.4860830000000  0.4889790000000 1.0
C      1  0.4331740000000  0.4890960000000  0.5226980000000 1.0
C      1  0.4792300000000  0.4702260000000  0.5909090000000 1.0
C      1  0.4599080000000  0.4304410000000  0.4667730000000 1.0
C      1  0.4585060000000  0.4024670000000  0.4826830000000 1.0
C      1  0.5007830000000  0.5443930000000  0.4618830000000 1.0
C      1  0.5395150000000  0.4830790000000  0.5495040000000 1.0
C      1  0.5186950000000  0.5121370000000  0.4771780000000 1.0
C      1  0.5443090000000  0.4369740000000  0.5541770000000 1.0
C      1  0.5346130000000  0.5275460000000  0.5848060000000 1.0
C      1  0.4869830000000  0.3920710000000  0.4809930000000 1.0
C      1  0.5717550000000  0.5447670000000  0.6143630000000 1.0
C      1  0.4315970000000  0.4852320000000  0.5545920000000 1.0
C      1  0.4849120000000  0.5807660000000  0.4491320000000 1.0
C      1  0.5979480000000  0.4917060000000  0.5200830000000 1.0
C      1  0.5181680000000  0.4375080000000  0.5760980000000 1.0
C      1  0.5715770000000  0.4568680000000  0.5498300000000 1.0
C      1  0.4833550000000  0.4417310000000  0.5104020000000 1.0
C      1  0.5564040000000  0.4587970000000  0.5088810000000 1.0
C      1  0.4180850000000  0.4375570000000  0.4702470000000 1.0
C      1  0.4556940000000  0.4686160000000  0.5712300000000 1.0
C      1  0.5070010000000  0.5267810000000  0.5643270000000 1.0
C      1  0.4904710000000  0.4603360000000  0.5539580000000 1.0
C      1  0.5530500000000  0.4333220000000  0.4906230000000 1.0
C      1  0.5509630000000  0.5624710000000  0.4679520000000 1.0
C      1  0.5372040000000  0.4775630000000  0.4695420000000 1.0
C      1  0.4867680000000  0.4272120000000  0.5517800000000 1.0
C      1  0.5579870000000  0.4849330000000  0.4899680000000 1.0
C      1  0.4491940000000  0.4808060000000  0.4305120000000 1.0
C      1  0.5545070000000  0.4286690000000  0.4589210000000 1.0
C      1  0.5813540000000  0.4993580000000  0.4846510000000 1.0
C      1  0.5776530000000  0.6019810000000  0.5055650000000 1.0
C      1  0.5356620000000  0.4553970000000  0.4239120000000 1.0
C      1  0.5361740000000  0.4588120000000  0.5318060000000 1.0
C      1  0.4640960000000  0.4180440000000  0.5360580000000 1.0
C      1  0.4494070000000  0.5449010000000  0.4398790000000 1.0
C      1  0.4383840000000  0.4722460000000  0.4961900000000 1.0
C      1  0.5341720000000  0.4853390000000  0.4096340000000 1.0
C      1  0.4255520000000  0.5546230000000  0.4866910000000 1.0
C      1  0.4976510000000  0.5675280000000  0.4273220000000 1.0
C      1  0.5673970000000  0.5768100000000  0.5077660000000 1.0
C      1  0.4610030000000  0.5451810000000  0.5024850000000 1.0
C      1  0.5866550000000  0.4623750000000  0.5197350000000 1.0
C      1  0.5617250000000  0.4793920000000  0.5734030000000 1.0
C      1  0.5569150000000  0.5566440000000  0.4374680000000 1.0
C      1  0.4232700000000  0.5307360000000  0.4705350000000 1.0
C      1  0.5060800000000  0.5257420000000  0.4036450000000 1.0
C      1  0.5211850000000  0.4701750000000  0.4938000000000 1.0
C      1  0.4312050000000  0.5515490000000  0.5186860000000 1.0
C      1  0.4607240000000  0.5341850000000  0.5408970000000 1.0
C      1  0.4768450000000  0.5364360000000  0.5771620000000 1.0
C      1  0.4858000000000  0.5812510000000  0.4981820000000 1.0
C      1  0.5241090000000  0.5649080000000  0.4738250000000 1.0
C      1  0.4513590000000  0.4447780000000  0.5232210000000 1.0
C      1  0.5709020000000  0.6244000000000  0.5198800000000 1.0
C      1  0.5025500000000  0.4877760000000  0.5636500000000 1.0
C      1  0.4211020000000  0.5370000000000  0.5443440000000 1.0
C      1  0.4994390000000  0.5001870000000  0.5319870000000 1.0
C      1  0.4693100000000  0.4973530000000  0.4475730000000 1.0
C      1  0.4213170000000  0.4458180000000  0.5208030000000 1.0
C      1  0.5887010000000  0.4601720000000  0.4856070000000 1.0
C      1  0.4471100000000  0.4062970000000  0.5136520000000 1.0
C      1  0.5259440000000  0.4191410000000  0.4695920000000 1.0
C      1  0.4126260000000  0.4649150000000  0.4611960000000 1.0
C      1  0.5634140000000  0.5028730000000  0.4118690000000 1.0
C      1  0.4710500000000  0.5527380000000  0.4743200000000 1.0
C      1  0.5403770000000  0.5280690000000  0.4848530000000 1.0
C      1  0.4846380000000  0.4436780000000  0.4259060000000 1.0
C      1  0.5472580000000  0.5626440000000  0.5214440000000 1.0
C      1  0.4567940000000  0.5067570000000  0.5597600000000 1.0
C      1  0.4299630000000  0.5168000000000  0.4402450000000 1.0
C      1  0.4840840000000  0.4238160000000  0.4464480000000 1.0
C      1  0.4949830000000  0.5640040000000  0.5721270000000 1.0
C      1  0.4247250000000  0.5148030000000  0.5693080000000 1.0
C      1  0.4545970000000  0.5728520000000  0.4523200000000 1.0
C      1  0.5403080000000  0.5730070000000  0.5481780000000 1.0
C      1  0.5321460000000  0.5167040000000  0.5465420000000 1.0
C      1  0.4765130000000  0.4990700000000  0.4050610000000 1.0
C      1  0.4730370000000  0.4911270000000  0.5206460000000 1.0
C      1  0.4285130000000  0.4180700000000  0.4879530000000 1.0
C      1  0.5175560000000  0.4176750000000  0.5481640000000 1.0
C      1  0.5425000000000  0.4897210000000  0.4425020000000 1.0
C      1  0.4795760000000  0.5025110000000  0.5801600000000 1.0
C      1  0.6135640000000  0.4993640000000  0.4955540000000 1.0
C      1  0.4404860000000  0.5779200000000  0.4794270000000 1.0
C      1  0.4995690000000  0.3905330000000  0.5054160000000 1.0
C      1  0.5622850000000  0.5247280000000  0.5979440000000 1.0
C      1  0.5279710000000  0.5615840000000  0.4317370000000 1.0
C      1  0.5052240000000  0.5312690000000  0.5185330000000 1.0
C      1  0.5632150000000  0.5313120000000  0.4597010000000 1.0
C      1  0.5147060000000  0.5320510000000  0.4332220000000 1.0
C      1  0.5206030000000  0.4370300000000  0.4966720000000 1.0
C      1  0.4651330000000  0.4534560000000  0.4867270000000 1.0
C      1  0.5761560000000  0.4724000000000  0.4557970000000 1.0
C      1  0.5011620000000  0.4517040000000  0.5914020000000 1.0
C      1  0.5382690000000  0.6062140000000  0.5525770000000 1.0
C      1  0.5015630000000  0.4064620000000  0.4605820000000 1.0
C      1  0.4771080000000  0.5269680000000  0.4457130000000 1.0
C      1  0.4188210000000  0.5062840000000  0.4896040000000 1.0
C      1  0.5706700000000  0.5043200000000  0.4444070000000 1.0
C      1  0.5750210000000  0.5013630000000  0.5914640000000 1.0
C      1  0.5571560000000  0.4513400000000  0.4425760000000 1.0
C      1  0.4954290000000  0.5104400000000  0.4937100000000 1.0
C      1  0.4996880000000  0.5823970000000  0.4739450000000 1.0
C      1  0.4526870000000  0.5212990000000  0.4149530000000 1.0
C      1  0.5527240000000  0.6246770000000  0.5403250000000 1.0
C      1  0.5170820000000  0.5891420000000  0.5705950000000 1.0
C      1  0.4636990000000  0.4684440000000  0.5381270000000 1.0
C      1  0.4507470000000  0.5749680000000  0.5271140000000 1.0
C      1  0.5282830000000  0.5575560000000  0.5758600000000 1.0
C      1  0.4750840000000  0.5638210000000  0.5480820000000 1.0
END
