TITL C-2778429-3646-148 0.000510221381954922 125000 -380.231558590644 0 0 66 (C1) n - 1
REM
REM in /home/nfs/bkarasulu/CARBON/AIRSS/Generating-Clusters/REBO/Only-C1/SD-CG/HFTN-CG
REM
REM
REM
REM
REM
REM ./C.cell (11c1c37f851c82e70ff6c80c92926a4b)
REM
REM compiler GCC version 9.2.1 20190827 (Red Hat 9.2.1-1)
REM options -cpp -mtune=generic -march=x86-64 -g -O0 -fpre-include=/usr/include/finclude/math-vector-fortran.h
REM seed -376135251 -2127488856 239850785 998040076 1248428378 -323779337 98929989 458118281 -1057774166 1489741776 141734288 -68395675 1733314736 1828793658 -433940865 -38303215 -1043669512 1423673110 -437222892 438435213 261495149 -1973020594 -814475618 -1775096582 -680601919 1609779022 333144098 -650753024 251762231 -1516163606 1953931662 1929813253 -2051830176
REM
CELL 1.54180   50.00000   50.00000   50.00000   90.00000   90.00000   90.00000
LATT -1
SFAC C  
C      1  0.5353120000000  0.4530080000000  0.5545530000000 1.0
C      1  0.4849230000000  0.4300120000000  0.4868080000000 1.0
C      1  0.4432460000000  0.4930280000000  0.5423330000000 1.0
C      1  0.5164250000000  0.5554050000000  0.4817740000000 1.0
C      1  0.4843660000000  0.4869340000000  0.4881220000000 1.0
C      1  0.4719600000000  0.5503800000000  0.5617390000000 1.0
C      1  0.4978630000000  0.4839260000000  0.5284870000000 1.0
C      1  0.5458680000000  0.5409860000000  0.5172010000000 1.0
C      1  0.4699340000000  0.4369980000000  0.4641110000000 1.0
C      1  0.4443440000000  0.5299410000000  0.4859000000000 1.0
C      1  0.4420320000000  0.4443280000000  0.4693000000000 1.0
C      1  0.5229940000000  0.4726460000000  0.5079620000000 1.0
C      1  0.5152350000000  0.5023800000000  0.5592220000000 1.0
C      1  0.5369650000000  0.4823210000000  0.4566860000000 1.0
C      1  0.4716630000000  0.4896970000000  0.5497200000000 1.0
C      1  0.4360350000000  0.4708910000000  0.4599970000000 1.0
C      1  0.4521300000000  0.4796820000000  0.4962520000000 1.0
C      1  0.4773960000000  0.5842410000000  0.4899260000000 1.0
C      1  0.5557020000000  0.5138990000000  0.5284470000000 1.0
C      1  0.4863480000000  0.5685520000000  0.4426640000000 1.0
C      1  0.4447730000000  0.5187430000000  0.4537340000000 1.0
C      1  0.5423320000000  0.5422630000000  0.4891860000000 1.0
C      1  0.4800860000000  0.5050370000000  0.5780110000000 1.0
C      1  0.5584700000000  0.4689800000000  0.4782540000000 1.0
C      1  0.4516710000000  0.5336050000000  0.5189070000000 1.0
C      1  0.5544420000000  0.5156920000000  0.5606690000000 1.0
C      1  0.5760200000000  0.5000920000000  0.5109570000000 1.0
C      1  0.5686630000000  0.4953100000000  0.4851550000000 1.0
C      1  0.5261140000000  0.4114380000000  0.5090710000000 1.0
C      1  0.4543440000000  0.4762390000000  0.4381130000000 1.0
C      1  0.5358540000000  0.5348630000000  0.5694940000000 1.0
C      1  0.4807340000000  0.4589750000000  0.4444010000000 1.0
C      1  0.5120780000000  0.4677130000000  0.4414700000000 1.0
C      1  0.4924910000000  0.4410940000000  0.5335140000000 1.0
C      1  0.4748230000000  0.5310350000000  0.5809760000000 1.0
C      1  0.4836060000000  0.5105830000000  0.4241340000000 1.0
C      1  0.5411660000000  0.5127520000000  0.4415810000000 1.0
C      1  0.5444740000000  0.4853280000000  0.5540660000000 1.0
C      1  0.5287610000000  0.4947140000000  0.4871440000000 1.0
C      1  0.4345920000000  0.4982760000000  0.4780550000000 1.0
C      1  0.5492100000000  0.5167120000000  0.4729010000000 1.0
C      1  0.5092870000000  0.5504200000000  0.4524360000000 1.0
C      1  0.5471470000000  0.4655250000000  0.5265250000000 1.0
C      1  0.5023470000000  0.5116970000000  0.5002990000000 1.0
C      1  0.4724110000000  0.4643480000000  0.5188760000000 1.0
C      1  0.4999790000000  0.4216650000000  0.5128620000000 1.0
C      1  0.5338130000000  0.5403930000000  0.4345240000000 1.0
C      1  0.5147400000000  0.4969630000000  0.4270680000000 1.0
C      1  0.5070290000000  0.5346640000000  0.5513820000000 1.0
C      1  0.5556210000000  0.4510870000000  0.4997630000000 1.0
C      1  0.4672470000000  0.5746080000000  0.4613330000000 1.0
C      1  0.4922810000000  0.5414620000000  0.4994780000000 1.0
C      1  0.4644620000000  0.5531710000000  0.4868450000000 1.0
C      1  0.4363730000000  0.5199410000000  0.5371410000000 1.0
C      1  0.5229210000000  0.5073910000000  0.5270420000000 1.0
C      1  0.5287860000000  0.5532830000000  0.5347600000000 1.0
C      1  0.4962290000000  0.4768170000000  0.5677840000000 1.0
C      1  0.4576260000000  0.5039550000000  0.4326890000000 1.0
C      1  0.4905850000000  0.4892880000000  0.4578290000000 1.0
C      1  0.4345730000000  0.4755980000000  0.5230390000000 1.0
C      1  0.4972100000000  0.4583740000000  0.4978100000000 1.0
C      1  0.4811920000000  0.5427860000000  0.5306890000000 1.0
C      1  0.5065360000000  0.4509530000000  0.5562970000000 1.0
C      1  0.5026220000000  0.5201470000000  0.4492450000000 1.0
C      1  0.5048190000000  0.5829680000000  0.4935330000000 1.0
C      1  0.5487180000000  0.4237950000000  0.4997530000000 1.0
END
