TITL C-2778423-5760-1269 -0.000800229162376961 125000 -612.876113632399 0 0 105 (C1) n - 1
REM
REM in /home/nfs/bkarasulu/CARBON/AIRSS/Generating-Clusters/REBO/Only-C1/SD-CG/HFTN-CG
REM
REM
REM
REM
REM
REM ./C.cell (11c1c37f851c82e70ff6c80c92926a4b)
REM
REM compiler GCC version 9.2.1 20190827 (Red Hat 9.2.1-1)
REM options -cpp -mtune=generic -march=x86-64 -g -O0 -fpre-include=/usr/include/finclude/math-vector-fortran.h
REM seed -936749536 -236178999 -249869803 -777322192 1349360594 1848044014 1183287188 -2117519863 1493408768 2938605 -772174156 1235415154 2131014051 1963864406 -1013805069 351129773 -1690889322 -1097667997 -1336145393 1796609896 -1652116937 1055768419 -832663776 1937558952 -500551775 1974972593 -244106251 1997475639 1173406930 1233657253 924695236 -15935987 -807063687
REM
CELL 1.54180   50.00000   50.00000   50.00000   90.00000   90.00000   90.00000
LATT -1
SFAC C  
C      1  0.5048080000000  0.5115130000000  0.5203990000000 1.0
C      1  0.5712870000000  0.4945950000000  0.4599450000000 1.0
C      1  0.4441700000000  0.5485240000000  0.5130490000000 1.0
C      1  0.5478560000000  0.5072880000000  0.5302610000000 1.0
C      1  0.4736690000000  0.4658130000000  0.5218750000000 1.0
C      1  0.5128380000000  0.5512630000000  0.4843600000000 1.0
C      1  0.4109580000000  0.4924020000000  0.4836480000000 1.0
C      1  0.4712190000000  0.5684030000000  0.5529700000000 1.0
C      1  0.5631960000000  0.4616940000000  0.4560250000000 1.0
C      1  0.5138030000000  0.4941050000000  0.5847860000000 1.0
C      1  0.5676540000000  0.5020330000000  0.5642940000000 1.0
C      1  0.4462320000000  0.4424220000000  0.5687970000000 1.0
C      1  0.5777180000000  0.5277410000000  0.4644960000000 1.0
C      1  0.4930720000000  0.4260250000000  0.4981350000000 1.0
C      1  0.5418140000000  0.4281360000000  0.4872460000000 1.0
C      1  0.5668940000000  0.4406820000000  0.5265940000000 1.0
C      1  0.5836410000000  0.5057730000000  0.4896070000000 1.0
C      1  0.5112190000000  0.4430660000000  0.5713750000000 1.0
C      1  0.4167390000000  0.5342670000000  0.5047500000000 1.0
C      1  0.4923720000000  0.4621220000000  0.4283680000000 1.0
C      1  0.5135510000000  0.4297250000000  0.5242990000000 1.0
C      1  0.5521310000000  0.5441690000000  0.4553080000000 1.0
C      1  0.5344570000000  0.4966440000000  0.5584040000000 1.0
C      1  0.5467800000000  0.5691200000000  0.5309310000000 1.0
C      1  0.5127810000000  0.4830560000000  0.5358310000000 1.0
C      1  0.5189830000000  0.5013420000000  0.4074420000000 1.0
C      1  0.5251300000000  0.5384250000000  0.4350890000000 1.0
C      1  0.4248130000000  0.5219110000000  0.5354870000000 1.0
C      1  0.4632260000000  0.5712630000000  0.5019750000000 1.0
C      1  0.4553030000000  0.5108400000000  0.4693800000000 1.0
C      1  0.4481900000000  0.5557710000000  0.4468940000000 1.0
C      1  0.4796560000000  0.5299890000000  0.4192500000000 1.0
C      1  0.4845700000000  0.5016980000000  0.5691540000000 1.0
C      1  0.5586370000000  0.5680260000000  0.4990410000000 1.0
C      1  0.4459820000000  0.4691410000000  0.5016630000000 1.0
C      1  0.5549330000000  0.4327700000000  0.5529610000000 1.0
C      1  0.4517200000000  0.4242960000000  0.5484640000000 1.0
C      1  0.5505370000000  0.5368330000000  0.5195490000000 1.0
C      1  0.4304430000000  0.4617190000000  0.5296430000000 1.0
C      1  0.4423870000000  0.4726920000000  0.5592690000000 1.0
C      1  0.5311020000000  0.5211420000000  0.5925810000000 1.0
C      1  0.5174040000000  0.5506920000000  0.5506120000000 1.0
C      1  0.4942490000000  0.5684470000000  0.5152970000000 1.0
C      1  0.4641100000000  0.5327040000000  0.4919350000000 1.0
C      1  0.5494170000000  0.3925130000000  0.5226600000000 1.0
C      1  0.5167940000000  0.5280270000000  0.4636900000000 1.0
C      1  0.5484990000000  0.5482150000000  0.5578020000000 1.0
C      1  0.5334330000000  0.4861710000000  0.4258250000000 1.0
C      1  0.5757180000000  0.4572830000000  0.5049440000000 1.0
C      1  0.4460090000000  0.5467890000000  0.5451720000000 1.0
C      1  0.4642680000000  0.5040010000000  0.4035230000000 1.0
C      1  0.4624990000000  0.4752550000000  0.4183620000000 1.0
C      1  0.4671130000000  0.4806490000000  0.4699860000000 1.0
C      1  0.4894870000000  0.5917320000000  0.4935130000000 1.0
C      1  0.4748720000000  0.5565780000000  0.4359240000000 1.0
C      1  0.5091840000000  0.5256500000000  0.4147320000000 1.0
C      1  0.4978330000000  0.5754070000000  0.5541360000000 1.0
C      1  0.5440210000000  0.4193270000000  0.5169860000000 1.0
C      1  0.4164710000000  0.5206020000000  0.4796970000000 1.0
C      1  0.4694660000000  0.4846590000000  0.5501460000000 1.0
C      1  0.5070800000000  0.4690690000000  0.5659410000000 1.0
C      1  0.5759000000000  0.5385690000000  0.4968670000000 1.0
C      1  0.5060500000000  0.5881170000000  0.4707380000000 1.0
C      1  0.5046540000000  0.5328190000000  0.5837100000000 1.0
C      1  0.4489790000000  0.4344470000000  0.5210460000000 1.0
C      1  0.5769290000000  0.4943100000000  0.5356540000000 1.0
C      1  0.5388190000000  0.4930090000000  0.4553090000000 1.0
C      1  0.5392260000000  0.5027670000000  0.5007580000000 1.0
C      1  0.4805310000000  0.4311560000000  0.4605450000000 1.0
C      1  0.4054230000000  0.4876430000000  0.5132730000000 1.0
C      1  0.5015460000000  0.5232030000000  0.5504800000000 1.0
C      1  0.4860330000000  0.4610250000000  0.4731300000000 1.0
C      1  0.5305420000000  0.5690400000000  0.4461300000000 1.0
C      1  0.4176680000000  0.4898590000000  0.5449290000000 1.0
C      1  0.4437620000000  0.4809480000000  0.4456940000000 1.0
C      1  0.4650540000000  0.4328620000000  0.4973810000000 1.0
C      1  0.4829770000000  0.5552550000000  0.4793040000000 1.0
C      1  0.4374000000000  0.5009070000000  0.5122980000000 1.0
C      1  0.4855870000000  0.5083780000000  0.4952610000000 1.0
C      1  0.4292820000000  0.4693540000000  0.4726330000000 1.0
C      1  0.4629940000000  0.4471110000000  0.4374700000000 1.0
C      1  0.4674170000000  0.4977170000000  0.5189400000000 1.0
C      1  0.5082560000000  0.4226890000000  0.4497270000000 1.0
C      1  0.5170200000000  0.4431560000000  0.4323030000000 1.0
C      1  0.5213920000000  0.5885000000000  0.5390700000000 1.0
C      1  0.5286660000000  0.4840920000000  0.4812830000000 1.0
C      1  0.4343730000000  0.5341940000000  0.4590480000000 1.0
C      1  0.4737560000000  0.5285160000000  0.5850140000000 1.0
C      1  0.4523850000000  0.5420590000000  0.5762310000000 1.0
C      1  0.5538500000000  0.5270170000000  0.5757220000000 1.0
C      1  0.4501030000000  0.4442000000000  0.4689850000000 1.0
C      1  0.4982560000000  0.4879080000000  0.4461600000000 1.0
C      1  0.5154280000000  0.4227570000000  0.4781120000000 1.0
C      1  0.5361890000000  0.5743870000000  0.4792030000000 1.0
C      1  0.4568060000000  0.5107500000000  0.4357170000000 1.0
C      1  0.5624060000000  0.4473660000000  0.4804410000000 1.0
C      1  0.5847640000000  0.4841550000000  0.5105410000000 1.0
C      1  0.5425010000000  0.5250120000000  0.4822370000000 1.0
C      1  0.5265530000000  0.4284720000000  0.5529690000000 1.0
C      1  0.5170310000000  0.5431060000000  0.5173640000000 1.0
C      1  0.5416550000000  0.4583490000000  0.4357490000000 1.0
C      1  0.4981570000000  0.5055910000000  0.4670480000000 1.0
C      1  0.5089380000000  0.4657610000000  0.4883640000000 1.0
C      1  0.5038480000000  0.4594300000000  0.5171620000000 1.0
C      1  0.4964960000000  0.5718280000000  0.4455240000000 1.0
END
