TITL C-2778422-5617-1163 0.00498060298149185 125000 -1102.57491746966 0 0 189 (C1) n - 1
REM
REM in /home/nfs/bkarasulu/CARBON/AIRSS/Generating-Clusters/REBO/Only-C1/SD-CG/HFTN-CG
REM
REM
REM
REM
REM
REM ./C.cell (11c1c37f851c82e70ff6c80c92926a4b)
REM
REM compiler GCC version 9.2.1 20190827 (Red Hat 9.2.1-1)
REM options -cpp -mtune=generic -march=x86-64 -g -O0 -fpre-include=/usr/include/finclude/math-vector-fortran.h
REM seed 7282806 277934965 578114353 1735068713 1342324712 -1949417624 1077826242 448572326 1832103077 988166745 1595524231 125504544 -798333957 2018444988 -1082816277 2000666085 -70258444 -965970612 862227932 1019194206 1982198194 -1318847922 -1264192935 1437013312 488254274 1145844455 1226261201 -1239001910 917068880 951731409 -68635367 -183915097 -1652203433
REM
CELL 1.54180   50.00000   50.00000   50.00000   90.00000   90.00000   90.00000
LATT -1
SFAC C  
C      1  0.5077640000000  0.4869940000000  0.4718010000000 1.0
C      1  0.3821950000000  0.4898770000000  0.4846430000000 1.0
C      1  0.5563670000000  0.4715710000000  0.4291850000000 1.0
C      1  0.5547210000000  0.5223340000000  0.6090020000000 1.0
C      1  0.6164340000000  0.4712410000000  0.5137790000000 1.0
C      1  0.5469910000000  0.3985640000000  0.4584710000000 1.0
C      1  0.4985110000000  0.3920160000000  0.5133950000000 1.0
C      1  0.5787740000000  0.4268290000000  0.5104020000000 1.0
C      1  0.4308170000000  0.5316750000000  0.5729490000000 1.0
C      1  0.4957690000000  0.5006620000000  0.5856010000000 1.0
C      1  0.5505690000000  0.5678870000000  0.4256890000000 1.0
C      1  0.5104170000000  0.4288340000000  0.4537780000000 1.0
C      1  0.4842190000000  0.4193350000000  0.4593680000000 1.0
C      1  0.5954530000000  0.4524080000000  0.4561650000000 1.0
C      1  0.5982930000000  0.5217030000000  0.4825810000000 1.0
C      1  0.4042650000000  0.5557530000000  0.4359090000000 1.0
C      1  0.4812730000000  0.5361110000000  0.4674830000000 1.0
C      1  0.5673310000000  0.4088540000000  0.4837170000000 1.0
C      1  0.5644510000000  0.4093140000000  0.5355240000000 1.0
C      1  0.5194170000000  0.5831140000000  0.5590580000000 1.0
C      1  0.4241560000000  0.4931060000000  0.5159230000000 1.0
C      1  0.5615650000000  0.4156210000000  0.5613410000000 1.0
C      1  0.5074960000000  0.5241430000000  0.6044700000000 1.0
C      1  0.4898110000000  0.5151750000000  0.4935630000000 1.0
C      1  0.5570630000000  0.4975450000000  0.5326620000000 1.0
C      1  0.5184440000000  0.4869260000000  0.5012090000000 1.0
C      1  0.5716820000000  0.5678280000000  0.5163270000000 1.0
C      1  0.5074940000000  0.3694420000000  0.4797180000000 1.0
C      1  0.4159080000000  0.4481510000000  0.5171380000000 1.0
C      1  0.5462010000000  0.5011480000000  0.6204510000000 1.0
C      1  0.5206140000000  0.5183800000000  0.5022940000000 1.0
C      1  0.4833540000000  0.5603950000000  0.4428960000000 1.0
C      1  0.5882070000000  0.4475330000000  0.5432200000000 1.0
C      1  0.4842650000000  0.5087420000000  0.5326510000000 1.0
C      1  0.4237300000000  0.5759580000000  0.5155930000000 1.0
C      1  0.4792000000000  0.3804840000000  0.4904280000000 1.0
C      1  0.5635610000000  0.4652320000000  0.5376690000000 1.0
C      1  0.4667760000000  0.5957440000000  0.5463850000000 1.0
C      1  0.4629080000000  0.5021690000000  0.5945780000000 1.0
C      1  0.5778290000000  0.4775660000000  0.4972640000000 1.0
C      1  0.5169540000000  0.4933020000000  0.6145510000000 1.0
C      1  0.5681010000000  0.5589090000000  0.5486620000000 1.0
C      1  0.4155600000000  0.5301130000000  0.4553220000000 1.0
C      1  0.6075470000000  0.5099090000000  0.5567170000000 1.0
C      1  0.6162780000000  0.4980500000000  0.5325870000000 1.0
C      1  0.5263220000000  0.4986950000000  0.3764670000000 1.0
C      1  0.4321040000000  0.4072540000000  0.4969400000000 1.0
C      1  0.4994180000000  0.5997410000000  0.5370010000000 1.0
C      1  0.5931900000000  0.4772070000000  0.4697120000000 1.0
C      1  0.4722080000000  0.5639730000000  0.5899670000000 1.0
C      1  0.4141710000000  0.4198770000000  0.5149920000000 1.0
C      1  0.5437810000000  0.4713930000000  0.4586670000000 1.0
C      1  0.4371690000000  0.4576060000000  0.5798940000000 1.0
C      1  0.4665040000000  0.5143160000000  0.3919390000000 1.0
C      1  0.4789160000000  0.5851900000000  0.4792990000000 1.0
C      1  0.5708420000000  0.4304930000000  0.4602560000000 1.0
C      1  0.4816370000000  0.4583550000000  0.5754510000000 1.0
C      1  0.5114270000000  0.5352050000000  0.4031100000000 1.0
C      1  0.4780370000000  0.4423420000000  0.5962160000000 1.0
C      1  0.5452560000000  0.5003470000000  0.4703280000000 1.0
C      1  0.5395190000000  0.5571280000000  0.5669920000000 1.0
C      1  0.5176390000000  0.5322180000000  0.5626460000000 1.0
C      1  0.4769150000000  0.4511750000000  0.4490300000000 1.0
C      1  0.5456720000000  0.5131750000000  0.4383050000000 1.0
C      1  0.5340800000000  0.5612900000000  0.5277730000000 1.0
C      1  0.5580190000000  0.4533430000000  0.5071190000000 1.0
C      1  0.4424020000000  0.4275740000000  0.4758210000000 1.0
C      1  0.4378980000000  0.4591010000000  0.4999770000000 1.0
C      1  0.5713370000000  0.5321780000000  0.4646650000000 1.0
C      1  0.5151670000000  0.5161700000000  0.4629070000000 1.0
C      1  0.4454170000000  0.5385160000000  0.4916030000000 1.0
C      1  0.4682430000000  0.6031470000000  0.5130760000000 1.0
C      1  0.4638660000000  0.5634130000000  0.4775390000000 1.0
C      1  0.5718960000000  0.5662370000000  0.4668060000000 1.0
C      1  0.4578340000000  0.4792790000000  0.5346410000000 1.0
C      1  0.4509900000000  0.5091990000000  0.5237800000000 1.0
C      1  0.5850140000000  0.5353520000000  0.5545880000000 1.0
C      1  0.4786110000000  0.4291850000000  0.5213290000000 1.0
C      1  0.4052230000000  0.5276200000000  0.5303760000000 1.0
C      1  0.5223250000000  0.4070480000000  0.5061900000000 1.0
C      1  0.4551630000000  0.5345680000000  0.5935760000000 1.0
C      1  0.5264510000000  0.4616380000000  0.5176110000000 1.0
C      1  0.5038590000000  0.4563190000000  0.5537270000000 1.0
C      1  0.5062630000000  0.6104440000000  0.4649760000000 1.0
C      1  0.4661750000000  0.4417560000000  0.4956000000000 1.0
C      1  0.4860430000000  0.4965590000000  0.4332880000000 1.0
C      1  0.5498830000000  0.3997010000000  0.5103550000000 1.0
C      1  0.5602730000000  0.5049860000000  0.4997370000000 1.0
C      1  0.5081470000000  0.5028620000000  0.5542950000000 1.0
C      1  0.5048010000000  0.5629130000000  0.5221850000000 1.0
C      1  0.4405640000000  0.4592420000000  0.5464640000000 1.0
C      1  0.4175570000000  0.5026280000000  0.5729970000000 1.0
C      1  0.4338650000000  0.4885430000000  0.4839330000000 1.0
C      1  0.4733000000000  0.5383130000000  0.5064100000000 1.0
C      1  0.4227630000000  0.5504470000000  0.5486200000000 1.0
C      1  0.5189970000000  0.4370340000000  0.4162490000000 1.0
C      1  0.5882690000000  0.5043010000000  0.4549200000000 1.0
C      1  0.5424750000000  0.4628810000000  0.5612440000000 1.0
C      1  0.5752740000000  0.5499940000000  0.4371010000000 1.0
C      1  0.5570340000000  0.5384990000000  0.3910640000000 1.0
C      1  0.4467380000000  0.4120460000000  0.4478230000000 1.0
C      1  0.3895520000000  0.5181730000000  0.4710520000000 1.0
C      1  0.5897900000000  0.4422220000000  0.5706630000000 1.0
C      1  0.4433490000000  0.5156350000000  0.4117460000000 1.0
C      1  0.4954740000000  0.4466020000000  0.4862090000000 1.0
C      1  0.5741720000000  0.5332610000000  0.5121860000000 1.0
C      1  0.3953440000000  0.5578820000000  0.4756560000000 1.0
C      1  0.5120710000000  0.4809290000000  0.3916160000000 1.0
C      1  0.4964120000000  0.5516210000000  0.5504630000000 1.0
C      1  0.5504940000000  0.5857200000000  0.4758550000000 1.0
C      1  0.5255270000000  0.5891060000000  0.4628120000000 1.0
C      1  0.4349540000000  0.5691840000000  0.4424150000000 1.0
C      1  0.4713620000000  0.5354770000000  0.5459450000000 1.0
C      1  0.4671050000000  0.3974450000000  0.4668480000000 1.0
C      1  0.5739310000000  0.5286020000000  0.4127020000000 1.0
C      1  0.4353600000000  0.5824680000000  0.5460940000000 1.0
C      1  0.5753800000000  0.4475570000000  0.4318010000000 1.0
C      1  0.4744720000000  0.4264860000000  0.6167750000000 1.0
C      1  0.4530860000000  0.5117380000000  0.5573560000000 1.0
C      1  0.5548870000000  0.4400510000000  0.5815920000000 1.0
C      1  0.5508490000000  0.5884410000000  0.5039090000000 1.0
C      1  0.4065290000000  0.4976590000000  0.5443680000000 1.0
C      1  0.5107130000000  0.5619030000000  0.4602180000000 1.0
C      1  0.3927870000000  0.5345420000000  0.4993790000000 1.0
C      1  0.4659030000000  0.4823070000000  0.5670800000000 1.0
C      1  0.5438430000000  0.5396630000000  0.5107340000000 1.0
C      1  0.5289680000000  0.4848040000000  0.5415800000000 1.0
C      1  0.5497720000000  0.5871170000000  0.5435980000000 1.0
C      1  0.4338000000000  0.4849090000000  0.5902220000000 1.0
C      1  0.5682250000000  0.5104230000000  0.5578150000000 1.0
C      1  0.4553760000000  0.6120790000000  0.4617850000000 1.0
C      1  0.5073570000000  0.5225040000000  0.4317230000000 1.0
C      1  0.4855630000000  0.3939350000000  0.5388110000000 1.0
C      1  0.4526380000000  0.5564960000000  0.5351620000000 1.0
C      1  0.4473770000000  0.6078940000000  0.4887140000000 1.0
C      1  0.6024800000000  0.5001270000000  0.5022670000000 1.0
C      1  0.5330110000000  0.5241170000000  0.3862830000000 1.0
C      1  0.5002810000000  0.5534710000000  0.4907430000000 1.0
C      1  0.6052140000000  0.4463930000000  0.5190320000000 1.0
C      1  0.5731390000000  0.4999650000000  0.4269610000000 1.0
C      1  0.4737250000000  0.5708850000000  0.5161810000000 1.0
C      1  0.4444850000000  0.4293640000000  0.5603740000000 1.0
C      1  0.5341450000000  0.4167900000000  0.4391530000000 1.0
C      1  0.4525350000000  0.4851970000000  0.4146980000000 1.0
C      1  0.5204800000000  0.4521030000000  0.5826250000000 1.0
C      1  0.4388640000000  0.5171770000000  0.4714220000000 1.0
C      1  0.4768150000000  0.4757140000000  0.4661250000000 1.0
C      1  0.5272810000000  0.6000790000000  0.5223680000000 1.0
C      1  0.4323080000000  0.5383720000000  0.4269340000000 1.0
C      1  0.4000310000000  0.4940040000000  0.4494360000000 1.0
C      1  0.4124780000000  0.4415680000000  0.5564240000000 1.0
C      1  0.4613700000000  0.5837920000000  0.4434110000000 1.0
C      1  0.4648940000000  0.4147120000000  0.5446430000000 1.0
C      1  0.5212240000000  0.4316100000000  0.4918060000000 1.0
C      1  0.5292900000000  0.4653460000000  0.4130190000000 1.0
C      1  0.4388060000000  0.4599690000000  0.4659580000000 1.0
C      1  0.3985660000000  0.4799510000000  0.5006260000000 1.0
C      1  0.5143770000000  0.4583880000000  0.4604350000000 1.0
C      1  0.4902850000000  0.4372590000000  0.4203580000000 1.0
C      1  0.4935410000000  0.6103840000000  0.4929080000000 1.0
C      1  0.5506600000000  0.5660490000000  0.3980690000000 1.0
C      1  0.4600680000000  0.4291540000000  0.4291480000000 1.0
C      1  0.5798490000000  0.4662850000000  0.5865420000000 1.0
C      1  0.5122740000000  0.4647180000000  0.6061990000000 1.0
C      1  0.4024490000000  0.4662740000000  0.5373310000000 1.0
C      1  0.4836460000000  0.4867900000000  0.4010430000000 1.0
C      1  0.4477920000000  0.3849220000000  0.4994210000000 1.0
C      1  0.4901430000000  0.4754020000000  0.5291070000000 1.0
C      1  0.4832890000000  0.6099100000000  0.4470100000000 1.0
C      1  0.5336180000000  0.5376000000000  0.5922890000000 1.0
C      1  0.5366890000000  0.5451910000000  0.4459080000000 1.0
C      1  0.4428010000000  0.4658030000000  0.4348230000000 1.0
C      1  0.4261340000000  0.4909590000000  0.4441720000000 1.0
C      1  0.4866580000000  0.5772280000000  0.5668870000000 1.0
C      1  0.4818680000000  0.5373010000000  0.3889010000000 1.0
C      1  0.4788110000000  0.4857940000000  0.4986860000000 1.0
C      1  0.4255160000000  0.5903410000000  0.4912740000000 1.0
C      1  0.5474640000000  0.4443740000000  0.4775940000000 1.0
C      1  0.4226090000000  0.5466800000000  0.5088770000000 1.0
C      1  0.4880340000000  0.5551620000000  0.4145350000000 1.0
C      1  0.5201110000000  0.4914470000000  0.4315600000000 1.0
C      1  0.5362510000000  0.5378900000000  0.4789130000000 1.0
C      1  0.4586840000000  0.4982070000000  0.4519360000000 1.0
C      1  0.4841600000000  0.5416270000000  0.6098830000000 1.0
C      1  0.5853950000000  0.4917760000000  0.5758570000000 1.0
C      1  0.5049330000000  0.4387160000000  0.5273630000000 1.0
C      1  0.5300780000000  0.3772530000000  0.4672160000000 1.0
C      1  0.5907700000000  0.5537000000000  0.4917560000000 1.0
C      1  0.4155200000000  0.5752130000000  0.4689280000000 1.0
END
