TITL C-2778434-4341-58 1.09321303755439e-05 125000 -53.3064231234789 0 0 10 (Cs) n - 1
REM
REM in /home/nfs/bkarasulu/CARBON/AIRSS/Generating-Clusters/REBO/Only-C1/SD-CG/HFTN-CG
REM
REM
REM
REM
REM
REM ./C.cell (11c1c37f851c82e70ff6c80c92926a4b)
REM
REM compiler GCC version 9.2.1 20190827 (Red Hat 9.2.1-1)
REM options -cpp -mtune=generic -march=x86-64 -g -O0 -fpre-include=/usr/include/finclude/math-vector-fortran.h
REM seed 1696392855 -419023031 1970272398 336085380 -855359678 -568498656 -101140239 60725529 344543651 -836068601 -1559492320 383112939 1837612023 1355811977 364572821 926991102 -454625731 -1930480895 -803767894 393491403 -761648228 1966130035 2113229360 1712291857 -1852398396 618015259 1886991805 1503678148 -1516631493 980097413 918124917 1196280190 -270466247
REM
CELL 1.54180   50.00000   50.00000   50.00000   90.00000   90.00000   90.00000
LATT -1
SFAC C  
C      1  0.4386230000000  0.4764760000000  0.5116030000000 1.0
C      1  0.5449660000000  0.5097680000000  0.5505050000000 1.0
C      1  0.5351730000000  0.5180550000000  0.4571950000000 1.0
C      1  0.4140950000000  0.4674300000000  0.5134330000000 1.0
C      1  0.5450300000000  0.5245580000000  0.4337990000000 1.0
C      1  0.5251570000000  0.5114480000000  0.4809700000000 1.0
C      1  0.5302940000000  0.5072250000000  0.5289390000000 1.0
C      1  0.4884730000000  0.4948600000000  0.5078830000000 1.0
C      1  0.4635480000000  0.4856680000000  0.5097430000000 1.0
C      1  0.5146410000000  0.5045110000000  0.5059310000000 1.0
END
