TITL C-2778429-3646-1477 0.00143083736513341 125000 -790.067254224977 0 0 133 (C1) n - 1
REM
REM in /home/nfs/bkarasulu/CARBON/AIRSS/Generating-Clusters/REBO/Only-C1/SD-CG/HFTN-CG
REM
REM
REM
REM
REM
REM ./C.cell (11c1c37f851c82e70ff6c80c92926a4b)
REM
REM compiler GCC version 9.2.1 20190827 (Red Hat 9.2.1-1)
REM options -cpp -mtune=generic -march=x86-64 -g -O0 -fpre-include=/usr/include/finclude/math-vector-fortran.h
REM seed -1569796219 623551808 242181569 -167131186 225134202 -1382475502 -828045993 -1271505522 -874709783 80522972 -743747940 1265191494 -161308774 583773884 -982529668 -123436884 706795795 1950997058 1684816090 -1677845220 -695411891 -280577937 -464021995 1667830435 -1881121394 26212461 1524007453 546533884 -487394008 1117169990 -2044222288 72474478 -849420150
REM
CELL 1.54180   50.00000   50.00000   50.00000   90.00000   90.00000   90.00000
LATT -1
SFAC C  
C      1  0.5318650000000  0.4211050000000  0.4358760000000 1.0
C      1  0.4594530000000  0.5750560000000  0.5332850000000 1.0
C      1  0.4618670000000  0.4358540000000  0.4678710000000 1.0
C      1  0.5161710000000  0.5414520000000  0.5038780000000 1.0
C      1  0.5369630000000  0.4580800000000  0.5859300000000 1.0
C      1  0.5179290000000  0.5256860000000  0.4580930000000 1.0
C      1  0.3894300000000  0.5629480000000  0.5389860000000 1.0
C      1  0.4056150000000  0.5420450000000  0.5317480000000 1.0
C      1  0.4382620000000  0.4925630000000  0.5454640000000 1.0
C      1  0.4951900000000  0.4958820000000  0.5969380000000 1.0
C      1  0.5675420000000  0.5741430000000  0.5314710000000 1.0
C      1  0.4429140000000  0.4920100000000  0.4348230000000 1.0
C      1  0.4533710000000  0.4586430000000  0.4540840000000 1.0
C      1  0.4268540000000  0.5591520000000  0.4844480000000 1.0
C      1  0.5088610000000  0.5273560000000  0.4107520000000 1.0
C      1  0.5190990000000  0.5345590000000  0.5664970000000 1.0
C      1  0.5277940000000  0.4079300000000  0.5571070000000 1.0
C      1  0.4176100000000  0.5283570000000  0.4520900000000 1.0
C      1  0.5188270000000  0.3919950000000  0.5128790000000 1.0
C      1  0.4461640000000  0.5083200000000  0.4078270000000 1.0
C      1  0.5333040000000  0.4888150000000  0.4594680000000 1.0
C      1  0.4451600000000  0.5375640000000  0.5628430000000 1.0
C      1  0.5388300000000  0.4311780000000  0.5687800000000 1.0
C      1  0.4367360000000  0.5423600000000  0.5324060000000 1.0
C      1  0.4773330000000  0.4741850000000  0.5516220000000 1.0
C      1  0.3992530000000  0.5158410000000  0.5227590000000 1.0
C      1  0.5791080000000  0.4678100000000  0.4381210000000 1.0
C      1  0.5762790000000  0.4663890000000  0.5140430000000 1.0
C      1  0.5562040000000  0.5142880000000  0.4228440000000 1.0
C      1  0.4140080000000  0.5343290000000  0.4792740000000 1.0
C      1  0.4451550000000  0.4455040000000  0.5199580000000 1.0
C      1  0.4983240000000  0.4483130000000  0.5831640000000 1.0
C      1  0.5791300000000  0.4839400000000  0.5620740000000 1.0
C      1  0.4765440000000  0.4110740000000  0.4952220000000 1.0
C      1  0.5292860000000  0.4956510000000  0.5965780000000 1.0
C      1  0.5947010000000  0.4675290000000  0.4619400000000 1.0
C      1  0.5530760000000  0.4786580000000  0.4987470000000 1.0
C      1  0.5202110000000  0.4683920000000  0.5369610000000 1.0
C      1  0.5382840000000  0.5126850000000  0.5699600000000 1.0
C      1  0.5091290000000  0.4665880000000  0.4812470000000 1.0
C      1  0.4760860000000  0.5672100000000  0.4432410000000 1.0
C      1  0.4906050000000  0.4654390000000  0.5243600000000 1.0
C      1  0.4753190000000  0.5501050000000  0.5379750000000 1.0
C      1  0.5619880000000  0.4834150000000  0.4183370000000 1.0
C      1  0.5140390000000  0.4736430000000  0.5669520000000 1.0
C      1  0.4845150000000  0.5354090000000  0.5086680000000 1.0
C      1  0.5263330000000  0.5222610000000  0.4313390000000 1.0
C      1  0.4476900000000  0.4837840000000  0.5763980000000 1.0
C      1  0.5557440000000  0.4849780000000  0.5776540000000 1.0
C      1  0.5110770000000  0.4667440000000  0.4102090000000 1.0
C      1  0.4806940000000  0.5621270000000  0.5689820000000 1.0
C      1  0.4582260000000  0.4392760000000  0.5434220000000 1.0
C      1  0.4817860000000  0.5410310000000  0.3970230000000 1.0
C      1  0.5548550000000  0.5020240000000  0.4529240000000 1.0
C      1  0.5722890000000  0.5628020000000  0.4771500000000 1.0
C      1  0.4998180000000  0.5457050000000  0.5826340000000 1.0
C      1  0.5180760000000  0.5718970000000  0.5433290000000 1.0
C      1  0.4101280000000  0.5110060000000  0.4964330000000 1.0
C      1  0.5337570000000  0.4910300000000  0.5215100000000 1.0
C      1  0.4883120000000  0.4379020000000  0.5136750000000 1.0
C      1  0.4057090000000  0.4952650000000  0.5416270000000 1.0
C      1  0.5655150000000  0.4333020000000  0.4861750000000 1.0
C      1  0.3780770000000  0.4483950000000  0.5358880000000 1.0
C      1  0.4723390000000  0.5135680000000  0.4855710000000 1.0
C      1  0.4929030000000  0.5420310000000  0.4596950000000 1.0
C      1  0.4165130000000  0.5021730000000  0.4449730000000 1.0
C      1  0.4572310000000  0.5149320000000  0.5322270000000 1.0
C      1  0.5852410000000  0.4995790000000  0.5342500000000 1.0
C      1  0.4883170000000  0.5204830000000  0.5453230000000 1.0
C      1  0.5074770000000  0.6081570000000  0.5240430000000 1.0
C      1  0.4936460000000  0.5832890000000  0.5521500000000 1.0
C      1  0.5595230000000  0.5437780000000  0.4367510000000 1.0
C      1  0.5086700000000  0.4336690000000  0.4882250000000 1.0
C      1  0.5229530000000  0.5943900000000  0.5106260000000 1.0
C      1  0.5139490000000  0.5408890000000  0.5351800000000 1.0
C      1  0.5389200000000  0.4664780000000  0.4091100000000 1.0
C      1  0.5987180000000  0.4853670000000  0.5070190000000 1.0
C      1  0.5369090000000  0.5626580000000  0.4448000000000 1.0
C      1  0.5450500000000  0.4510280000000  0.5474340000000 1.0
C      1  0.5117290000000  0.4682350000000  0.6064090000000 1.0
C      1  0.5790590000000  0.5417360000000  0.4588390000000 1.0
C      1  0.4901260000000  0.4195120000000  0.4651110000000 1.0
C      1  0.5546870000000  0.4457120000000  0.4291740000000 1.0
C      1  0.4842510000000  0.4804490000000  0.4087130000000 1.0
C      1  0.4419030000000  0.5442560000000  0.4421760000000 1.0
C      1  0.5759460000000  0.5512120000000  0.5203900000000 1.0
C      1  0.4287540000000  0.4706640000000  0.5207850000000 1.0
C      1  0.4245720000000  0.4861690000000  0.4936440000000 1.0
C      1  0.5607270000000  0.4194670000000  0.5143540000000 1.0
C      1  0.5042170000000  0.4268160000000  0.4397190000000 1.0
C      1  0.4466470000000  0.5696420000000  0.4606030000000 1.0
C      1  0.5263510000000  0.5177540000000  0.4869270000000 1.0
C      1  0.4987600000000  0.4078840000000  0.5533860000000 1.0
C      1  0.4792350000000  0.4961650000000  0.5140440000000 1.0
C      1  0.4688080000000  0.5869980000000  0.4771460000000 1.0
C      1  0.4663860000000  0.4954540000000  0.6017950000000 1.0
C      1  0.4604730000000  0.4551070000000  0.5723170000000 1.0
C      1  0.4911080000000  0.4717090000000  0.4562440000000 1.0
C      1  0.4589420000000  0.5924890000000  0.5046020000000 1.0
C      1  0.4992100000000  0.4541600000000  0.4347610000000 1.0
C      1  0.5559580000000  0.5102990000000  0.4922200000000 1.0
C      1  0.5522970000000  0.5060890000000  0.5423480000000 1.0
C      1  0.5316520000000  0.4153160000000  0.4971060000000 1.0
C      1  0.5410980000000  0.3992400000000  0.5322530000000 1.0
C      1  0.4461060000000  0.5169230000000  0.5761940000000 1.0
C      1  0.5488360000000  0.4339310000000  0.4594360000000 1.0
C      1  0.4971930000000  0.5693310000000  0.4766690000000 1.0
C      1  0.4362180000000  0.5679950000000  0.5111840000000 1.0
C      1  0.4365120000000  0.4753660000000  0.4705220000000 1.0
C      1  0.5439970000000  0.5820020000000  0.5422560000000 1.0
C      1  0.4586350000000  0.5332550000000  0.4160500000000 1.0
C      1  0.5936650000000  0.4432340000000  0.4774430000000 1.0
C      1  0.5665150000000  0.4453100000000  0.5300020000000 1.0
C      1  0.5786180000000  0.5132510000000  0.4703430000000 1.0
C      1  0.4694580000000  0.5266560000000  0.4473270000000 1.0
C      1  0.4810880000000  0.5616610000000  0.3794470000000 1.0
C      1  0.5101480000000  0.5707890000000  0.4382230000000 1.0
C      1  0.4524370000000  0.4331810000000  0.4966540000000 1.0
C      1  0.4636880000000  0.4700040000000  0.4265360000000 1.0
C      1  0.5981420000000  0.4911070000000  0.4784980000000 1.0
C      1  0.5089670000000  0.4920280000000  0.4993370000000 1.0
C      1  0.4935740000000  0.4987750000000  0.5644740000000 1.0
C      1  0.4922450000000  0.4049370000000  0.5232390000000 1.0
C      1  0.3979930000000  0.4665960000000  0.5346960000000 1.0
C      1  0.4812220000000  0.4284530000000  0.5661040000000 1.0
C      1  0.5452890000000  0.5706640000000  0.4722860000000 1.0
C      1  0.4770830000000  0.6032520000000  0.5313300000000 1.0
C      1  0.5674230000000  0.5224620000000  0.5180850000000 1.0
C      1  0.4691410000000  0.4953120000000  0.4569850000000 1.0
C      1  0.5230720000000  0.5701280000000  0.4922190000000 1.0
C      1  0.4857330000000  0.5074430000000  0.4020830000000 1.0
C      1  0.4927320000000  0.5952710000000  0.4543810000000 1.0
C      1  0.5405400000000  0.4567030000000  0.4815870000000 1.0
END
