TITL C-2778429-3646-23 0.0021055640379022 125000 -960.060352820809 0 0 166 (C1) n - 1
REM
REM in /home/nfs/bkarasulu/CARBON/AIRSS/Generating-Clusters/REBO/Only-C1/SD-CG/HFTN-CG
REM
REM
REM
REM
REM
REM ./C.cell (11c1c37f851c82e70ff6c80c92926a4b)
REM
REM compiler GCC version 9.2.1 20190827 (Red Hat 9.2.1-1)
REM options -cpp -mtune=generic -march=x86-64 -g -O0 -fpre-include=/usr/include/finclude/math-vector-fortran.h
REM seed -1000135259 1696524705 915986639 -661734827 1462300751 2031478333 1410924670 49223395 -627688172 -1901360623 1163402889 -472777812 1749272423 106495768 1170153097 -1718854635 1519977188 1702871658 -1186637296 -1030761672 -1591742321 792878674 -1751763162 1950507839 1766189612 2137746011 -1690481557 1797531951 469267910 646306837 1219786814 977386336 -271976810
REM
CELL 1.54180   50.00000   50.00000   50.00000   90.00000   90.00000   90.00000
LATT -1
SFAC C  
C      1  0.5241160000000  0.4998960000000  0.5446200000000 1.0
C      1  0.5598300000000  0.4984430000000  0.4944600000000 1.0
C      1  0.5617200000000  0.4704990000000  0.4453890000000 1.0
C      1  0.4702870000000  0.4871430000000  0.4416500000000 1.0
C      1  0.5005520000000  0.5996460000000  0.5047150000000 1.0
C      1  0.6044150000000  0.5229210000000  0.5436000000000 1.0
C      1  0.5295840000000  0.5507290000000  0.4672190000000 1.0
C      1  0.5044810000000  0.3982090000000  0.5404860000000 1.0
C      1  0.5164810000000  0.4708980000000  0.4006420000000 1.0
C      1  0.5708410000000  0.5865240000000  0.4967970000000 1.0
C      1  0.4373410000000  0.4662520000000  0.4336540000000 1.0
C      1  0.4742550000000  0.5389160000000  0.3971740000000 1.0
C      1  0.5210700000000  0.5814120000000  0.5487920000000 1.0
C      1  0.4654090000000  0.5066140000000  0.3901660000000 1.0
C      1  0.4976220000000  0.4861850000000  0.4209990000000 1.0
C      1  0.4495560000000  0.4949940000000  0.4179580000000 1.0
C      1  0.5160500000000  0.4460300000000  0.6062930000000 1.0
C      1  0.4430590000000  0.4298760000000  0.5841380000000 1.0
C      1  0.5710390000000  0.5258400000000  0.4788080000000 1.0
C      1  0.5090500000000  0.4994170000000  0.5942670000000 1.0
C      1  0.4901320000000  0.4340100000000  0.5310520000000 1.0
C      1  0.4920790000000  0.5275280000000  0.4445920000000 1.0
C      1  0.5294980000000  0.4880630000000  0.4843940000000 1.0
C      1  0.4586560000000  0.4832220000000  0.5319300000000 1.0
C      1  0.5015350000000  0.5638310000000  0.4582640000000 1.0
C      1  0.5958850000000  0.4877500000000  0.4569630000000 1.0
C      1  0.4217770000000  0.5048180000000  0.4607990000000 1.0
C      1  0.5345680000000  0.3951600000000  0.4638420000000 1.0
C      1  0.4179490000000  0.5023030000000  0.5011700000000 1.0
C      1  0.4050630000000  0.4647010000000  0.5027240000000 1.0
C      1  0.5408640000000  0.4063590000000  0.4908300000000 1.0
C      1  0.6013100000000  0.4486410000000  0.5110640000000 1.0
C      1  0.4884630000000  0.4574700000000  0.5664490000000 1.0
C      1  0.4672710000000  0.4091330000000  0.5282080000000 1.0
C      1  0.5246010000000  0.5770680000000  0.4968810000000 1.0
C      1  0.5261560000000  0.5272570000000  0.4900090000000 1.0
C      1  0.3885670000000  0.4915030000000  0.4897250000000 1.0
C      1  0.4489820000000  0.5995870000000  0.4489950000000 1.0
C      1  0.5043740000000  0.4049580000000  0.4516640000000 1.0
C      1  0.5952650000000  0.4878170000000  0.5123660000000 1.0
C      1  0.5299160000000  0.5250320000000  0.4100350000000 1.0
C      1  0.4979750000000  0.5210460000000  0.5500910000000 1.0
C      1  0.4463790000000  0.5241120000000  0.5185930000000 1.0
C      1  0.5525870000000  0.5364870000000  0.4264340000000 1.0
C      1  0.4360810000000  0.4517940000000  0.5674250000000 1.0
C      1  0.4715290000000  0.5368360000000  0.5771620000000 1.0
C      1  0.5326510000000  0.5630970000000  0.4216210000000 1.0
C      1  0.5548130000000  0.5460240000000  0.5186100000000 1.0
C      1  0.3855890000000  0.5297310000000  0.5127250000000 1.0
C      1  0.4489840000000  0.5538250000000  0.4677910000000 1.0
C      1  0.5635060000000  0.4413330000000  0.5214960000000 1.0
C      1  0.4419090000000  0.4090120000000  0.5122310000000 1.0
C      1  0.4859830000000  0.4506590000000  0.5985920000000 1.0
C      1  0.4685690000000  0.4763350000000  0.4931270000000 1.0
C      1  0.5895150000000  0.4668330000000  0.5375050000000 1.0
C      1  0.4479690000000  0.5537030000000  0.5294030000000 1.0
C      1  0.4666850000000  0.5995170000000  0.4983610000000 1.0
C      1  0.5962070000000  0.4418480000000  0.4876010000000 1.0
C      1  0.4349840000000  0.4413920000000  0.4570250000000 1.0
C      1  0.5344900000000  0.4169060000000  0.4395460000000 1.0
C      1  0.4704850000000  0.4259980000000  0.5843950000000 1.0
C      1  0.4978290000000  0.5451770000000  0.5261390000000 1.0
C      1  0.4711120000000  0.5552850000000  0.5543850000000 1.0
C      1  0.4481390000000  0.5290760000000  0.4176340000000 1.0
C      1  0.5862320000000  0.4698450000000  0.5872070000000 1.0
C      1  0.4479180000000  0.5250270000000  0.5966340000000 1.0
C      1  0.5916460000000  0.4939260000000  0.4332270000000 1.0
C      1  0.5036010000000  0.4823600000000  0.5583430000000 1.0
C      1  0.4953880000000  0.5692830000000  0.5578600000000 1.0
C      1  0.5148070000000  0.5983720000000  0.4732130000000 1.0
C      1  0.4394070000000  0.4624000000000  0.5037770000000 1.0
C      1  0.5458150000000  0.5026730000000  0.4582330000000 1.0
C      1  0.4917250000000  0.4016030000000  0.5078220000000 1.0
C      1  0.4814350000000  0.4155840000000  0.5586140000000 1.0
C      1  0.4632750000000  0.4981850000000  0.5824700000000 1.0
C      1  0.3947860000000  0.4845170000000  0.5283590000000 1.0
C      1  0.4398210000000  0.5138920000000  0.5486160000000 1.0
C      1  0.4854280000000  0.5146270000000  0.4169380000000 1.0
C      1  0.4605710000000  0.4317390000000  0.4379700000000 1.0
C      1  0.5213610000000  0.5025490000000  0.5133680000000 1.0
C      1  0.6017570000000  0.5150430000000  0.5164720000000 1.0
C      1  0.4909970000000  0.4265480000000  0.4287290000000 1.0
C      1  0.5195700000000  0.4279500000000  0.5187100000000 1.0
C      1  0.5303510000000  0.4577580000000  0.5851230000000 1.0
C      1  0.4655010000000  0.5093400000000  0.5008210000000 1.0
C      1  0.5606830000000  0.5850660000000  0.5449040000000 1.0
C      1  0.5356710000000  0.4978440000000  0.4045700000000 1.0
C      1  0.5835070000000  0.4794730000000  0.4836440000000 1.0
C      1  0.5656270000000  0.6137200000000  0.5054950000000 1.0
C      1  0.5656150000000  0.4214630000000  0.5032380000000 1.0
C      1  0.4383380000000  0.5700760000000  0.5081860000000 1.0
C      1  0.5502260000000  0.4990080000000  0.5643590000000 1.0
C      1  0.4715260000000  0.5054780000000  0.5524640000000 1.0
C      1  0.4272930000000  0.4326140000000  0.5097610000000 1.0
C      1  0.4579880000000  0.4178890000000  0.4670770000000 1.0
C      1  0.5729250000000  0.4365090000000  0.5484790000000 1.0
C      1  0.5253890000000  0.5512450000000  0.5112590000000 1.0
C      1  0.4150910000000  0.4421260000000  0.4800240000000 1.0
C      1  0.5051890000000  0.5483590000000  0.4079610000000 1.0
C      1  0.5566050000000  0.5704960000000  0.4455590000000 1.0
C      1  0.5594110000000  0.5245710000000  0.5353200000000 1.0
C      1  0.4207130000000  0.5401720000000  0.4109890000000 1.0
C      1  0.4637770000000  0.5435130000000  0.4408470000000 1.0
C      1  0.4938080000000  0.4500100000000  0.4046570000000 1.0
C      1  0.4609630000000  0.4571450000000  0.5507660000000 1.0
C      1  0.5465560000000  0.4600470000000  0.4103170000000 1.0
C      1  0.5701300000000  0.5699540000000  0.5209150000000 1.0
C      1  0.4861410000000  0.5640020000000  0.4294720000000 1.0
C      1  0.5230920000000  0.6010160000000  0.5293080000000 1.0
C      1  0.5508490000000  0.6113430000000  0.5304560000000 1.0
C      1  0.4320720000000  0.5606490000000  0.5588010000000 1.0
C      1  0.5593840000000  0.5339960000000  0.5656890000000 1.0
C      1  0.3947250000000  0.5186090000000  0.4730440000000 1.0
C      1  0.4950450000000  0.5218080000000  0.4773730000000 1.0
C      1  0.4754180000000  0.5936030000000  0.4371870000000 1.0
C      1  0.5591380000000  0.4988090000000  0.5253730000000 1.0
C      1  0.4450510000000  0.3976950000000  0.4871490000000 1.0
C      1  0.5798110000000  0.4833300000000  0.5632720000000 1.0
C      1  0.5654010000000  0.5384350000000  0.4543570000000 1.0
C      1  0.5191270000000  0.4456350000000  0.5577340000000 1.0
C      1  0.4463960000000  0.5865840000000  0.5518970000000 1.0
C      1  0.4877530000000  0.4159570000000  0.4789680000000 1.0
C      1  0.5323490000000  0.4859950000000  0.5858970000000 1.0
C      1  0.4299180000000  0.4985500000000  0.5840980000000 1.0
C      1  0.5506460000000  0.5756530000000  0.4769790000000 1.0
C      1  0.4166150000000  0.4875930000000  0.4387880000000 1.0
C      1  0.5320260000000  0.4391910000000  0.4909450000000 1.0
C      1  0.4228240000000  0.5382230000000  0.4677730000000 1.0
C      1  0.5938760000000  0.5328780000000  0.4954190000000 1.0
C      1  0.5193020000000  0.4609160000000  0.5284680000000 1.0
C      1  0.4935210000000  0.5181720000000  0.5105360000000 1.0
C      1  0.4273070000000  0.4906190000000  0.5292950000000 1.0
C      1  0.5260970000000  0.5849130000000  0.4468670000000 1.0
C      1  0.5235850000000  0.3944370000000  0.5135170000000 1.0
C      1  0.4685610000000  0.4589590000000  0.4222700000000 1.0
C      1  0.4183860000000  0.5338220000000  0.5069900000000 1.0
C      1  0.5650880000000  0.4880370000000  0.4158380000000 1.0
C      1  0.5560040000000  0.4382060000000  0.4348920000000 1.0
C      1  0.4201640000000  0.4731620000000  0.5748950000000 1.0
C      1  0.4815450000000  0.5677750000000  0.5133570000000 1.0
C      1  0.4849290000000  0.4835870000000  0.5965240000000 1.0
C      1  0.3965690000000  0.5493170000000  0.4868610000000 1.0
C      1  0.4455460000000  0.5871620000000  0.4742320000000 1.0
C      1  0.5284950000000  0.4167700000000  0.5558610000000 1.0
C      1  0.3788280000000  0.5067530000000  0.5253790000000 1.0
C      1  0.5865550000000  0.5151160000000  0.5629170000000 1.0
C      1  0.5240580000000  0.5225290000000  0.4504510000000 1.0
C      1  0.4693300000000  0.5041100000000  0.4669130000000 1.0
C      1  0.5473570000000  0.4687210000000  0.5180000000000 1.0
C      1  0.5284830000000  0.4681340000000  0.4386210000000 1.0
C      1  0.4641070000000  0.5902400000000  0.5309970000000 1.0
C      1  0.5064580000000  0.4434240000000  0.4743970000000 1.0
C      1  0.4835910000000  0.5977070000000  0.4687470000000 1.0
C      1  0.5564500000000  0.4589900000000  0.4865670000000 1.0
C      1  0.4990080000000  0.4739130000000  0.4781680000000 1.0
C      1  0.5453960000000  0.5631490000000  0.5651930000000 1.0
C      1  0.5087360000000  0.4916930000000  0.4507280000000 1.0
C      1  0.5156600000000  0.5548700000000  0.5771430000000 1.0
C      1  0.5029140000000  0.5267920000000  0.5824410000000 1.0
C      1  0.5754240000000  0.4454140000000  0.4621770000000 1.0
C      1  0.4782490000000  0.5656260000000  0.4809740000000 1.0
C      1  0.4854760000000  0.4649100000000  0.5273200000000 1.0
C      1  0.5561400000000  0.4164630000000  0.5605050000000 1.0
C      1  0.4299590000000  0.5329230000000  0.5702320000000 1.0
C      1  0.4381400000000  0.4877430000000  0.4815590000000 1.0
C      1  0.5148660000000  0.4426890000000  0.4452160000000 1.0
END
