TITL C-2778425-5191-262 -9.48686696996906e-05 125000 -872.863013117826 0 0 150 (C1) n - 1
REM
REM in /home/nfs/bkarasulu/CARBON/AIRSS/Generating-Clusters/REBO/Only-C1/SD-CG/HFTN-CG
REM
REM
REM
REM
REM
REM ./C.cell (11c1c37f851c82e70ff6c80c92926a4b)
REM
REM compiler GCC version 9.2.1 20190827 (Red Hat 9.2.1-1)
REM options -cpp -mtune=generic -march=x86-64 -g -O0 -fpre-include=/usr/include/finclude/math-vector-fortran.h
REM seed 1281748444 -1720686348 2117318894 -113891362 -417541296 1329615512 -294985935 -244719273 440343208 69659804 284003365 56433405 1658843138 1736490911 -1382986828 1968291152 -2022667833 921784809 -1476398278 -830798762 405484099 48330304 -2135877993 -1918534502 -634285956 -515873867 1075750029 2079120578 -80086228 -1444029707 -1449374121 -1035901801 1337792965
REM
CELL 1.54180   50.00000   50.00000   50.00000   90.00000   90.00000   90.00000
LATT -1
SFAC C  
C      1  0.4922880000000  0.4628490000000  0.4758580000000 1.0
C      1  0.5321500000000  0.5119800000000  0.5153150000000 1.0
C      1  0.5269510000000  0.4766190000000  0.6037610000000 1.0
C      1  0.5143990000000  0.5412410000000  0.4849940000000 1.0
C      1  0.4670930000000  0.4453950000000  0.4215630000000 1.0
C      1  0.5613860000000  0.5080680000000  0.5731270000000 1.0
C      1  0.5553160000000  0.5125270000000  0.4721480000000 1.0
C      1  0.5855620000000  0.5131000000000  0.4639290000000 1.0
C      1  0.5949950000000  0.5427310000000  0.5221430000000 1.0
C      1  0.5245160000000  0.6049780000000  0.4957340000000 1.0
C      1  0.4619810000000  0.5340980000000  0.4471530000000 1.0
C      1  0.5065980000000  0.5937240000000  0.4470690000000 1.0
C      1  0.4942640000000  0.4835270000000  0.3973300000000 1.0
C      1  0.5851510000000  0.5023400000000  0.5356990000000 1.0
C      1  0.4665640000000  0.4074790000000  0.4864680000000 1.0
C      1  0.4971140000000  0.6047870000000  0.5074110000000 1.0
C      1  0.4639540000000  0.5767310000000  0.4288720000000 1.0
C      1  0.5492500000000  0.4715010000000  0.5430150000000 1.0
C      1  0.4618780000000  0.5200540000000  0.4769570000000 1.0
C      1  0.5736510000000  0.5778330000000  0.5491230000000 1.0
C      1  0.5214180000000  0.4465330000000  0.5925630000000 1.0
C      1  0.5114980000000  0.5119080000000  0.5942120000000 1.0
C      1  0.4681020000000  0.4997290000000  0.5787620000000 1.0
C      1  0.4169630000000  0.4450270000000  0.5028620000000 1.0
C      1  0.4265100000000  0.4900580000000  0.4324900000000 1.0
C      1  0.4570700000000  0.4702100000000  0.4964910000000 1.0
C      1  0.4132530000000  0.4717280000000  0.5534980000000 1.0
C      1  0.5877330000000  0.5528250000000  0.5507740000000 1.0
C      1  0.5484610000000  0.5763890000000  0.4642710000000 1.0
C      1  0.4521200000000  0.5468180000000  0.5633120000000 1.0
C      1  0.5786130000000  0.5405000000000  0.4556910000000 1.0
C      1  0.5584440000000  0.4314760000000  0.5037480000000 1.0
C      1  0.4875000000000  0.5605880000000  0.4127070000000 1.0
C      1  0.5564930000000  0.4886030000000  0.4253840000000 1.0
C      1  0.5023140000000  0.4546220000000  0.5586030000000 1.0
C      1  0.4292580000000  0.4648470000000  0.4512890000000 1.0
C      1  0.4778620000000  0.4967710000000  0.4909320000000 1.0
C      1  0.5098250000000  0.5964440000000  0.5442260000000 1.0
C      1  0.5589200000000  0.4177390000000  0.4725940000000 1.0
C      1  0.5383630000000  0.5594610000000  0.4387600000000 1.0
C      1  0.4447770000000  0.4625910000000  0.4232380000000 1.0
C      1  0.4994860000000  0.4804180000000  0.5371380000000 1.0
C      1  0.3919110000000  0.4958540000000  0.5009760000000 1.0
C      1  0.5357690000000  0.4672590000000  0.4871480000000 1.0
C      1  0.4955430000000  0.5182500000000  0.5403630000000 1.0
C      1  0.5701740000000  0.5559640000000  0.5054480000000 1.0
C      1  0.4861110000000  0.3939520000000  0.5088520000000 1.0
C      1  0.4114500000000  0.5172870000000  0.4455360000000 1.0
C      1  0.5413240000000  0.5147010000000  0.5941020000000 1.0
C      1  0.5663030000000  0.4614250000000  0.4522570000000 1.0
C      1  0.4178660000000  0.4947130000000  0.4799220000000 1.0
C      1  0.5425860000000  0.4280260000000  0.4437190000000 1.0
C      1  0.4900080000000  0.4595420000000  0.5961390000000 1.0
C      1  0.5351060000000  0.4422040000000  0.4732930000000 1.0
C      1  0.6153280000000  0.4999100000000  0.4971130000000 1.0
C      1  0.5703560000000  0.4815090000000  0.5231480000000 1.0
C      1  0.4851040000000  0.5823050000000  0.4926890000000 1.0
C      1  0.4309150000000  0.5394580000000  0.4607350000000 1.0
C      1  0.5471110000000  0.4107610000000  0.5546310000000 1.0
C      1  0.5240550000000  0.5193220000000  0.4121060000000 1.0
C      1  0.4328990000000  0.5212770000000  0.4875790000000 1.0
C      1  0.5531870000000  0.4930590000000  0.4999140000000 1.0
C      1  0.4773930000000  0.5952770000000  0.4473110000000 1.0
C      1  0.5349370000000  0.4744640000000  0.4478450000000 1.0
C      1  0.5216890000000  0.4104300000000  0.4611830000000 1.0
C      1  0.5670770000000  0.4168550000000  0.5410570000000 1.0
C      1  0.4733560000000  0.4609030000000  0.5318440000000 1.0
C      1  0.5695690000000  0.5603460000000  0.4754660000000 1.0
C      1  0.4043810000000  0.5286990000000  0.5389290000000 1.0
C      1  0.5095870000000  0.5092740000000  0.4898440000000 1.0
C      1  0.4852810000000  0.5395150000000  0.5594120000000 1.0
C      1  0.5835440000000  0.4674770000000  0.4742260000000 1.0
C      1  0.5518190000000  0.5263070000000  0.6168000000000 1.0
C      1  0.5991950000000  0.4915850000000  0.4751190000000 1.0
C      1  0.5380670000000  0.5379820000000  0.4652820000000 1.0
C      1  0.4359130000000  0.4312440000000  0.5260570000000 1.0
C      1  0.4749730000000  0.4434380000000  0.5675480000000 1.0
C      1  0.4939160000000  0.4581080000000  0.5045080000000 1.0
C      1  0.5240140000000  0.4299790000000  0.5640550000000 1.0
C      1  0.5144070000000  0.5733340000000  0.4276130000000 1.0
C      1  0.5330670000000  0.4036810000000  0.4904980000000 1.0
C      1  0.4756810000000  0.3994230000000  0.4549540000000 1.0
C      1  0.4388940000000  0.5763560000000  0.5212190000000 1.0
C      1  0.3976510000000  0.4955060000000  0.5345180000000 1.0
C      1  0.4622990000000  0.4879110000000  0.5496260000000 1.0
C      1  0.4864640000000  0.5535080000000  0.5107020000000 1.0
C      1  0.5268520000000  0.4964000000000  0.5411890000000 1.0
C      1  0.4396910000000  0.5666500000000  0.4420580000000 1.0
C      1  0.4822940000000  0.6060050000000  0.5339010000000 1.0
C      1  0.5565410000000  0.4567190000000  0.4199830000000 1.0
C      1  0.5014480000000  0.3928610000000  0.4507590000000 1.0
C      1  0.4864050000000  0.4961240000000  0.4355580000000 1.0
C      1  0.5272500000000  0.4946110000000  0.4700950000000 1.0
C      1  0.4413960000000  0.4827190000000  0.5228940000000 1.0
C      1  0.4124500000000  0.4464740000000  0.5423920000000 1.0
C      1  0.4630410000000  0.5291050000000  0.5871470000000 1.0
C      1  0.4752980000000  0.4037400000000  0.5380020000000 1.0
C      1  0.5865300000000  0.4630030000000  0.5546230000000 1.0
C      1  0.5510560000000  0.5156940000000  0.4200390000000 1.0
C      1  0.4506690000000  0.4279160000000  0.4658440000000 1.0
C      1  0.4796800000000  0.5203700000000  0.5131840000000 1.0
C      1  0.5790360000000  0.4434110000000  0.5314830000000 1.0
C      1  0.4634690000000  0.4299000000000  0.5424270000000 1.0
C      1  0.4415050000000  0.4533190000000  0.4724280000000 1.0
C      1  0.5469890000000  0.5383990000000  0.5233080000000 1.0
C      1  0.5291920000000  0.5852830000000  0.5211560000000 1.0
C      1  0.5146730000000  0.3827200000000  0.5011760000000 1.0
C      1  0.4961770000000  0.4580960000000  0.4176280000000 1.0
C      1  0.5611410000000  0.5390420000000  0.4327140000000 1.0
C      1  0.4561100000000  0.5179320000000  0.5347910000000 1.0
C      1  0.4923540000000  0.4265030000000  0.5100660000000 1.0
C      1  0.5216570000000  0.4667280000000  0.5148870000000 1.0
C      1  0.4277170000000  0.5475760000000  0.5529620000000 1.0
C      1  0.4178010000000  0.4732070000000  0.5036110000000 1.0
C      1  0.4889800000000  0.5459830000000  0.4416200000000 1.0
C      1  0.4961110000000  0.5359640000000  0.5897960000000 1.0
C      1  0.5273980000000  0.4445340000000  0.4191650000000 1.0
C      1  0.5341270000000  0.4441250000000  0.5368230000000 1.0
C      1  0.4851900000000  0.5368410000000  0.3915370000000 1.0
C      1  0.5275850000000  0.5959820000000  0.4687960000000 1.0
C      1  0.5771410000000  0.4578450000000  0.5016010000000 1.0
C      1  0.3949730000000  0.5193700000000  0.4756890000000 1.0
C      1  0.4594680000000  0.4990130000000  0.4285300000000 1.0
C      1  0.4552700000000  0.5497580000000  0.5237240000000 1.0
C      1  0.5484260000000  0.4594580000000  0.5752830000000 1.0
C      1  0.4652610000000  0.5932450000000  0.4728170000000 1.0
C      1  0.5589470000000  0.5793690000000  0.5256710000000 1.0
C      1  0.6111250000000  0.5221100000000  0.5126420000000 1.0
C      1  0.4603500000000  0.4367320000000  0.5032950000000 1.0
C      1  0.4211240000000  0.5726520000000  0.4977500000000 1.0
C      1  0.4909970000000  0.4902880000000  0.5931670000000 1.0
C      1  0.4998150000000  0.5117220000000  0.3951670000000 1.0
C      1  0.5729520000000  0.4813990000000  0.5732420000000 1.0
C      1  0.4567920000000  0.4622220000000  0.5857180000000 1.0
C      1  0.5030780000000  0.4708450000000  0.4473010000000 1.0
C      1  0.4338020000000  0.4730470000000  0.5746030000000 1.0
C      1  0.5215780000000  0.4796190000000  0.5703090000000 1.0
C      1  0.4640920000000  0.4228830000000  0.4384560000000 1.0
C      1  0.4282180000000  0.5064150000000  0.5409520000000 1.0
C      1  0.5255110000000  0.4271400000000  0.5113300000000 1.0
C      1  0.4384280000000  0.5255250000000  0.4249010000000 1.0
C      1  0.5029830000000  0.5194850000000  0.4342270000000 1.0
C      1  0.5203500000000  0.5556490000000  0.5139090000000 1.0
C      1  0.4546040000000  0.5980170000000  0.5321890000000 1.0
C      1  0.4925480000000  0.5566630000000  0.4713350000000 1.0
C      1  0.5682130000000  0.5273280000000  0.5474990000000 1.0
C      1  0.4612990000000  0.5530400000000  0.4819660000000 1.0
C      1  0.4265610000000  0.5368000000000  0.5144740000000 1.0
C      1  0.4390630000000  0.5762360000000  0.4734930000000 1.0
C      1  0.4028900000000  0.5469570000000  0.4922130000000 1.0
END
