TITL C-2778434-4341-635 -0.0026343385470005 125000 -1097.37921659716 0 0 188 (C1) n - 1
REM
REM in /home/nfs/bkarasulu/CARBON/AIRSS/Generating-Clusters/REBO/Only-C1/SD-CG/HFTN-CG
REM
REM
REM
REM
REM
REM ./C.cell (11c1c37f851c82e70ff6c80c92926a4b)
REM
REM compiler GCC version 9.2.1 20190827 (Red Hat 9.2.1-1)
REM options -cpp -mtune=generic -march=x86-64 -g -O0 -fpre-include=/usr/include/finclude/math-vector-fortran.h
REM seed 977976376 304123971 -670826873 -1278454524 -461077103 465611960 325688633 -1375358224 -1919224228 -1842397311 -318106567 -353496655 1418222675 611081259 -1322666754 1074933160 -2022139516 -1025001514 66435479 1040647831 -1651333988 586545363 1021831923 -90814215 1560314271 1727888982 1263143278 -891398559 98715368 305682364 1880248369 1523556371 -897552260
REM
CELL 1.54180   50.00000   50.00000   50.00000   90.00000   90.00000   90.00000
LATT -1
SFAC C  
C      1  0.4696160000000  0.5581160000000  0.4257200000000 1.0
C      1  0.5089000000000  0.5108380000000  0.5703930000000 1.0
C      1  0.4349090000000  0.4988980000000  0.4161190000000 1.0
C      1  0.5105560000000  0.5363530000000  0.5107180000000 1.0
C      1  0.4730070000000  0.5101050000000  0.4966170000000 1.0
C      1  0.5427540000000  0.5710760000000  0.4918280000000 1.0
C      1  0.4892460000000  0.5567860000000  0.4742220000000 1.0
C      1  0.5771700000000  0.4934350000000  0.4242390000000 1.0
C      1  0.5455270000000  0.5014310000000  0.4821500000000 1.0
C      1  0.4423620000000  0.5619640000000  0.4546950000000 1.0
C      1  0.4246230000000  0.5554350000000  0.4332950000000 1.0
C      1  0.5407250000000  0.5860360000000  0.5443130000000 1.0
C      1  0.5330290000000  0.5272050000000  0.5594370000000 1.0
C      1  0.4421380000000  0.5469770000000  0.4090160000000 1.0
C      1  0.4643990000000  0.4675350000000  0.5324640000000 1.0
C      1  0.5181430000000  0.4128610000000  0.4429850000000 1.0
C      1  0.5198560000000  0.4247750000000  0.4107670000000 1.0
C      1  0.4346500000000  0.5365630000000  0.5372530000000 1.0
C      1  0.3901060000000  0.4879730000000  0.5295020000000 1.0
C      1  0.5278740000000  0.4616380000000  0.3943980000000 1.0
C      1  0.5079300000000  0.6019490000000  0.5721200000000 1.0
C      1  0.5306260000000  0.5019910000000  0.5118350000000 1.0
C      1  0.4747540000000  0.4645170000000  0.5976630000000 1.0
C      1  0.5494600000000  0.4413850000000  0.4095460000000 1.0
C      1  0.5484140000000  0.4760350000000  0.5858350000000 1.0
C      1  0.4761580000000  0.3901300000000  0.5039460000000 1.0
C      1  0.5260360000000  0.4483570000000  0.5138480000000 1.0
C      1  0.4779090000000  0.4785060000000  0.4836830000000 1.0
C      1  0.5264910000000  0.4859650000000  0.4422850000000 1.0
C      1  0.4170940000000  0.4343740000000  0.5222100000000 1.0
C      1  0.3969670000000  0.4412460000000  0.4698800000000 1.0
C      1  0.4480370000000  0.4673580000000  0.5873210000000 1.0
C      1  0.4278450000000  0.5700110000000  0.4981300000000 1.0
C      1  0.4915380000000  0.5716750000000  0.4049070000000 1.0
C      1  0.4728620000000  0.5552260000000  0.5807390000000 1.0
C      1  0.5880320000000  0.5520400000000  0.5695190000000 1.0
C      1  0.5323610000000  0.6023780000000  0.4975150000000 1.0
C      1  0.5653330000000  0.4698460000000  0.4187090000000 1.0
C      1  0.5165380000000  0.5354460000000  0.6007790000000 1.0
C      1  0.4494400000000  0.5554040000000  0.5154760000000 1.0
C      1  0.4283270000000  0.5124440000000  0.5556070000000 1.0
C      1  0.4960490000000  0.5826350000000  0.5152780000000 1.0
C      1  0.5266570000000  0.5875480000000  0.4367530000000 1.0
C      1  0.5480890000000  0.5332440000000  0.4164490000000 1.0
C      1  0.5031110000000  0.4561410000000  0.4550300000000 1.0
C      1  0.4811650000000  0.5804080000000  0.4572380000000 1.0
C      1  0.4508310000000  0.4056560000000  0.5432300000000 1.0
C      1  0.5130460000000  0.4041600000000  0.4709350000000 1.0
C      1  0.4472770000000  0.4872370000000  0.5471270000000 1.0
C      1  0.4745960000000  0.5988880000000  0.5005170000000 1.0
C      1  0.5106400000000  0.4780390000000  0.4873540000000 1.0
C      1  0.5148200000000  0.3820010000000  0.5392710000000 1.0
C      1  0.5464650000000  0.4988390000000  0.5481640000000 1.0
C      1  0.5238280000000  0.4727580000000  0.5280220000000 1.0
C      1  0.4826520000000  0.4019870000000  0.4773610000000 1.0
C      1  0.5352160000000  0.3927150000000  0.4942820000000 1.0
C      1  0.4879000000000  0.5193840000000  0.3924660000000 1.0
C      1  0.5188440000000  0.5323900000000  0.3989020000000 1.0
C      1  0.5243370000000  0.4019490000000  0.5551410000000 1.0
C      1  0.5841040000000  0.4490760000000  0.5410990000000 1.0
C      1  0.5040990000000  0.6143300000000  0.5445560000000 1.0
C      1  0.5603540000000  0.5244030000000  0.4985080000000 1.0
C      1  0.5338450000000  0.4709370000000  0.5582050000000 1.0
C      1  0.4724560000000  0.5466130000000  0.3932950000000 1.0
C      1  0.5375180000000  0.6006250000000  0.4662310000000 1.0
C      1  0.6003120000000  0.4739290000000  0.5445400000000 1.0
C      1  0.5029520000000  0.4251800000000  0.5600750000000 1.0
C      1  0.4725300000000  0.5408350000000  0.4992250000000 1.0
C      1  0.5824660000000  0.5208170000000  0.5602940000000 1.0
C      1  0.5271310000000  0.6052130000000  0.5261510000000 1.0
C      1  0.5417170000000  0.5199280000000  0.4563770000000 1.0
C      1  0.5502710000000  0.5720280000000  0.4527200000000 1.0
C      1  0.4646760000000  0.5853450000000  0.5561410000000 1.0
C      1  0.5185670000000  0.5588170000000  0.4203930000000 1.0
C      1  0.3974260000000  0.5067220000000  0.5503680000000 1.0
C      1  0.4951450000000  0.5877840000000  0.4335270000000 1.0
C      1  0.5301870000000  0.4580020000000  0.4753990000000 1.0
C      1  0.4107510000000  0.5065060000000  0.4825920000000 1.0
C      1  0.4858360000000  0.5855900000000  0.5803100000000 1.0
C      1  0.4722220000000  0.4669830000000  0.4239630000000 1.0
C      1  0.4367050000000  0.5810500000000  0.4742050000000 1.0
C      1  0.4546690000000  0.4045650000000  0.5141530000000 1.0
C      1  0.5566430000000  0.5502940000000  0.5674650000000 1.0
C      1  0.4026440000000  0.5346530000000  0.4721350000000 1.0
C      1  0.4648270000000  0.4549210000000  0.4654420000000 1.0
C      1  0.4765460000000  0.6101120000000  0.5374350000000 1.0
C      1  0.4424370000000  0.4322610000000  0.4990290000000 1.0
C      1  0.5537340000000  0.4380160000000  0.4869620000000 1.0
C      1  0.4238720000000  0.5596020000000  0.5571120000000 1.0
C      1  0.5127660000000  0.4950790000000  0.5999650000000 1.0
C      1  0.4941080000000  0.4443250000000  0.4001020000000 1.0
C      1  0.5357150000000  0.5484990000000  0.4692860000000 1.0
C      1  0.5386080000000  0.4596210000000  0.6074640000000 1.0
C      1  0.4982510000000  0.4981920000000  0.5115430000000 1.0
C      1  0.5658780000000  0.4442300000000  0.5675980000000 1.0
C      1  0.4866080000000  0.4852000000000  0.4449010000000 1.0
C      1  0.3866830000000  0.4981380000000  0.5033250000000 1.0
C      1  0.5138560000000  0.5555290000000  0.5541450000000 1.0
C      1  0.4031240000000  0.4485640000000  0.4960470000000 1.0
C      1  0.4563890000000  0.5378260000000  0.4627220000000 1.0
C      1  0.4711180000000  0.6013460000000  0.4731720000000 1.0
C      1  0.4867870000000  0.5340140000000  0.5994980000000 1.0
C      1  0.5178180000000  0.4458200000000  0.6050220000000 1.0
C      1  0.5115700000000  0.4613200000000  0.4243160000000 1.0
C      1  0.5682240000000  0.4940620000000  0.5304440000000 1.0
C      1  0.4447400000000  0.4938960000000  0.4990510000000 1.0
C      1  0.5667760000000  0.5471260000000  0.4414910000000 1.0
C      1  0.6129990000000  0.4872880000000  0.5241370000000 1.0
C      1  0.5656610000000  0.4109850000000  0.5267470000000 1.0
C      1  0.5386670000000  0.5129030000000  0.5972100000000 1.0
C      1  0.4408260000000  0.4447380000000  0.5705320000000 1.0
C      1  0.5905620000000  0.5414660000000  0.4651840000000 1.0
C      1  0.4072360000000  0.5117720000000  0.4250790000000 1.0
C      1  0.4696740000000  0.5112390000000  0.6033110000000 1.0
C      1  0.5501430000000  0.5576320000000  0.5374810000000 1.0
C      1  0.5474010000000  0.4257380000000  0.4392780000000 1.0
C      1  0.4029230000000  0.5529130000000  0.4959380000000 1.0
C      1  0.4410950000000  0.5619100000000  0.5781850000000 1.0
C      1  0.5674900000000  0.5032010000000  0.5817320000000 1.0
C      1  0.5075490000000  0.5019220000000  0.4658880000000 1.0
C      1  0.4329240000000  0.4705370000000  0.4300340000000 1.0
C      1  0.5403030000000  0.5333380000000  0.5209260000000 1.0
C      1  0.5538180000000  0.4152300000000  0.5542420000000 1.0
C      1  0.4919450000000  0.4787020000000  0.5354680000000 1.0
C      1  0.4193430000000  0.4736150000000  0.5537700000000 1.0
C      1  0.4972810000000  0.4485550000000  0.5813440000000 1.0
C      1  0.5317670000000  0.5869850000000  0.5711180000000 1.0
C      1  0.4477620000000  0.4465250000000  0.4148340000000 1.0
C      1  0.6155430000000  0.5034640000000  0.5013170000000 1.0
C      1  0.4557290000000  0.4618900000000  0.5036580000000 1.0
C      1  0.4957250000000  0.3783150000000  0.5201910000000 1.0
C      1  0.4432040000000  0.5009760000000  0.5842980000000 1.0
C      1  0.4993630000000  0.5053390000000  0.4205610000000 1.0
C      1  0.4891290000000  0.4356530000000  0.4783460000000 1.0
C      1  0.5323190000000  0.4397590000000  0.5641790000000 1.0
C      1  0.4676220000000  0.4621980000000  0.3915240000000 1.0
C      1  0.5709670000000  0.4395500000000  0.5133730000000 1.0
C      1  0.5290600000000  0.5579280000000  0.5846560000000 1.0
C      1  0.5211870000000  0.4906670000000  0.3989610000000 1.0
C      1  0.4034060000000  0.4617820000000  0.5332710000000 1.0
C      1  0.5145470000000  0.5300660000000  0.4383240000000 1.0
C      1  0.5651700000000  0.4251480000000  0.4634930000000 1.0
C      1  0.5668010000000  0.4799530000000  0.4850320000000 1.0
C      1  0.5913200000000  0.5222690000000  0.4932950000000 1.0
C      1  0.4424890000000  0.5119970000000  0.4708400000000 1.0
C      1  0.4285770000000  0.4229090000000  0.5501720000000 1.0
C      1  0.5915500000000  0.5601450000000  0.5116960000000 1.0
C      1  0.5093280000000  0.5294390000000  0.4778120000000 1.0
C      1  0.5392080000000  0.5050310000000  0.4194710000000 1.0
C      1  0.4858440000000  0.5365400000000  0.5305010000000 1.0
C      1  0.4572050000000  0.5844400000000  0.5242590000000 1.0
C      1  0.4531270000000  0.4899290000000  0.4504730000000 1.0
C      1  0.4830640000000  0.5303070000000  0.5598920000000 1.0
C      1  0.5475890000000  0.4590450000000  0.4453480000000 1.0
C      1  0.4959440000000  0.4794820000000  0.5673170000000 1.0
C      1  0.4815590000000  0.5327610000000  0.4432520000000 1.0
C      1  0.4064540000000  0.5353430000000  0.4424990000000 1.0
C      1  0.4544420000000  0.4176940000000  0.4706010000000 1.0
C      1  0.5968320000000  0.4501220000000  0.4588350000000 1.0
C      1  0.4181040000000  0.4753470000000  0.4945170000000 1.0
C      1  0.5114630000000  0.5645690000000  0.4967310000000 1.0
C      1  0.4861200000000  0.4883150000000  0.6083380000000 1.0
C      1  0.4707530000000  0.5012500000000  0.5646780000000 1.0
C      1  0.5876910000000  0.5180430000000  0.5267100000000 1.0
C      1  0.4596400000000  0.5200660000000  0.4205090000000 1.0
C      1  0.4810610000000  0.4213440000000  0.5390540000000 1.0
C      1  0.5710750000000  0.4725750000000  0.5116850000000 1.0
C      1  0.5640770000000  0.5638670000000  0.5108980000000 1.0
C      1  0.3617120000000  0.4864000000000  0.4109250000000 1.0
C      1  0.4633440000000  0.4320140000000  0.4409940000000 1.0
C      1  0.4623190000000  0.4434000000000  0.5489990000000 1.0
C      1  0.4072680000000  0.5536340000000  0.5279060000000 1.0
C      1  0.5564800000000  0.3900800000000  0.5110570000000 1.0
C      1  0.5988100000000  0.5466430000000  0.5385310000000 1.0
C      1  0.4941110000000  0.5738350000000  0.5423220000000 1.0
C      1  0.4364170000000  0.4682160000000  0.4693240000000 1.0
C      1  0.6381870000000  0.5038530000000  0.4853930000000 1.0
C      1  0.4902460000000  0.4255190000000  0.4283060000000 1.0
C      1  0.6032090000000  0.5594920000000  0.4854970000000 1.0
C      1  0.5254370000000  0.4234890000000  0.4943480000000 1.0
C      1  0.4130970000000  0.4541880000000  0.4514500000000 1.0
C      1  0.5822330000000  0.4739720000000  0.5718810000000 1.0
C      1  0.6013960000000  0.5666460000000  0.5882120000000 1.0
C      1  0.4883870000000  0.4279310000000  0.5083120000000 1.0
C      1  0.5736870000000  0.4642140000000  0.4637160000000 1.0
C      1  0.3838040000000  0.4987120000000  0.4177940000000 1.0
C      1  0.5714870000000  0.5133660000000  0.4414660000000 1.0
C      1  0.4637810000000  0.4954990000000  0.3973650000000 1.0
END
