TITL C-2778432-5617-1437 -0.000334198551842925 125000 -248.427844366071 0 0 45 (C1) n - 1
REM
REM in /home/nfs/bkarasulu/CARBON/AIRSS/Generating-Clusters/REBO/Only-C1/SD-CG/HFTN-CG
REM
REM
REM
REM
REM
REM ./C.cell (11c1c37f851c82e70ff6c80c92926a4b)
REM
REM compiler GCC version 9.2.1 20190827 (Red Hat 9.2.1-1)
REM options -cpp -mtune=generic -march=x86-64 -g -O0 -fpre-include=/usr/include/finclude/math-vector-fortran.h
REM seed 612525712 -1137813111 -1926164324 -750166561 1084836405 1856464438 48528808 2112894948 -2113719544 253844569 427444692 1372908520 1270286752 -1601503514 -1039059797 -1529012116 811473536 281655173 211490729 1529110906 479141924 1510089169 -1241202555 -121913704 -1704934150 -218530641 1540160039 1376289650 -887526700 -374884109 -552676671 -478713646 -1180366185
REM
CELL 1.54180   50.00000   50.00000   50.00000   90.00000   90.00000   90.00000
LATT -1
SFAC C  
C      1  0.6189590000000  0.5661590000000  0.5096550000000 1.0
C      1  0.4325200000000  0.5496300000000  0.5101780000000 1.0
C      1  0.4712310000000  0.5479880000000  0.4522720000000 1.0
C      1  0.4149670000000  0.4718380000000  0.4734090000000 1.0
C      1  0.4964430000000  0.4740080000000  0.5034090000000 1.0
C      1  0.5045540000000  0.4677110000000  0.4331850000000 1.0
C      1  0.5125830000000  0.5156620000000  0.4642620000000 1.0
C      1  0.5507330000000  0.4647040000000  0.4681660000000 1.0
C      1  0.5263170000000  0.4603300000000  0.4538730000000 1.0
C      1  0.4941400000000  0.4957940000000  0.4772030000000 1.0
C      1  0.5461550000000  0.4603210000000  0.5201840000000 1.0
C      1  0.5406090000000  0.5154650000000  0.4723180000000 1.0
C      1  0.5171940000000  0.5652930000000  0.4467790000000 1.0
C      1  0.4774190000000  0.4628830000000  0.4421090000000 1.0
C      1  0.5386860000000  0.4780580000000  0.5397290000000 1.0
C      1  0.5009000000000  0.5428210000000  0.4487760000000 1.0
C      1  0.4412160000000  0.4794970000000  0.5692480000000 1.0
C      1  0.4499320000000  0.5103100000000  0.5298610000000 1.0
C      1  0.4311100000000  0.5290530000000  0.4909730000000 1.0
C      1  0.5044020000000  0.5168550000000  0.5772680000000 1.0
C      1  0.4790860000000  0.4409520000000  0.5173880000000 1.0
C      1  0.4907110000000  0.4642200000000  0.5316660000000 1.0
C      1  0.5518320000000  0.4533470000000  0.4944830000000 1.0
C      1  0.5199950000000  0.5314660000000  0.5946320000000 1.0
C      1  0.5991120000000  0.5490650000000  0.5087970000000 1.0
C      1  0.4462580000000  0.5523370000000  0.4552150000000 1.0
C      1  0.4243210000000  0.4646440000000  0.5812980000000 1.0
C      1  0.4420000000000  0.5036650000000  0.5021250000000 1.0
C      1  0.5779960000000  0.5308790000000  0.5078840000000 1.0
C      1  0.4791480000000  0.4454370000000  0.4875310000000 1.0
C      1  0.5608360000000  0.4914390000000  0.4674140000000 1.0
C      1  0.4662360000000  0.5005650000000  0.4708360000000 1.0
C      1  0.5168840000000  0.4970760000000  0.5577090000000 1.0
C      1  0.4407890000000  0.4802830000000  0.4789580000000 1.0
C      1  0.5630240000000  0.5242340000000  0.5307590000000 1.0
C      1  0.4771680000000  0.5173040000000  0.5745480000000 1.0
C      1  0.5088360000000  0.4919990000000  0.4188240000000 1.0
C      1  0.4636590000000  0.4610000000000  0.4659110000000 1.0
C      1  0.5704290000000  0.5180680000000  0.4838750000000 1.0
C      1  0.4437970000000  0.5389140000000  0.5336580000000 1.0
C      1  0.5029030000000  0.4636740000000  0.4728920000000 1.0
C      1  0.4614050000000  0.4972470000000  0.5548490000000 1.0
C      1  0.5452550000000  0.5083890000000  0.5439000000000 1.0
C      1  0.5086510000000  0.5156590000000  0.4312910000000 1.0
C      1  0.4895980000000  0.4837560000000  0.5507000000000 1.0
END
