TITL C-2778434-4341-1308 0.00155429918865267 125000 -452.951300001806 0 0 78 (C1) n - 1
REM
REM in /home/nfs/bkarasulu/CARBON/AIRSS/Generating-Clusters/REBO/Only-C1/SD-CG/HFTN-CG
REM
REM
REM
REM
REM
REM ./C.cell (11c1c37f851c82e70ff6c80c92926a4b)
REM
REM compiler GCC version 9.2.1 20190827 (Red Hat 9.2.1-1)
REM options -cpp -mtune=generic -march=x86-64 -g -O0 -fpre-include=/usr/include/finclude/math-vector-fortran.h
REM seed 786149604 -1069171815 -1031892082 1417628908 -714368211 2126484009 1150206423 -139321687 1606953079 592046280 -1340666293 987202443 2078648558 -1874336896 2130334061 -137760801 -4801031 474059004 2120960197 -1954860533 1633499323 799370215 -1846454389 2144197836 1486168366 -1384191139 -886858704 -721957813 835620685 422872941 -405146086 1419168967 1808456957
REM
CELL 1.54180   50.00000   50.00000   50.00000   90.00000   90.00000   90.00000
LATT -1
SFAC C  
C      1  0.5293460000000  0.4588330000000  0.4470230000000 1.0
C      1  0.5657670000000  0.5183850000000  0.4851380000000 1.0
C      1  0.5104610000000  0.5427240000000  0.4353790000000 1.0
C      1  0.5521550000000  0.5044370000000  0.5711190000000 1.0
C      1  0.5011820000000  0.4213820000000  0.4550380000000 1.0
C      1  0.4717910000000  0.5792160000000  0.5056850000000 1.0
C      1  0.5276580000000  0.4329210000000  0.4581160000000 1.0
C      1  0.4717920000000  0.5569620000000  0.5297440000000 1.0
C      1  0.5486400000000  0.5152990000000  0.4126890000000 1.0
C      1  0.4713090000000  0.4853890000000  0.5777310000000 1.0
C      1  0.5420440000000  0.4999120000000  0.4809380000000 1.0
C      1  0.5492060000000  0.4564450000000  0.5091410000000 1.0
C      1  0.5218910000000  0.4789130000000  0.4692150000000 1.0
C      1  0.4214940000000  0.5164400000000  0.4840430000000 1.0
C      1  0.4950660000000  0.4715320000000  0.5650970000000 1.0
C      1  0.4855800000000  0.4793280000000  0.4263430000000 1.0
C      1  0.4484560000000  0.4988030000000  0.5565700000000 1.0
C      1  0.5132640000000  0.5681160000000  0.5554650000000 1.0
C      1  0.4761730000000  0.5432880000000  0.5760790000000 1.0
C      1  0.5354310000000  0.4826360000000  0.5065860000000 1.0
C      1  0.4982730000000  0.5591670000000  0.5000590000000 1.0
C      1  0.4862110000000  0.5192530000000  0.4284740000000 1.0
C      1  0.4545190000000  0.5316440000000  0.4493180000000 1.0
C      1  0.4678140000000  0.5183140000000  0.5755240000000 1.0
C      1  0.4360830000000  0.4838020000000  0.4477870000000 1.0
C      1  0.5204460000000  0.5185960000000  0.4655040000000 1.0
C      1  0.4475430000000  0.5700760000000  0.4848330000000 1.0
C      1  0.4299910000000  0.5105270000000  0.4569350000000 1.0
C      1  0.4601670000000  0.4780190000000  0.5132880000000 1.0
C      1  0.4820810000000  0.4328930000000  0.4721390000000 1.0
C      1  0.5141110000000  0.4556370000000  0.5806310000000 1.0
C      1  0.5931410000000  0.4852370000000  0.5082910000000 1.0
C      1  0.4457920000000  0.5395900000000  0.5240030000000 1.0
C      1  0.4918970000000  0.4349820000000  0.5011160000000 1.0
C      1  0.5179190000000  0.4317420000000  0.5101480000000 1.0
C      1  0.4618670000000  0.4733970000000  0.6011590000000 1.0
C      1  0.5307410000000  0.5489550000000  0.5433010000000 1.0
C      1  0.4182680000000  0.5038230000000  0.5109930000000 1.0
C      1  0.4415640000000  0.4761750000000  0.5360810000000 1.0
C      1  0.5715910000000  0.4467070000000  0.4865850000000 1.0
C      1  0.5569530000000  0.5451470000000  0.4781050000000 1.0
C      1  0.4764530000000  0.4924240000000  0.4707580000000 1.0
C      1  0.4649430000000  0.4807840000000  0.4447400000000 1.0
C      1  0.5265640000000  0.4957450000000  0.5282980000000 1.0
C      1  0.5742850000000  0.5271700000000  0.5316390000000 1.0
C      1  0.4810530000000  0.5535790000000  0.4478580000000 1.0
C      1  0.4734710000000  0.5087010000000  0.5070290000000 1.0
C      1  0.5405830000000  0.4324760000000  0.4864180000000 1.0
C      1  0.4609500000000  0.5200620000000  0.4800640000000 1.0
C      1  0.5508040000000  0.5608980000000  0.5015700000000 1.0
C      1  0.4955940000000  0.4026740000000  0.4361760000000 1.0
C      1  0.4222110000000  0.4587040000000  0.5393360000000 1.0
C      1  0.5217260000000  0.4441030000000  0.5356760000000 1.0
C      1  0.5299750000000  0.4396570000000  0.5632380000000 1.0
C      1  0.5352710000000  0.5439230000000  0.4586060000000 1.0
C      1  0.4851330000000  0.5619450000000  0.5568340000000 1.0
C      1  0.4792360000000  0.5680940000000  0.4738050000000 1.0
C      1  0.4952180000000  0.5121600000000  0.4558950000000 1.0
C      1  0.5776340000000  0.4633410000000  0.5232480000000 1.0
C      1  0.4910040000000  0.5317150000000  0.5188250000000 1.0
C      1  0.4627260000000  0.4508590000000  0.4941580000000 1.0
C      1  0.4911080000000  0.4732940000000  0.5125790000000 1.0
C      1  0.5931930000000  0.4634680000000  0.4864560000000 1.0
C      1  0.5136750000000  0.5241390000000  0.5369090000000 1.0
C      1  0.5148380000000  0.4855830000000  0.4334570000000 1.0
C      1  0.4344520000000  0.4473420000000  0.4808720000000 1.0
C      1  0.4233980000000  0.4616910000000  0.4604700000000 1.0
C      1  0.4979850000000  0.4771800000000  0.4856470000000 1.0
C      1  0.5255440000000  0.5134250000000  0.4261980000000 1.0
C      1  0.4390700000000  0.5423180000000  0.4935420000000 1.0
C      1  0.5268110000000  0.5018190000000  0.5590000000000 1.0
C      1  0.5553840000000  0.5491080000000  0.5276400000000 1.0
C      1  0.5254180000000  0.5732150000000  0.5001530000000 1.0
C      1  0.5818910000000  0.5120240000000  0.5080170000000 1.0
C      1  0.4572000000000  0.5558030000000  0.4257980000000 1.0
C      1  0.5737370000000  0.5148830000000  0.5573960000000 1.0
C      1  0.4341120000000  0.5151880000000  0.5328670000000 1.0
C      1  0.5016730000000  0.4658600000000  0.5374130000000 1.0
END
