TITL C-2778422-5617-865 -0.00104414943251223 125000 -881.81243450074 0 0 149 (C1) n - 1
REM
REM in /home/nfs/bkarasulu/CARBON/AIRSS/Generating-Clusters/REBO/Only-C1/SD-CG/HFTN-CG
REM
REM
REM
REM
REM
REM ./C.cell (11c1c37f851c82e70ff6c80c92926a4b)
REM
REM compiler GCC version 9.2.1 20190827 (Red Hat 9.2.1-1)
REM options -cpp -mtune=generic -march=x86-64 -g -O0 -fpre-include=/usr/include/finclude/math-vector-fortran.h
REM seed -1073810762 2015234962 -684081244 -1335942754 540282986 -982536558 -1941301153 -446136728 -1767591979 1191373528 -1609476057 1538078205 -222460890 -586336114 -1003529806 238981800 1141477973 1832744012 1887651885 -169246035 1056290546 1815701443 169415426 1594571553 805050833 -484877642 -1915801186 612145462 1346085364 254149956 -1000433179 1744560348 1070961178
REM
CELL 1.54180   50.00000   50.00000   50.00000   90.00000   90.00000   90.00000
LATT -1
SFAC C  
C      1  0.5321830000000  0.4325850000000  0.4346780000000 1.0
C      1  0.4866480000000  0.5721740000000  0.4347210000000 1.0
C      1  0.4883560000000  0.5205500000000  0.4213500000000 1.0
C      1  0.5381710000000  0.5760000000000  0.4469510000000 1.0
C      1  0.5560650000000  0.4377900000000  0.4567660000000 1.0
C      1  0.4359050000000  0.5768920000000  0.4779080000000 1.0
C      1  0.4395500000000  0.5160970000000  0.4954130000000 1.0
C      1  0.4247830000000  0.4726740000000  0.4496760000000 1.0
C      1  0.6054000000000  0.4743060000000  0.5569270000000 1.0
C      1  0.4756000000000  0.5155050000000  0.5870190000000 1.0
C      1  0.4948220000000  0.4544400000000  0.5267430000000 1.0
C      1  0.5064110000000  0.5573370000000  0.5657330000000 1.0
C      1  0.5356510000000  0.5549920000000  0.4845600000000 1.0
C      1  0.4494400000000  0.4378190000000  0.4280370000000 1.0
C      1  0.5983620000000  0.5238440000000  0.5038170000000 1.0
C      1  0.4543220000000  0.5857250000000  0.5773800000000 1.0
C      1  0.4386240000000  0.4967220000000  0.4693880000000 1.0
C      1  0.3932520000000  0.4697710000000  0.4933000000000 1.0
C      1  0.5478500000000  0.5360910000000  0.5007560000000 1.0
C      1  0.5270520000000  0.5936200000000  0.4929540000000 1.0
C      1  0.5330870000000  0.5139220000000  0.3981450000000 1.0
C      1  0.4887810000000  0.4168070000000  0.5536180000000 1.0
C      1  0.5095960000000  0.3973920000000  0.5044850000000 1.0
C      1  0.4090200000000  0.5273090000000  0.4953890000000 1.0
C      1  0.4669920000000  0.5362110000000  0.4985290000000 1.0
C      1  0.5512520000000  0.5027600000000  0.5381680000000 1.0
C      1  0.5661720000000  0.4874250000000  0.5122420000000 1.0
C      1  0.5573740000000  0.4865840000000  0.4733170000000 1.0
C      1  0.5007460000000  0.5333300000000  0.5968640000000 1.0
C      1  0.5107450000000  0.4616190000000  0.4608700000000 1.0
C      1  0.5172130000000  0.5796380000000  0.6112350000000 1.0
C      1  0.5307750000000  0.4947060000000  0.5608570000000 1.0
C      1  0.4323150000000  0.5385030000000  0.5678660000000 1.0
C      1  0.4948270000000  0.4395580000000  0.4504900000000 1.0
C      1  0.4212040000000  0.4643110000000  0.5388750000000 1.0
C      1  0.4815910000000  0.4867720000000  0.5935260000000 1.0
C      1  0.4224160000000  0.5306830000000  0.4467890000000 1.0
C      1  0.4111300000000  0.4476610000000  0.4905190000000 1.0
C      1  0.6083410000000  0.5025850000000  0.5201660000000 1.0
C      1  0.5775940000000  0.4389420000000  0.4766180000000 1.0
C      1  0.4946340000000  0.4943800000000  0.5287910000000 1.0
C      1  0.4538420000000  0.4801210000000  0.4043370000000 1.0
C      1  0.4797540000000  0.4106260000000  0.5127110000000 1.0
C      1  0.4599790000000  0.4096830000000  0.4655600000000 1.0
C      1  0.4607530000000  0.4328310000000  0.5496010000000 1.0
C      1  0.4363350000000  0.4632090000000  0.4226920000000 1.0
C      1  0.5926250000000  0.4466940000000  0.5646140000000 1.0
C      1  0.4927560000000  0.5243780000000  0.4826990000000 1.0
C      1  0.5274540000000  0.4893410000000  0.5213590000000 1.0
C      1  0.5391390000000  0.5480550000000  0.5669270000000 1.0
C      1  0.4229680000000  0.4384060000000  0.5174270000000 1.0
C      1  0.5365640000000  0.4717390000000  0.5838630000000 1.0
C      1  0.4767220000000  0.4457700000000  0.4981300000000 1.0
C      1  0.4848830000000  0.5781130000000  0.3833880000000 1.0
C      1  0.5104080000000  0.4460990000000  0.4142580000000 1.0
C      1  0.4850020000000  0.4664450000000  0.4049320000000 1.0
C      1  0.4866360000000  0.5634490000000  0.4769010000000 1.0
C      1  0.4697350000000  0.5760330000000  0.5973730000000 1.0
C      1  0.5697920000000  0.5156260000000  0.4987370000000 1.0
C      1  0.4867460000000  0.5702300000000  0.5042740000000 1.0
C      1  0.5960860000000  0.4745580000000  0.5109790000000 1.0
C      1  0.5416380000000  0.4704660000000  0.4990260000000 1.0
C      1  0.4469200000000  0.5167160000000  0.5778300000000 1.0
C      1  0.5678230000000  0.4646980000000  0.4296500000000 1.0
C      1  0.4137790000000  0.4978510000000  0.5427930000000 1.0
C      1  0.5826360000000  0.4673920000000  0.4490190000000 1.0
C      1  0.5406730000000  0.4090370000000  0.4959530000000 1.0
C      1  0.4093650000000  0.5019100000000  0.4537060000000 1.0
C      1  0.4534290000000  0.5426200000000  0.4690340000000 1.0
C      1  0.5063310000000  0.4767660000000  0.5869230000000 1.0
C      1  0.4418890000000  0.4937730000000  0.3806160000000 1.0
C      1  0.4599490000000  0.4676660000000  0.5878290000000 1.0
C      1  0.4413160000000  0.4563630000000  0.5627940000000 1.0
C      1  0.5687060000000  0.5374580000000  0.5686870000000 1.0
C      1  0.4625560000000  0.5715460000000  0.4574050000000 1.0
C      1  0.5379640000000  0.4633350000000  0.4197550000000 1.0
C      1  0.5378590000000  0.5783110000000  0.5531730000000 1.0
C      1  0.5670020000000  0.4347240000000  0.5680700000000 1.0
C      1  0.4787650000000  0.4399930000000  0.4231550000000 1.0
C      1  0.4767240000000  0.4916170000000  0.4243570000000 1.0
C      1  0.5896050000000  0.5217840000000  0.5618980000000 1.0
C      1  0.4415540000000  0.5782660000000  0.5310990000000 1.0
C      1  0.4756060000000  0.5330870000000  0.5307070000000 1.0
C      1  0.5088070000000  0.4271780000000  0.5369850000000 1.0
C      1  0.4668700000000  0.5127030000000  0.4664140000000 1.0
C      1  0.5060380000000  0.4304720000000  0.4971850000000 1.0
C      1  0.5515340000000  0.5142960000000  0.4632450000000 1.0
C      1  0.3933200000000  0.5014610000000  0.4813510000000 1.0
C      1  0.5869820000000  0.5516280000000  0.5014910000000 1.0
C      1  0.4604000000000  0.5897330000000  0.5498650000000 1.0
C      1  0.5545320000000  0.5323280000000  0.5317140000000 1.0
C      1  0.5604910000000  0.5812890000000  0.5362360000000 1.0
C      1  0.4963270000000  0.4850130000000  0.4766460000000 1.0
C      1  0.5236140000000  0.5183120000000  0.4574630000000 1.0
C      1  0.5341570000000  0.4180900000000  0.5282460000000 1.0
C      1  0.4670380000000  0.4583480000000  0.4735580000000 1.0
C      1  0.5659670000000  0.5386760000000  0.4560580000000 1.0
C      1  0.5711370000000  0.5575220000000  0.5251290000000 1.0
C      1  0.5123730000000  0.5049840000000  0.4361370000000 1.0
C      1  0.5498170000000  0.4477910000000  0.5857570000000 1.0
C      1  0.4409470000000  0.4906460000000  0.5612770000000 1.0
C      1  0.4412160000000  0.4271370000000  0.4533800000000 1.0
C      1  0.5711200000000  0.4218680000000  0.4982360000000 1.0
C      1  0.4207480000000  0.5472880000000  0.4738760000000 1.0
C      1  0.5113920000000  0.5457640000000  0.4688330000000 1.0
C      1  0.5794840000000  0.4282240000000  0.5237920000000 1.0
C      1  0.4726640000000  0.4833720000000  0.4534770000000 1.0
C      1  0.5100110000000  0.3997730000000  0.4721980000000 1.0
C      1  0.4646400000000  0.4680650000000  0.5286230000000 1.0
C      1  0.5092880000000  0.5050620000000  0.4996670000000 1.0
C      1  0.5082320000000  0.6011710000000  0.4715000000000 1.0
C      1  0.4237600000000  0.4458580000000  0.4660290000000 1.0
C      1  0.4961480000000  0.5600010000000  0.5351950000000 1.0
C      1  0.5151120000000  0.5786520000000  0.5136350000000 1.0
C      1  0.5085580000000  0.5373590000000  0.4024150000000 1.0
C      1  0.4537970000000  0.4309570000000  0.5187240000000 1.0
C      1  0.4878840000000  0.4145300000000  0.4632630000000 1.0
C      1  0.5508980000000  0.5533690000000  0.4349710000000 1.0
C      1  0.4069080000000  0.4927430000000  0.5115170000000 1.0
C      1  0.4389490000000  0.5852970000000  0.5036650000000 1.0
C      1  0.5746860000000  0.5578520000000  0.4766710000000 1.0
C      1  0.4892660000000  0.5289830000000  0.5591510000000 1.0
C      1  0.4739520000000  0.4860080000000  0.5542800000000 1.0
C      1  0.6053720000000  0.5017030000000  0.5491630000000 1.0
C      1  0.5583920000000  0.4239610000000  0.5427550000000 1.0
C      1  0.4985000000000  0.5653270000000  0.5962380000000 1.0
C      1  0.4374510000000  0.4815150000000  0.5152710000000 1.0
C      1  0.4810510000000  0.4545460000000  0.5642890000000 1.0
C      1  0.4063900000000  0.4148260000000  0.5285200000000 1.0
C      1  0.4573870000000  0.5067630000000  0.5226460000000 1.0
C      1  0.4875310000000  0.5976180000000  0.5455570000000 1.0
C      1  0.5855730000000  0.4695970000000  0.4821410000000 1.0
C      1  0.4926960000000  0.5638240000000  0.4040740000000 1.0
C      1  0.4103920000000  0.5281630000000  0.5475130000000 1.0
C      1  0.5365130000000  0.4124890000000  0.4621220000000 1.0
C      1  0.5400730000000  0.5412900000000  0.4126250000000 1.0
C      1  0.5198040000000  0.5205000000000  0.5717620000000 1.0
C      1  0.5993240000000  0.4516360000000  0.5316040000000 1.0
C      1  0.5282760000000  0.4469500000000  0.4942950000000 1.0
C      1  0.5388900000000  0.4639280000000  0.4596960000000 1.0
C      1  0.4430770000000  0.5376110000000  0.4307710000000 1.0
C      1  0.5105480000000  0.4680410000000  0.5538460000000 1.0
C      1  0.4274780000000  0.5552420000000  0.5397370000000 1.0
C      1  0.5113820000000  0.5854800000000  0.4474070000000 1.0
C      1  0.4749420000000  0.4855250000000  0.5019380000000 1.0
C      1  0.5140720000000  0.5935160000000  0.5506810000000 1.0
C      1  0.4694790000000  0.5432930000000  0.4292510000000 1.0
C      1  0.5526160000000  0.5819400000000  0.4763190000000 1.0
C      1  0.5292080000000  0.4920970000000  0.4162420000000 1.0
END
