TITL C-2778422-5617-540 -0.00132399819878694 125000 -592.521942077369 0 0 100 (C1) n - 1
REM
REM in /home/nfs/bkarasulu/CARBON/AIRSS/Generating-Clusters/REBO/Only-C1/SD-CG/HFTN-CG
REM
REM
REM
REM
REM
REM ./C.cell (11c1c37f851c82e70ff6c80c92926a4b)
REM
REM compiler GCC version 9.2.1 20190827 (Red Hat 9.2.1-1)
REM options -cpp -mtune=generic -march=x86-64 -g -O0 -fpre-include=/usr/include/finclude/math-vector-fortran.h
REM seed 1805711382 -1267612558 1899885162 459664919 127451316 858471892 393918978 -539066855 1002977562 1928645733 1624496205 -1076247004 923182333 40731432 647338588 -1511724408 -1782979548 1815803451 1757853165 1895700083 405024251 647503506 1468605179 -559726942 75390609 590373624 1957592208 -1820330255 957262874 273311202 572943080 1824749218 -481007182
REM
CELL 1.54180   50.00000   50.00000   50.00000   90.00000   90.00000   90.00000
LATT -1
SFAC C  
C      1  0.4185750000000  0.4944390000000  0.4711900000000 1.0
C      1  0.4870850000000  0.4583890000000  0.5502100000000 1.0
C      1  0.4323460000000  0.5085520000000  0.4481330000000 1.0
C      1  0.5609400000000  0.4415460000000  0.5093810000000 1.0
C      1  0.4821650000000  0.4837790000000  0.4851710000000 1.0
C      1  0.5645150000000  0.4981430000000  0.5151040000000 1.0
C      1  0.5333890000000  0.4134270000000  0.5159160000000 1.0
C      1  0.4336230000000  0.5562020000000  0.5079840000000 1.0
C      1  0.4265040000000  0.4812000000000  0.5520990000000 1.0
C      1  0.4734810000000  0.5307340000000  0.5031230000000 1.0
C      1  0.5873830000000  0.4477960000000  0.4939010000000 1.0
C      1  0.5224300000000  0.4656710000000  0.5099670000000 1.0
C      1  0.4439150000000  0.5392580000000  0.5283630000000 1.0
C      1  0.4203480000000  0.4618960000000  0.5265560000000 1.0
C      1  0.5284420000000  0.5460700000000  0.4664280000000 1.0
C      1  0.4549140000000  0.4827480000000  0.4997890000000 1.0
C      1  0.4599640000000  0.5211760000000  0.5687190000000 1.0
C      1  0.4796440000000  0.5255740000000  0.5889260000000 1.0
C      1  0.5333810000000  0.5004720000000  0.4738960000000 1.0
C      1  0.4717400000000  0.5847500000000  0.5179820000000 1.0
C      1  0.4592360000000  0.5433320000000  0.5511700000000 1.0
C      1  0.5817230000000  0.5279920000000  0.4831520000000 1.0
C      1  0.5067440000000  0.5199650000000  0.5412050000000 1.0
C      1  0.5037200000000  0.5019510000000  0.5675490000000 1.0
C      1  0.4486560000000  0.5103040000000  0.5141890000000 1.0
C      1  0.5463350000000  0.5095140000000  0.4260240000000 1.0
C      1  0.4981900000000  0.4814020000000  0.4093870000000 1.0
C      1  0.5353870000000  0.4580830000000  0.4305320000000 1.0
C      1  0.4879950000000  0.5574260000000  0.5524570000000 1.0
C      1  0.4605040000000  0.4407580000000  0.5554390000000 1.0
C      1  0.5676500000000  0.5565510000000  0.5171240000000 1.0
C      1  0.5375510000000  0.5849540000000  0.4875820000000 1.0
C      1  0.5910550000000  0.5344790000000  0.5107780000000 1.0
C      1  0.4762080000000  0.4855950000000  0.5334120000000 1.0
C      1  0.5682580000000  0.5487580000000  0.4686770000000 1.0
C      1  0.5252820000000  0.5485090000000  0.5631860000000 1.0
C      1  0.4887330000000  0.4575700000000  0.4706210000000 1.0
C      1  0.5058900000000  0.4633320000000  0.5755010000000 1.0
C      1  0.4452290000000  0.5822730000000  0.5088540000000 1.0
C      1  0.5926620000000  0.5109670000000  0.5288800000000 1.0
C      1  0.4837950000000  0.5278020000000  0.4182010000000 1.0
C      1  0.5191280000000  0.4565400000000  0.4798100000000 1.0
C      1  0.5527550000000  0.4876190000000  0.5517150000000 1.0
C      1  0.4772050000000  0.5016910000000  0.4103660000000 1.0
C      1  0.5057560000000  0.5306810000000  0.4373770000000 1.0
C      1  0.5232040000000  0.5097570000000  0.4467940000000 1.0
C      1  0.4659260000000  0.5082660000000  0.4480950000000 1.0
C      1  0.5455770000000  0.5629440000000  0.5397520000000 1.0
C      1  0.4520900000000  0.4678000000000  0.5704140000000 1.0
C      1  0.4324000000000  0.4705320000000  0.4823940000000 1.0
C      1  0.5104700000000  0.4241460000000  0.4734710000000 1.0
C      1  0.4200120000000  0.4955600000000  0.5217920000000 1.0
C      1  0.5640660000000  0.4807290000000  0.4683730000000 1.0
C      1  0.5420160000000  0.4638260000000  0.4609510000000 1.0
C      1  0.4659340000000  0.4293630000000  0.4976350000000 1.0
C      1  0.5268420000000  0.4829300000000  0.4173540000000 1.0
C      1  0.4146150000000  0.5128330000000  0.4934470000000 1.0
C      1  0.4709620000000  0.4582060000000  0.5137250000000 1.0
C      1  0.5003180000000  0.5584010000000  0.4531950000000 1.0
C      1  0.5059600000000  0.4178250000000  0.5229600000000 1.0
C      1  0.4431020000000  0.4410500000000  0.4719420000000 1.0
C      1  0.5142340000000  0.5744880000000  0.5422880000000 1.0
C      1  0.4421720000000  0.5383500000000  0.4593690000000 1.0
C      1  0.4881600000000  0.5549990000000  0.5189940000000 1.0
C      1  0.5136990000000  0.5488760000000  0.4973890000000 1.0
C      1  0.5593120000000  0.5675800000000  0.4888030000000 1.0
C      1  0.5252620000000  0.5404090000000  0.5241550000000 1.0
C      1  0.4986070000000  0.5434890000000  0.5803600000000 1.0
C      1  0.5102740000000  0.5885380000000  0.4935320000000 1.0
C      1  0.4697450000000  0.5483880000000  0.4767580000000 1.0
C      1  0.5015340000000  0.5923980000000  0.5207440000000 1.0
C      1  0.5419400000000  0.4245990000000  0.4864630000000 1.0
C      1  0.4873920000000  0.4548490000000  0.4104130000000 1.0
C      1  0.4801800000000  0.4821970000000  0.5814230000000 1.0
C      1  0.4553400000000  0.4963470000000  0.5537870000000 1.0
C      1  0.5119750000000  0.4923900000000  0.4959980000000 1.0
C      1  0.4914990000000  0.5070450000000  0.5173430000000 1.0
C      1  0.4415200000000  0.4356090000000  0.5286250000000 1.0
C      1  0.5012570000000  0.4493350000000  0.5238190000000 1.0
C      1  0.5558780000000  0.5262530000000  0.5279360000000 1.0
C      1  0.4841050000000  0.5085470000000  0.4681470000000 1.0
C      1  0.5030760000000  0.5263500000000  0.4768570000000 1.0
C      1  0.5286990000000  0.4829150000000  0.5707600000000 1.0
C      1  0.4699740000000  0.5474780000000  0.4422000000000 1.0
C      1  0.4728510000000  0.4219100000000  0.5298970000000 1.0
C      1  0.4256290000000  0.4426020000000  0.5002400000000 1.0
C      1  0.5366270000000  0.4323490000000  0.4533370000000 1.0
C      1  0.5630560000000  0.5051050000000  0.4861820000000 1.0
C      1  0.5519410000000  0.5371350000000  0.4451850000000 1.0
C      1  0.4690590000000  0.4435900000000  0.4562830000000 1.0
C      1  0.4500470000000  0.4943250000000  0.4227320000000 1.0
C      1  0.5833310000000  0.4963180000000  0.5521810000000 1.0
C      1  0.4907650000000  0.5752080000000  0.4779360000000 1.0
C      1  0.4853180000000  0.4164190000000  0.4806920000000 1.0
C      1  0.5380820000000  0.5182350000000  0.5545730000000 1.0
C      1  0.4242990000000  0.5393640000000  0.4866210000000 1.0
C      1  0.5877230000000  0.4646630000000  0.4748390000000 1.0
C      1  0.5502070000000  0.4699290000000  0.5227590000000 1.0
C      1  0.5573690000000  0.4173420000000  0.5330870000000 1.0
C      1  0.4739340000000  0.4400340000000  0.4289710000000 1.0
END
