TITL C-2778435-5768-1257 -0.000301436063229494 125000 -506.733772437549 0 0 89 (C1) n - 1
REM
REM in /home/nfs/bkarasulu/CARBON/AIRSS/Generating-Clusters/REBO/Only-C1/SD-CG/HFTN-CG
REM
REM
REM
REM
REM
REM ./C.cell (11c1c37f851c82e70ff6c80c92926a4b)
REM
REM compiler GCC version 9.2.1 20190827 (Red Hat 9.2.1-1)
REM options -cpp -mtune=generic -march=x86-64 -g -O0 -fpre-include=/usr/include/finclude/math-vector-fortran.h
REM seed -345880430 -1088319592 -182770102 -1291957959 -450885629 -2024726659 -1357461360 1346136260 -181586919 185313355 -1471635753 2014481617 1970969729 -1591043638 1691412540 -2029437921 2117147806 -1233552111 -13041823 672124355 -1387040861 306406283 -1208277221 1449567853 -384902740 -839273013 -463382327 -481154861 1313260941 -898871444 -756014774 888532433 965515904
REM
CELL 1.54180   50.00000   50.00000   50.00000   90.00000   90.00000   90.00000
LATT -1
SFAC C  
C      1  0.5022830000000  0.5512300000000  0.4236200000000 1.0
C      1  0.4438490000000  0.4410730000000  0.4720180000000 1.0
C      1  0.5436010000000  0.5177200000000  0.4402490000000 1.0
C      1  0.4509540000000  0.5152870000000  0.5161810000000 1.0
C      1  0.5850940000000  0.4715370000000  0.5314890000000 1.0
C      1  0.5025640000000  0.4710700000000  0.5505800000000 1.0
C      1  0.5512000000000  0.4413620000000  0.4655690000000 1.0
C      1  0.4954340000000  0.5436170000000  0.5755870000000 1.0
C      1  0.4967170000000  0.5120480000000  0.4739020000000 1.0
C      1  0.5177110000000  0.5778920000000  0.5359750000000 1.0
C      1  0.5207400000000  0.5312280000000  0.5573620000000 1.0
C      1  0.5108470000000  0.4382490000000  0.5521460000000 1.0
C      1  0.5487990000000  0.5147750000000  0.4709170000000 1.0
C      1  0.4497350000000  0.4605740000000  0.5494390000000 1.0
C      1  0.5793090000000  0.4692700000000  0.5046760000000 1.0
C      1  0.4364140000000  0.5039340000000  0.5562810000000 1.0
C      1  0.5162810000000  0.4615150000000  0.4287470000000 1.0
C      1  0.4947580000000  0.4751370000000  0.5115910000000 1.0
C      1  0.5023700000000  0.4235480000000  0.4779710000000 1.0
C      1  0.5212590000000  0.4922430000000  0.5784100000000 1.0
C      1  0.5284070000000  0.4397290000000  0.5163670000000 1.0
C      1  0.5521840000000  0.4954550000000  0.5650230000000 1.0
C      1  0.4437260000000  0.4527530000000  0.5193670000000 1.0
C      1  0.4705450000000  0.5457970000000  0.5633120000000 1.0
C      1  0.5204190000000  0.4792390000000  0.4984450000000 1.0
C      1  0.5489020000000  0.4608830000000  0.4391130000000 1.0
C      1  0.4540460000000  0.5566370000000  0.4541750000000 1.0
C      1  0.5179480000000  0.4433240000000  0.4570310000000 1.0
C      1  0.5104870000000  0.5491080000000  0.4943000000000 1.0
C      1  0.4930560000000  0.5000150000000  0.5604340000000 1.0
C      1  0.5346300000000  0.4903420000000  0.4298070000000 1.0
C      1  0.4553500000000  0.4334940000000  0.4970120000000 1.0
C      1  0.4507500000000  0.5052350000000  0.4642700000000 1.0
C      1  0.4220030000000  0.4903330000000  0.4570590000000 1.0
C      1  0.4866520000000  0.5426450000000  0.5098820000000 1.0
C      1  0.5311610000000  0.4618160000000  0.5660560000000 1.0
C      1  0.5252170000000  0.4731220000000  0.4689070000000 1.0
C      1  0.5812790000000  0.5264830000000  0.5375010000000 1.0
C      1  0.5248120000000  0.5676300000000  0.4764240000000 1.0
C      1  0.4467490000000  0.4947190000000  0.3973070000000 1.0
C      1  0.4685250000000  0.5617930000000  0.5399260000000 1.0
C      1  0.5186280000000  0.5652710000000  0.4484130000000 1.0
C      1  0.5522140000000  0.4491090000000  0.5285270000000 1.0
C      1  0.5342830000000  0.5301590000000  0.5197810000000 1.0
C      1  0.4743970000000  0.4868680000000  0.4748610000000 1.0
C      1  0.5616450000000  0.4668330000000  0.5536900000000 1.0
C      1  0.4791080000000  0.5338660000000  0.4304830000000 1.0
C      1  0.4678530000000  0.4816730000000  0.5669330000000 1.0
C      1  0.4263840000000  0.5016550000000  0.5176760000000 1.0
C      1  0.5403850000000  0.4916240000000  0.5135450000000 1.0
C      1  0.4226320000000  0.5587810000000  0.5232380000000 1.0
C      1  0.4532380000000  0.4731370000000  0.4937490000000 1.0
C      1  0.4781930000000  0.4477040000000  0.5544250000000 1.0
C      1  0.4850680000000  0.5207410000000  0.5358610000000 1.0
C      1  0.4969310000000  0.4444210000000  0.5213600000000 1.0
C      1  0.5630620000000  0.4431400000000  0.4968250000000 1.0
C      1  0.4896300000000  0.4824840000000  0.4264780000000 1.0
C      1  0.4224700000000  0.4779340000000  0.5416100000000 1.0
C      1  0.5754540000000  0.5550860000000  0.4836470000000 1.0
C      1  0.4905780000000  0.5781550000000  0.5341040000000 1.0
C      1  0.4788260000000  0.4665820000000  0.4517150000000 1.0
C      1  0.5715000000000  0.5186790000000  0.5666220000000 1.0
C      1  0.5754360000000  0.5242460000000  0.4862440000000 1.0
C      1  0.5553900000000  0.4828300000000  0.4631410000000 1.0
C      1  0.5136840000000  0.5217930000000  0.5894820000000 1.0
C      1  0.4242320000000  0.4667850000000  0.4766820000000 1.0
C      1  0.5650280000000  0.5487730000000  0.5541540000000 1.0
C      1  0.5244300000000  0.5206910000000  0.4886530000000 1.0
C      1  0.5318420000000  0.5051080000000  0.5422400000000 1.0
C      1  0.4828770000000  0.4287520000000  0.4986700000000 1.0
C      1  0.4706210000000  0.5034670000000  0.4177380000000 1.0
C      1  0.4488030000000  0.5488880000000  0.5208560000000 1.0
C      1  0.5528680000000  0.5705110000000  0.4820800000000 1.0
C      1  0.4374300000000  0.4984540000000  0.4278140000000 1.0
C      1  0.4580240000000  0.5191740000000  0.5571430000000 1.0
C      1  0.4144410000000  0.5207960000000  0.4693230000000 1.0
C      1  0.5316960000000  0.5410550000000  0.4313290000000 1.0
C      1  0.4310350000000  0.5418210000000  0.4735630000000 1.0
C      1  0.4626560000000  0.4447110000000  0.4511980000000 1.0
C      1  0.5083900000000  0.4933430000000  0.4514970000000 1.0
C      1  0.4793640000000  0.5355800000000  0.4646010000000 1.0
C      1  0.4169810000000  0.4709010000000  0.5085370000000 1.0
C      1  0.5645780000000  0.5155890000000  0.5145980000000 1.0
C      1  0.5761730000000  0.4902040000000  0.4859830000000 1.0
C      1  0.4771670000000  0.4974340000000  0.5138660000000 1.0
C      1  0.4485170000000  0.5270280000000  0.4408640000000 1.0
C      1  0.4595890000000  0.5446220000000  0.4907450000000 1.0
C      1  0.5330770000000  0.4253350000000  0.4890850000000 1.0
C      1  0.5364270000000  0.5543460000000  0.5419430000000 1.0
END
