TITL C-2778428-5639-378 -0.000306506191961988 125000 -516.946824398499 0 0 90 (C1) n - 1
REM
REM in /home/nfs/bkarasulu/CARBON/AIRSS/Generating-Clusters/REBO/Only-C1/SD-CG/HFTN-CG
REM
REM
REM
REM
REM
REM ./C.cell (11c1c37f851c82e70ff6c80c92926a4b)
REM
REM compiler GCC version 9.2.1 20190827 (Red Hat 9.2.1-1)
REM options -cpp -mtune=generic -march=x86-64 -g -O0 -fpre-include=/usr/include/finclude/math-vector-fortran.h
REM seed 984461735 1466797238 -739278786 8167156 1112404730 -392568668 -825782914 70211425 712884023 -1832732453 -977371150 393665665 -2017033398 -1897137579 636844788 817374290 1767860589 -964424833 -1684953245 119727559 -1678728460 526091704 83419048 -989627031 -1541049515 1621366357 1403872536 1066446307 -852507169 -140884950 1248409045 -2083992634 -1271438138
REM
CELL 1.54180   50.00000   50.00000   50.00000   90.00000   90.00000   90.00000
LATT -1
SFAC C  
C      1  0.4980290000000  0.5460360000000  0.4385110000000 1.0
C      1  0.4799160000000  0.5838080000000  0.4765060000000 1.0
C      1  0.5805860000000  0.5000150000000  0.5291270000000 1.0
C      1  0.5525360000000  0.4287170000000  0.5217480000000 1.0
C      1  0.5644160000000  0.4743740000000  0.5165020000000 1.0
C      1  0.4519120000000  0.5572150000000  0.4481690000000 1.0
C      1  0.5628230000000  0.5336950000000  0.4486680000000 1.0
C      1  0.4604030000000  0.5334220000000  0.4335970000000 1.0
C      1  0.4966480000000  0.4623220000000  0.4448630000000 1.0
C      1  0.4728380000000  0.5083370000000  0.4412880000000 1.0
C      1  0.4322390000000  0.4517200000000  0.4781130000000 1.0
C      1  0.4706280000000  0.4569050000000  0.5806580000000 1.0
C      1  0.5214690000000  0.5821380000000  0.4894680000000 1.0
C      1  0.4770630000000  0.4840060000000  0.5863060000000 1.0
C      1  0.5478730000000  0.4619180000000  0.4175920000000 1.0
C      1  0.5513600000000  0.4989680000000  0.4868720000000 1.0
C      1  0.5430500000000  0.4928990000000  0.5848050000000 1.0
C      1  0.5045610000000  0.5819060000000  0.5105760000000 1.0
C      1  0.4625480000000  0.5707800000000  0.5378350000000 1.0
C      1  0.4666990000000  0.5819030000000  0.4512780000000 1.0
C      1  0.5052170000000  0.5312500000000  0.5829250000000 1.0
C      1  0.5406170000000  0.5731870000000  0.4723730000000 1.0
C      1  0.4640550000000  0.4647790000000  0.5110180000000 1.0
C      1  0.4352010000000  0.4779230000000  0.4659830000000 1.0
C      1  0.5465980000000  0.4998480000000  0.5280760000000 1.0
C      1  0.4805020000000  0.4286880000000  0.5381110000000 1.0
C      1  0.3940400000000  0.5050170000000  0.5161060000000 1.0
C      1  0.5618540000000  0.5551230000000  0.4677860000000 1.0
C      1  0.4840350000000  0.5550680000000  0.5495920000000 1.0
C      1  0.5605660000000  0.4497190000000  0.4714220000000 1.0
C      1  0.4116810000000  0.4673700000000  0.5189970000000 1.0
C      1  0.4492710000000  0.4706480000000  0.4415320000000 1.0
C      1  0.4872580000000  0.5382630000000  0.4634440000000 1.0
C      1  0.5672940000000  0.5161160000000  0.4954570000000 1.0
C      1  0.4375590000000  0.4660890000000  0.5150540000000 1.0
C      1  0.5267960000000  0.4515050000000  0.4408680000000 1.0
C      1  0.5093530000000  0.4671270000000  0.4732380000000 1.0
C      1  0.5397130000000  0.5620220000000  0.5508790000000 1.0
C      1  0.5761310000000  0.5474860000000  0.4926800000000 1.0
C      1  0.5385950000000  0.4697250000000  0.4864170000000 1.0
C      1  0.4765920000000  0.5092220000000  0.4736080000000 1.0
C      1  0.4828330000000  0.4858170000000  0.5180510000000 1.0
C      1  0.5184340000000  0.5042570000000  0.4342620000000 1.0
C      1  0.4796650000000  0.5244860000000  0.5530520000000 1.0
C      1  0.4470650000000  0.5241100000000  0.5058760000000 1.0
C      1  0.5373560000000  0.5069080000000  0.5562220000000 1.0
C      1  0.5232590000000  0.5340010000000  0.5573430000000 1.0
C      1  0.5238250000000  0.4198190000000  0.4776880000000 1.0
C      1  0.4619950000000  0.4142280000000  0.4922180000000 1.0
C      1  0.5170310000000  0.5046820000000  0.5154200000000 1.0
C      1  0.4886140000000  0.4424470000000  0.5632790000000 1.0
C      1  0.4699660000000  0.5142340000000  0.5241250000000 1.0
C      1  0.4371670000000  0.5516530000000  0.4723150000000 1.0
C      1  0.5654550000000  0.4459110000000  0.5036950000000 1.0
C      1  0.5517400000000  0.4737580000000  0.4488650000000 1.0
C      1  0.4147430000000  0.5157310000000  0.5023720000000 1.0
C      1  0.4473590000000  0.4456350000000  0.5892040000000 1.0
C      1  0.5172460000000  0.4813460000000  0.5658240000000 1.0
C      1  0.5708140000000  0.4253950000000  0.4565720000000 1.0
C      1  0.4814610000000  0.5436230000000  0.5114450000000 1.0
C      1  0.4231920000000  0.5274450000000  0.4741230000000 1.0
C      1  0.4367870000000  0.5737090000000  0.5470450000000 1.0
C      1  0.5921670000000  0.5260510000000  0.5167280000000 1.0
C      1  0.5309610000000  0.4237560000000  0.4537560000000 1.0
C      1  0.5556900000000  0.5075210000000  0.4481390000000 1.0
C      1  0.5082720000000  0.5330390000000  0.5267370000000 1.0
C      1  0.5001080000000  0.4983200000000  0.5445650000000 1.0
C      1  0.5153750000000  0.4518510000000  0.5621050000000 1.0
C      1  0.5557260000000  0.4614140000000  0.3932240000000 1.0
C      1  0.5025230000000  0.4964220000000  0.4871280000000 1.0
C      1  0.5169800000000  0.5310380000000  0.4253200000000 1.0
C      1  0.5329050000000  0.4411320000000  0.5426200000000 1.0
C      1  0.4519810000000  0.5567970000000  0.4996720000000 1.0
C      1  0.4652320000000  0.4101450000000  0.5226760000000 1.0
C      1  0.4844490000000  0.5103910000000  0.5821600000000 1.0
C      1  0.4688010000000  0.4490970000000  0.4474890000000 1.0
C      1  0.5275240000000  0.5013290000000  0.4646100000000 1.0
C      1  0.4783100000000  0.4400560000000  0.4998430000000 1.0
C      1  0.5116320000000  0.5650140000000  0.5352260000000 1.0
C      1  0.5647070000000  0.5658490000000  0.5423060000000 1.0
C      1  0.5822640000000  0.5572380000000  0.5240580000000 1.0
C      1  0.4445430000000  0.5030060000000  0.4790310000000 1.0
C      1  0.5091030000000  0.4423020000000  0.4915500000000 1.0
C      1  0.5001420000000  0.4520900000000  0.5226880000000 1.0
C      1  0.3739850000000  0.4946400000000  0.5294080000000 1.0
C      1  0.5320200000000  0.4626630000000  0.5172400000000 1.0
C      1  0.4886880000000  0.5565030000000  0.4841110000000 1.0
C      1  0.4936090000000  0.4903490000000  0.4318270000000 1.0
C      1  0.4720690000000  0.5824550000000  0.5095110000000 1.0
C      1  0.4537010000000  0.4330760000000  0.4692270000000 1.0
END
