TITL C-2778422-5617-328 -0.00126098872069057 125000 -1034.75370799313 0 0 177 (C1) n - 1
REM
REM in /home/nfs/bkarasulu/CARBON/AIRSS/Generating-Clusters/REBO/Only-C1/SD-CG/HFTN-CG
REM
REM
REM
REM
REM
REM ./C.cell (11c1c37f851c82e70ff6c80c92926a4b)
REM
REM compiler GCC version 9.2.1 20190827 (Red Hat 9.2.1-1)
REM options -cpp -mtune=generic -march=x86-64 -g -O0 -fpre-include=/usr/include/finclude/math-vector-fortran.h
REM seed -1652135791 -1123742994 1219050309 1550759053 1441731881 747193292 1204254057 -341018452 796139726 -585016791 1072517249 -1519546439 843417293 1119795981 -115817510 1227801734 -1677135499 186565888 1174324762 -821304820 1310224870 -1496377667 -737782794 460960723 917106950 -182308572 -1220456463 -49206934 1275409974 -2093506784 1303676781 -1756335656 -666719828
REM
CELL 1.54180   50.00000   50.00000   50.00000   90.00000   90.00000   90.00000
LATT -1
SFAC C  
C      1  0.5499460000000  0.4582910000000  0.5013250000000 1.0
C      1  0.4542180000000  0.5820750000000  0.4389050000000 1.0
C      1  0.4511740000000  0.4249810000000  0.5745830000000 1.0
C      1  0.4376770000000  0.5362800000000  0.4305830000000 1.0
C      1  0.5971840000000  0.5066080000000  0.4937850000000 1.0
C      1  0.5245710000000  0.3853410000000  0.4762840000000 1.0
C      1  0.5392590000000  0.5639470000000  0.5865970000000 1.0
C      1  0.5133350000000  0.5299380000000  0.5328200000000 1.0
C      1  0.4682840000000  0.5794890000000  0.4819070000000 1.0
C      1  0.4435470000000  0.5006060000000  0.5425050000000 1.0
C      1  0.4634170000000  0.5304850000000  0.5838450000000 1.0
C      1  0.5275330000000  0.5392710000000  0.5981170000000 1.0
C      1  0.4969260000000  0.5615430000000  0.5691260000000 1.0
C      1  0.5571310000000  0.5127660000000  0.5316750000000 1.0
C      1  0.4191790000000  0.5107880000000  0.4439610000000 1.0
C      1  0.5482740000000  0.5480610000000  0.4212100000000 1.0
C      1  0.4943180000000  0.6155500000000  0.4946900000000 1.0
C      1  0.4671160000000  0.4479060000000  0.4077510000000 1.0
C      1  0.4394660000000  0.4540120000000  0.4149000000000 1.0
C      1  0.6003340000000  0.5355630000000  0.5119080000000 1.0
C      1  0.5964740000000  0.5617530000000  0.5054440000000 1.0
C      1  0.4969140000000  0.5782520000000  0.4789820000000 1.0
C      1  0.4076260000000  0.5384160000000  0.5037190000000 1.0
C      1  0.5557450000000  0.4206540000000  0.4633360000000 1.0
C      1  0.5261230000000  0.5095480000000  0.4996490000000 1.0
C      1  0.5523040000000  0.5219500000000  0.4801950000000 1.0
C      1  0.5556280000000  0.4856240000000  0.5439460000000 1.0
C      1  0.4724850000000  0.5090770000000  0.4036640000000 1.0
C      1  0.5439440000000  0.4526300000000  0.4623250000000 1.0
C      1  0.4267210000000  0.4317190000000  0.5332980000000 1.0
C      1  0.5280120000000  0.5942300000000  0.4976080000000 1.0
C      1  0.5433370000000  0.4641900000000  0.4124620000000 1.0
C      1  0.4806910000000  0.5559590000000  0.4086790000000 1.0
C      1  0.4715590000000  0.5270170000000  0.4650850000000 1.0
C      1  0.5764480000000  0.5804830000000  0.5091620000000 1.0
C      1  0.5035270000000  0.4856940000000  0.3946770000000 1.0
C      1  0.5927100000000  0.5285340000000  0.5436930000000 1.0
C      1  0.4586020000000  0.5157680000000  0.4431240000000 1.0
C      1  0.5010990000000  0.4167390000000  0.4395430000000 1.0
C      1  0.4111000000000  0.5188160000000  0.4762100000000 1.0
C      1  0.5427240000000  0.5513010000000  0.4718450000000 1.0
C      1  0.4538040000000  0.5503730000000  0.4824960000000 1.0
C      1  0.4721440000000  0.5314850000000  0.5046840000000 1.0
C      1  0.5516260000000  0.4624520000000  0.5304710000000 1.0
C      1  0.4211070000000  0.5237790000000  0.5502810000000 1.0
C      1  0.5447920000000  0.5303000000000  0.5570860000000 1.0
C      1  0.4914380000000  0.4564730000000  0.5820390000000 1.0
C      1  0.5589390000000  0.4383880000000  0.5459930000000 1.0
C      1  0.5354770000000  0.4319960000000  0.4973800000000 1.0
C      1  0.4734740000000  0.4363410000000  0.4799880000000 1.0
C      1  0.5055640000000  0.4911940000000  0.4706960000000 1.0
C      1  0.5700930000000  0.5501150000000  0.5335950000000 1.0
C      1  0.5035650000000  0.4018300000000  0.5583440000000 1.0
C      1  0.5097380000000  0.5673020000000  0.5078710000000 1.0
C      1  0.4630860000000  0.4928400000000  0.5090040000000 1.0
C      1  0.4851140000000  0.6050050000000  0.5450710000000 1.0
C      1  0.5193220000000  0.6019930000000  0.4667120000000 1.0
C      1  0.5172510000000  0.4619900000000  0.4786000000000 1.0
C      1  0.5018260000000  0.5747990000000  0.4156300000000 1.0
C      1  0.5002700000000  0.4011750000000  0.4667070000000 1.0
C      1  0.5454840000000  0.4023120000000  0.4854540000000 1.0
C      1  0.5271180000000  0.4382710000000  0.4049600000000 1.0
C      1  0.4885200000000  0.6148200000000  0.4655630000000 1.0
C      1  0.4541790000000  0.4078950000000  0.5498290000000 1.0
C      1  0.5604050000000  0.4662380000000  0.4371010000000 1.0
C      1  0.4240170000000  0.4007330000000  0.4944660000000 1.0
C      1  0.5544070000000  0.5790470000000  0.4883800000000 1.0
C      1  0.4487890000000  0.5705790000000  0.5487810000000 1.0
C      1  0.5325860000000  0.5782890000000  0.4210810000000 1.0
C      1  0.4720820000000  0.4787880000000  0.5902270000000 1.0
C      1  0.4796500000000  0.5934940000000  0.4463260000000 1.0
C      1  0.5479540000000  0.4085460000000  0.5190950000000 1.0
C      1  0.4891520000000  0.5287610000000  0.4124670000000 1.0
C      1  0.5508000000000  0.5121280000000  0.4047040000000 1.0
C      1  0.4298600000000  0.5254380000000  0.5814950000000 1.0
C      1  0.4872940000000  0.4506270000000  0.5499400000000 1.0
C      1  0.5475750000000  0.4290010000000  0.4307930000000 1.0
C      1  0.4383760000000  0.4858790000000  0.4935770000000 1.0
C      1  0.5551210000000  0.5350930000000  0.5092060000000 1.0
C      1  0.5155410000000  0.5210950000000  0.5644030000000 1.0
C      1  0.4992940000000  0.4670390000000  0.4394360000000 1.0
C      1  0.4397450000000  0.4743660000000  0.5790790000000 1.0
C      1  0.4136030000000  0.4244570000000  0.4852540000000 1.0
C      1  0.5448250000000  0.5368760000000  0.3892320000000 1.0
C      1  0.4543860000000  0.4013200000000  0.4562000000000 1.0
C      1  0.4243140000000  0.4349510000000  0.4294060000000 1.0
C      1  0.5170850000000  0.5792240000000  0.5770210000000 1.0
C      1  0.5183700000000  0.4439750000000  0.4430560000000 1.0
C      1  0.5775090000000  0.4476610000000  0.4921740000000 1.0
C      1  0.4877870000000  0.4733760000000  0.5043240000000 1.0
C      1  0.4086240000000  0.4427290000000  0.5069290000000 1.0
C      1  0.5617650000000  0.4854370000000  0.5709460000000 1.0
C      1  0.4872190000000  0.4702250000000  0.4101450000000 1.0
C      1  0.5944220000000  0.4696420000000  0.5313920000000 1.0
C      1  0.4635470000000  0.5936860000000  0.5573050000000 1.0
C      1  0.5772830000000  0.4391610000000  0.4455000000000 1.0
C      1  0.4545560000000  0.5606800000000  0.4197850000000 1.0
C      1  0.5627010000000  0.5638330000000  0.5701350000000 1.0
C      1  0.5318680000000  0.5874160000000  0.5363630000000 1.0
C      1  0.5382700000000  0.4322660000000  0.5702140000000 1.0
C      1  0.4722870000000  0.3924950000000  0.4752600000000 1.0
C      1  0.5696180000000  0.4980300000000  0.4761400000000 1.0
C      1  0.4300240000000  0.4706510000000  0.5405400000000 1.0
C      1  0.5743620000000  0.4215430000000  0.5052600000000 1.0
C      1  0.5243030000000  0.5435620000000  0.4975760000000 1.0
C      1  0.4945140000000  0.5376690000000  0.5937810000000 1.0
C      1  0.4695030000000  0.5168140000000  0.5329110000000 1.0
C      1  0.5826550000000  0.4557580000000  0.5547020000000 1.0
C      1  0.4056870000000  0.4691440000000  0.4947410000000 1.0
C      1  0.3943370000000  0.4690420000000  0.4670740000000 1.0
C      1  0.4272230000000  0.5449100000000  0.4611990000000 1.0
C      1  0.5190090000000  0.4876620000000  0.6041620000000 1.0
C      1  0.5026400000000  0.4331820000000  0.4778790000000 1.0
C      1  0.5886200000000  0.5375170000000  0.4473250000000 1.0
C      1  0.5649210000000  0.5820930000000  0.5412760000000 1.0
C      1  0.4421170000000  0.4036820000000  0.5211550000000 1.0
C      1  0.4421560000000  0.4681070000000  0.4681860000000 1.0
C      1  0.5145480000000  0.4960300000000  0.4396900000000 1.0
C      1  0.4949680000000  0.4897440000000  0.5507880000000 1.0
C      1  0.5098510000000  0.5249730000000  0.4313000000000 1.0
C      1  0.5626550000000  0.5830280000000  0.4581330000000 1.0
C      1  0.4052050000000  0.4915910000000  0.5372330000000 1.0
C      1  0.5303030000000  0.4913110000000  0.4098070000000 1.0
C      1  0.4245940000000  0.4825420000000  0.4254030000000 1.0
C      1  0.5753720000000  0.5341250000000  0.5697600000000 1.0
C      1  0.4673040000000  0.5567740000000  0.5267500000000 1.0
C      1  0.5418880000000  0.4841710000000  0.4867210000000 1.0
C      1  0.4816270000000  0.4197110000000  0.5493930000000 1.0
C      1  0.5987740000000  0.4723440000000  0.4973360000000 1.0
C      1  0.4898830000000  0.4147210000000  0.5109530000000 1.0
C      1  0.4969040000000  0.4316330000000  0.4117500000000 1.0
C      1  0.5396150000000  0.5138160000000  0.6009950000000 1.0
C      1  0.4657350000000  0.4541120000000  0.4995530000000 1.0
C      1  0.5887100000000  0.4648800000000  0.4650480000000 1.0
C      1  0.4895510000000  0.5051430000000  0.6029180000000 1.0
C      1  0.4111290000000  0.5447830000000  0.5330280000000 1.0
C      1  0.4513150000000  0.4872910000000  0.4421820000000 1.0
C      1  0.4451770000000  0.4544220000000  0.5170990000000 1.0
C      1  0.5627360000000  0.5090450000000  0.5856720000000 1.0
C      1  0.6044190000000  0.5240650000000  0.4654480000000 1.0
C      1  0.4960890000000  0.5582410000000  0.5367190000000 1.0
C      1  0.4826740000000  0.5270760000000  0.5577500000000 1.0
C      1  0.5145810000000  0.4304810000000  0.5208170000000 1.0
C      1  0.5393240000000  0.5926660000000  0.4450640000000 1.0
C      1  0.5759210000000  0.4914960000000  0.4467880000000 1.0
C      1  0.4498660000000  0.5025730000000  0.5939990000000 1.0
C      1  0.4682750000000  0.4008640000000  0.5021240000000 1.0
C      1  0.4225020000000  0.5905260000000  0.5137360000000 1.0
C      1  0.4708080000000  0.4624910000000  0.4499460000000 1.0
C      1  0.5883830000000  0.5003510000000  0.5264790000000 1.0
C      1  0.5080320000000  0.4624020000000  0.5253980000000 1.0
C      1  0.5262410000000  0.5483730000000  0.4465220000000 1.0
C      1  0.5358680000000  0.5553500000000  0.5374160000000 1.0
C      1  0.5683830000000  0.5202160000000  0.4301370000000 1.0
C      1  0.4690540000000  0.4775070000000  0.5393700000000 1.0
C      1  0.4351730000000  0.5773340000000  0.4596070000000 1.0
C      1  0.4549370000000  0.4327600000000  0.4548580000000 1.0
C      1  0.5075920000000  0.6040390000000  0.5233600000000 1.0
C      1  0.4153350000000  0.4961980000000  0.5698290000000 1.0
C      1  0.5248220000000  0.4574530000000  0.5890230000000 1.0
C      1  0.5584950000000  0.4570090000000  0.5810280000000 1.0
C      1  0.5121270000000  0.4968800000000  0.5246740000000 1.0
C      1  0.5820220000000  0.5649180000000  0.4488410000000 1.0
C      1  0.5285140000000  0.4132460000000  0.5456850000000 1.0
C      1  0.4563460000000  0.5842830000000  0.5121300000000 1.0
C      1  0.5122840000000  0.4919090000000  0.5736050000000 1.0
C      1  0.4097610000000  0.4993680000000  0.5044190000000 1.0
C      1  0.4241830000000  0.4399150000000  0.4616770000000 1.0
C      1  0.3992530000000  0.4751370000000  0.4436240000000 1.0
C      1  0.4331310000000  0.4471190000000  0.5633510000000 1.0
C      1  0.4898240000000  0.5117390000000  0.4830210000000 1.0
C      1  0.5043710000000  0.5701980000000  0.4480290000000 1.0
C      1  0.4764100000000  0.4285400000000  0.5880560000000 1.0
C      1  0.4383440000000  0.5954940000000  0.4848160000000 1.0
C      1  0.4942280000000  0.4060820000000  0.5861010000000 1.0
C      1  0.4220720000000  0.5703500000000  0.5384370000000 1.0
C      1  0.4271620000000  0.5602590000000  0.4999230000000 1.0
END
