TITL C-2778431-5191-962 -0.00299717370003568 125000 -1158.66105311234 0 0 197 (C1) n - 1
REM
REM in /home/nfs/bkarasulu/CARBON/AIRSS/Generating-Clusters/REBO/Only-C1/SD-CG/HFTN-CG
REM
REM
REM
REM
REM
REM ./C.cell (11c1c37f851c82e70ff6c80c92926a4b)
REM
REM compiler GCC version 9.2.1 20190827 (Red Hat 9.2.1-1)
REM options -cpp -mtune=generic -march=x86-64 -g -O0 -fpre-include=/usr/include/finclude/math-vector-fortran.h
REM seed -1688027272 247850528 1906863453 61999909 -589429481 -128771641 -1329325181 -130116135 431416676 -659710635 -1592831870 -1071925695 17258540 901397601 -967297558 318636505 196646541 -1411583202 -256873804 331385519 -1535308502 1972552782 772322962 -998168055 1729206049 -757461916 -1233948554 -1601840561 1062713931 -1340683661 -1682814771 907822537 501104471
REM
CELL 1.54180   50.00000   50.00000   50.00000   90.00000   90.00000   90.00000
LATT -1
SFAC C  
C      1  0.5245360000000  0.5909600000000  0.4309050000000 1.0
C      1  0.5984040000000  0.4841620000000  0.5408570000000 1.0
C      1  0.5991870000000  0.5127140000000  0.5249890000000 1.0
C      1  0.4100730000000  0.5349300000000  0.4559800000000 1.0
C      1  0.5107220000000  0.5717370000000  0.5732440000000 1.0
C      1  0.5864830000000  0.4640520000000  0.5181050000000 1.0
C      1  0.4488170000000  0.6017770000000  0.5233020000000 1.0
C      1  0.5241380000000  0.4760590000000  0.3899510000000 1.0
C      1  0.5016480000000  0.5655440000000  0.4592190000000 1.0
C      1  0.4287920000000  0.5939670000000  0.4967850000000 1.0
C      1  0.5467080000000  0.5195730000000  0.5114990000000 1.0
C      1  0.5276690000000  0.4315450000000  0.4271310000000 1.0
C      1  0.4985140000000  0.4921710000000  0.5930810000000 1.0
C      1  0.5730680000000  0.4052330000000  0.4681590000000 1.0
C      1  0.4790680000000  0.4016390000000  0.4447210000000 1.0
C      1  0.4289430000000  0.4615930000000  0.4996420000000 1.0
C      1  0.4364090000000  0.4229870000000  0.4955360000000 1.0
C      1  0.5018020000000  0.4131490000000  0.4966470000000 1.0
C      1  0.4112350000000  0.5746590000000  0.4895310000000 1.0
C      1  0.5943700000000  0.5032700000000  0.4653470000000 1.0
C      1  0.4341190000000  0.4735110000000  0.5860970000000 1.0
C      1  0.4894290000000  0.5602720000000  0.6088890000000 1.0
C      1  0.4547910000000  0.5152980000000  0.4021760000000 1.0
C      1  0.5761500000000  0.5657770000000  0.5263320000000 1.0
C      1  0.4434770000000  0.4965990000000  0.5176960000000 1.0
C      1  0.5089650000000  0.5924280000000  0.4552620000000 1.0
C      1  0.4636030000000  0.4325890000000  0.5122740000000 1.0
C      1  0.5889320000000  0.5450760000000  0.4283380000000 1.0
C      1  0.6016310000000  0.4879220000000  0.5012880000000 1.0
C      1  0.4748210000000  0.5898200000000  0.5693800000000 1.0
C      1  0.4690190000000  0.5675710000000  0.5497610000000 1.0
C      1  0.5127140000000  0.4692260000000  0.5746230000000 1.0
C      1  0.5068410000000  0.5191700000000  0.5737200000000 1.0
C      1  0.4281600000000  0.4481520000000  0.4191970000000 1.0
C      1  0.4588200000000  0.3962260000000  0.5596870000000 1.0
C      1  0.4485990000000  0.5254190000000  0.5282160000000 1.0
C      1  0.4992650000000  0.4451990000000  0.5000340000000 1.0
C      1  0.5063200000000  0.4148730000000  0.5787510000000 1.0
C      1  0.5357200000000  0.5097910000000  0.5614610000000 1.0
C      1  0.5227990000000  0.5227980000000  0.4796700000000 1.0
C      1  0.4900490000000  0.4738570000000  0.5104490000000 1.0
C      1  0.4219480000000  0.5009270000000  0.4198460000000 1.0
C      1  0.5246290000000  0.5659160000000  0.5501260000000 1.0
C      1  0.5502810000000  0.3941180000000  0.4801810000000 1.0
C      1  0.5705610000000  0.5046870000000  0.3983730000000 1.0
C      1  0.5201830000000  0.4350750000000  0.5938830000000 1.0
C      1  0.4209220000000  0.5011960000000  0.4968430000000 1.0
C      1  0.4460980000000  0.5512600000000  0.4603120000000 1.0
C      1  0.5391970000000  0.5514230000000  0.4069880000000 1.0
C      1  0.5439670000000  0.4832870000000  0.4949290000000 1.0
C      1  0.5953680000000  0.4904990000000  0.4103750000000 1.0
C      1  0.5241810000000  0.4046010000000  0.4334940000000 1.0
C      1  0.5970760000000  0.4839870000000  0.4372300000000 1.0
C      1  0.4595240000000  0.5206060000000  0.6054560000000 1.0
C      1  0.4380040000000  0.4952150000000  0.6023190000000 1.0
C      1  0.5657510000000  0.6105780000000  0.4864470000000 1.0
C      1  0.5061030000000  0.4542250000000  0.6110130000000 1.0
C      1  0.4729760000000  0.5625780000000  0.5013750000000 1.0
C      1  0.5350060000000  0.5467020000000  0.5280220000000 1.0
C      1  0.5543980000000  0.5616160000000  0.5594640000000 1.0
C      1  0.5572530000000  0.5327850000000  0.5709320000000 1.0
C      1  0.4602520000000  0.5270150000000  0.4494350000000 1.0
C      1  0.4832310000000  0.5616280000000  0.4107690000000 1.0
C      1  0.5115000000000  0.5462190000000  0.5903030000000 1.0
C      1  0.4063670000000  0.5250710000000  0.5040050000000 1.0
C      1  0.4525330000000  0.5025280000000  0.4317630000000 1.0
C      1  0.4996700000000  0.5288800000000  0.5337240000000 1.0
C      1  0.4768130000000  0.4183990000000  0.4222890000000 1.0
C      1  0.4903960000000  0.5587200000000  0.5296130000000 1.0
C      1  0.4927130000000  0.4387920000000  0.4046680000000 1.0
C      1  0.5469670000000  0.4502160000000  0.5817830000000 1.0
C      1  0.5229490000000  0.5170420000000  0.4227390000000 1.0
C      1  0.4988820000000  0.5128020000000  0.3747990000000 1.0
C      1  0.4140090000000  0.4341550000000  0.4747830000000 1.0
C      1  0.4453150000000  0.5721430000000  0.5342440000000 1.0
C      1  0.5504610000000  0.4541710000000  0.4388080000000 1.0
C      1  0.4857050000000  0.5319110000000  0.6172900000000 1.0
C      1  0.4917960000000  0.5474760000000  0.4821950000000 1.0
C      1  0.5418380000000  0.4063430000000  0.5083180000000 1.0
C      1  0.5173470000000  0.5452240000000  0.5017840000000 1.0
C      1  0.4065480000000  0.5462000000000  0.4829500000000 1.0
C      1  0.5826020000000  0.5180470000000  0.5544590000000 1.0
C      1  0.4800070000000  0.3912710000000  0.5380270000000 1.0
C      1  0.5878780000000  0.4908820000000  0.5725440000000 1.0
C      1  0.4552240000000  0.4414880000000  0.4141840000000 1.0
C      1  0.5157060000000  0.4445650000000  0.5364630000000 1.0
C      1  0.5071930000000  0.4054910000000  0.5475530000000 1.0
C      1  0.4595720000000  0.4091210000000  0.4660570000000 1.0
C      1  0.5109740000000  0.5341410000000  0.4497720000000 1.0
C      1  0.4225260000000  0.4282290000000  0.5409510000000 1.0
C      1  0.5796900000000  0.4616720000000  0.5574510000000 1.0
C      1  0.4160200000000  0.5049870000000  0.4511230000000 1.0
C      1  0.5656340000000  0.4771830000000  0.5915290000000 1.0
C      1  0.3923640000000  0.4616990000000  0.5151900000000 1.0
C      1  0.5493780000000  0.4850540000000  0.4444480000000 1.0
C      1  0.5311940000000  0.4371310000000  0.5091850000000 1.0
C      1  0.5884240000000  0.5963940000000  0.4915930000000 1.0
C      1  0.5086460000000  0.4525490000000  0.4471240000000 1.0
C      1  0.5678560000000  0.4218390000000  0.5206220000000 1.0
C      1  0.4913680000000  0.4957790000000  0.5541990000000 1.0
C      1  0.5242460000000  0.5021520000000  0.3807100000000 1.0
C      1  0.4507260000000  0.4677770000000  0.4742460000000 1.0
C      1  0.4522220000000  0.5467960000000  0.4129120000000 1.0
C      1  0.4836160000000  0.5322200000000  0.3950000000000 1.0
C      1  0.3981310000000  0.4576610000000  0.4869560000000 1.0
C      1  0.5534030000000  0.4080360000000  0.5464090000000 1.0
C      1  0.4896760000000  0.6210330000000  0.4970880000000 1.0
C      1  0.4564610000000  0.6136500000000  0.4930210000000 1.0
C      1  0.4873020000000  0.4302990000000  0.5348560000000 1.0
C      1  0.5822380000000  0.4597090000000  0.4499930000000 1.0
C      1  0.5090800000000  0.5140830000000  0.6132730000000 1.0
C      1  0.5642460000000  0.5670490000000  0.4507570000000 1.0
C      1  0.6027210000000  0.5204010000000  0.4920240000000 1.0
C      1  0.5682980000000  0.4367140000000  0.4695150000000 1.0
C      1  0.4497700000000  0.4958450000000  0.5568930000000 1.0
C      1  0.4798710000000  0.4670290000000  0.5684170000000 1.0
C      1  0.4642050000000  0.4761080000000  0.5327230000000 1.0
C      1  0.4740870000000  0.4665850000000  0.4024710000000 1.0
C      1  0.4197450000000  0.4575120000000  0.5323770000000 1.0
C      1  0.5053900000000  0.3896930000000  0.4573290000000 1.0
C      1  0.4397030000000  0.5431820000000  0.5974390000000 1.0
C      1  0.4309440000000  0.4063850000000  0.5480650000000 1.0
C      1  0.4770970000000  0.5823810000000  0.5966090000000 1.0
C      1  0.5423380000000  0.5207560000000  0.3973360000000 1.0
C      1  0.5598600000000  0.4469800000000  0.5421710000000 1.0
C      1  0.5345240000000  0.4394150000000  0.4653610000000 1.0
C      1  0.4959160000000  0.4985780000000  0.4120200000000 1.0
C      1  0.4780340000000  0.3953960000000  0.5102890000000 1.0
C      1  0.4270680000000  0.5341750000000  0.4267580000000 1.0
C      1  0.4231250000000  0.5170650000000  0.5574930000000 1.0
C      1  0.5832680000000  0.5211080000000  0.4415740000000 1.0
C      1  0.5360870000000  0.4310740000000  0.5576240000000 1.0
C      1  0.5532380000000  0.4603550000000  0.5115900000000 1.0
C      1  0.5641460000000  0.5594400000000  0.4190430000000 1.0
C      1  0.5384850000000  0.6103610000000  0.4923700000000 1.0
C      1  0.4162230000000  0.4352500000000  0.4408480000000 1.0
C      1  0.4699130000000  0.5037470000000  0.5799690000000 1.0
C      1  0.5305670000000  0.5980750000000  0.5209360000000 1.0
C      1  0.4509620000000  0.4516360000000  0.5911470000000 1.0
C      1  0.5152220000000  0.4767250000000  0.5408420000000 1.0
C      1  0.5244690000000  0.4116610000000  0.4728630000000 1.0
C      1  0.5080890000000  0.3800120000000  0.4901890000000 1.0
C      1  0.4776250000000  0.4561970000000  0.4558020000000 1.0
C      1  0.5522910000000  0.5922720000000  0.4382520000000 1.0
C      1  0.5960960000000  0.4627010000000  0.4800450000000 1.0
C      1  0.5109250000000  0.4691990000000  0.4187760000000 1.0
C      1  0.4015140000000  0.5240550000000  0.5319960000000 1.0
C      1  0.4996650000000  0.6114720000000  0.5263940000000 1.0
C      1  0.5555660000000  0.5857690000000  0.5359470000000 1.0
C      1  0.5427210000000  0.4934260000000  0.6087440000000 1.0
C      1  0.4254040000000  0.5399970000000  0.5772730000000 1.0
C      1  0.5673870000000  0.5361080000000  0.5317100000000 1.0
C      1  0.4388390000000  0.5497860000000  0.5176000000000 1.0
C      1  0.4790180000000  0.4586000000000  0.6015310000000 1.0
C      1  0.4868020000000  0.5882490000000  0.4889540000000 1.0
C      1  0.5115110000000  0.5975920000000  0.5832330000000 1.0
C      1  0.4730890000000  0.4352470000000  0.4800820000000 1.0
C      1  0.5376880000000  0.5253910000000  0.5981290000000 1.0
C      1  0.4743500000000  0.4942030000000  0.3868360000000 1.0
C      1  0.4427110000000  0.5722110000000  0.4419360000000 1.0
C      1  0.4261690000000  0.4901180000000  0.4719590000000 1.0
C      1  0.4598540000000  0.5095540000000  0.4934660000000 1.0
C      1  0.4759900000000  0.6061660000000  0.5425520000000 1.0
C      1  0.5413880000000  0.4821130000000  0.5704640000000 1.0
C      1  0.5229320000000  0.5088270000000  0.5319450000000 1.0
C      1  0.4728790000000  0.6069830000000  0.4644530000000 1.0
C      1  0.5191680000000  0.4909030000000  0.4431920000000 1.0
C      1  0.4803760000000  0.5216810000000  0.4722480000000 1.0
C      1  0.4171850000000  0.4726130000000  0.4093940000000 1.0
C      1  0.5634010000000  0.5063700000000  0.4281270000000 1.0
C      1  0.5628260000000  0.4930860000000  0.4708950000000 1.0
C      1  0.4850870000000  0.5260990000000  0.4290040000000 1.0
C      1  0.4640710000000  0.5824610000000  0.4259820000000 1.0
C      1  0.4751660000000  0.6051950000000  0.4380390000000 1.0
C      1  0.4453810000000  0.5541790000000  0.4882540000000 1.0
C      1  0.5235730000000  0.4762450000000  0.6196900000000 1.0
C      1  0.5164760000000  0.5683960000000  0.4133010000000 1.0
C      1  0.5536760000000  0.5216120000000  0.4802640000000 1.0
C      1  0.5832290000000  0.4373000000000  0.4988750000000 1.0
C      1  0.4994850000000  0.4947570000000  0.4640480000000 1.0
C      1  0.4658510000000  0.4473760000000  0.5492980000000 1.0
C      1  0.5199150000000  0.3880040000000  0.5213080000000 1.0
C      1  0.4715090000000  0.5267680000000  0.5438970000000 1.0
C      1  0.4319510000000  0.4129490000000  0.4563740000000 1.0
C      1  0.4212360000000  0.4772680000000  0.5555210000000 1.0
C      1  0.5093520000000  0.5765870000000  0.5096010000000 1.0
C      1  0.3961340000000  0.4982670000000  0.5521460000000 1.0
C      1  0.4550410000000  0.3973670000000  0.4953860000000 1.0
C      1  0.4781280000000  0.4081750000000  0.5848380000000 1.0
C      1  0.5929170000000  0.5483130000000  0.4858040000000 1.0
C      1  0.4762290000000  0.4840090000000  0.4841270000000 1.0
C      1  0.4545450000000  0.4280540000000  0.5718840000000 1.0
C      1  0.5148040000000  0.6131890000000  0.4760300000000 1.0
C      1  0.4659530000000  0.4752070000000  0.4328320000000 1.0
C      1  0.5917130000000  0.5707170000000  0.5032560000000 1.0
C      1  0.5135120000000  0.4932880000000  0.4945930000000 1.0
C      1  0.5692030000000  0.5461850000000  0.4699280000000 1.0
END
