TITL C-2778423-5760-1211 -0.00168486899397226 125000 -1127.35425514026 0 0 194 (C1) n - 1
REM
REM in /home/nfs/bkarasulu/CARBON/AIRSS/Generating-Clusters/REBO/Only-C1/SD-CG/HFTN-CG
REM
REM
REM
REM
REM
REM ./C.cell (11c1c37f851c82e70ff6c80c92926a4b)
REM
REM compiler GCC version 9.2.1 20190827 (Red Hat 9.2.1-1)
REM options -cpp -mtune=generic -march=x86-64 -g -O0 -fpre-include=/usr/include/finclude/math-vector-fortran.h
REM seed 1677992762 324595863 -566816038 -37340192 287378235 2025645655 -1253727019 -615995192 -744439833 1918194879 -933716236 -268398314 -795061607 -1690941515 -2025587805 -1359272322 -448771058 -1301899343 -1774488494 -1536125482 253856514 -2096554643 1217716935 -1074247731 299009414 -866206717 1005049158 -2048809070 -1874510916 -821287027 -672954185 163625954 -570672117
REM
CELL 1.54180   50.00000   50.00000   50.00000   90.00000   90.00000   90.00000
LATT -1
SFAC C  
C      1  0.5227950000000  0.5147910000000  0.5128390000000 1.0
C      1  0.5688290000000  0.5559800000000  0.5683760000000 1.0
C      1  0.5154010000000  0.5608860000000  0.4843170000000 1.0
C      1  0.5533520000000  0.4912990000000  0.5739570000000 1.0
C      1  0.4950690000000  0.5833630000000  0.4183270000000 1.0
C      1  0.4993800000000  0.5364180000000  0.4076790000000 1.0
C      1  0.5210740000000  0.4795980000000  0.3912540000000 1.0
C      1  0.5698600000000  0.5082290000000  0.4062330000000 1.0
C      1  0.4165160000000  0.5803870000000  0.4916050000000 1.0
C      1  0.4216810000000  0.4959280000000  0.5618680000000 1.0
C      1  0.4336060000000  0.5508160000000  0.4925020000000 1.0
C      1  0.5779820000000  0.5329710000000  0.4496360000000 1.0
C      1  0.5220520000000  0.5698660000000  0.5979820000000 1.0
C      1  0.5604340000000  0.5404670000000  0.3996300000000 1.0
C      1  0.4529790000000  0.5497270000000  0.4670690000000 1.0
C      1  0.5146930000000  0.5987350000000  0.5671100000000 1.0
C      1  0.3981220000000  0.5105010000000  0.5141920000000 1.0
C      1  0.5005760000000  0.5060290000000  0.3846420000000 1.0
C      1  0.4010300000000  0.5510120000000  0.4990660000000 1.0
C      1  0.6192000000000  0.5244590000000  0.4994770000000 1.0
C      1  0.5984050000000  0.5264670000000  0.5735430000000 1.0
C      1  0.5143440000000  0.4483340000000  0.3883480000000 1.0
C      1  0.6020850000000  0.5475780000000  0.5479650000000 1.0
C      1  0.4434760000000  0.5318870000000  0.5612870000000 1.0
C      1  0.4924170000000  0.5035920000000  0.4359250000000 1.0
C      1  0.4664870000000  0.4830960000000  0.5151330000000 1.0
C      1  0.4722650000000  0.5242780000000  0.3905630000000 1.0
C      1  0.5014240000000  0.5418320000000  0.4404640000000 1.0
C      1  0.4529540000000  0.4969040000000  0.3967230000000 1.0
C      1  0.5819120000000  0.4921090000000  0.5053410000000 1.0
C      1  0.4609510000000  0.4313200000000  0.5801350000000 1.0
C      1  0.5454090000000  0.5590230000000  0.4202340000000 1.0
C      1  0.4427470000000  0.4636950000000  0.4924590000000 1.0
C      1  0.5085500000000  0.3864660000000  0.4939480000000 1.0
C      1  0.4346340000000  0.4501650000000  0.4181150000000 1.0
C      1  0.5362960000000  0.4236120000000  0.4262080000000 1.0
C      1  0.5643230000000  0.4425000000000  0.5006920000000 1.0
C      1  0.5331140000000  0.4509670000000  0.5036050000000 1.0
C      1  0.4655530000000  0.4159920000000  0.5498920000000 1.0
C      1  0.5578200000000  0.5560910000000  0.4791030000000 1.0
C      1  0.4820090000000  0.5074150000000  0.6118650000000 1.0
C      1  0.4197480000000  0.5589420000000  0.4469220000000 1.0
C      1  0.4818300000000  0.4972570000000  0.5394810000000 1.0
C      1  0.5854280000000  0.5273260000000  0.4787960000000 1.0
C      1  0.4873080000000  0.5439020000000  0.5410620000000 1.0
C      1  0.5283240000000  0.5088790000000  0.5579580000000 1.0
C      1  0.5335140000000  0.4852670000000  0.5044640000000 1.0
C      1  0.5394910000000  0.5553720000000  0.5531850000000 1.0
C      1  0.5403590000000  0.4492510000000  0.4087690000000 1.0
C      1  0.4406660000000  0.5008570000000  0.4343590000000 1.0
C      1  0.5949750000000  0.5367140000000  0.5195710000000 1.0
C      1  0.4261700000000  0.4622820000000  0.5605520000000 1.0
C      1  0.4333090000000  0.4855720000000  0.5918410000000 1.0
C      1  0.5621570000000  0.4139490000000  0.5064460000000 1.0
C      1  0.4591480000000  0.4754390000000  0.4471800000000 1.0
C      1  0.4083860000000  0.4656740000000  0.5355080000000 1.0
C      1  0.4863480000000  0.4579040000000  0.4913340000000 1.0
C      1  0.5440100000000  0.5716230000000  0.5828640000000 1.0
C      1  0.4336480000000  0.5907530000000  0.5258970000000 1.0
C      1  0.4771600000000  0.3865200000000  0.4908830000000 1.0
C      1  0.4367140000000  0.4575870000000  0.5223810000000 1.0
C      1  0.4721170000000  0.5639550000000  0.5862110000000 1.0
C      1  0.4198300000000  0.5106120000000  0.4668310000000 1.0
C      1  0.5196700000000  0.4418860000000  0.4738290000000 1.0
C      1  0.5031880000000  0.4184880000000  0.4553390000000 1.0
C      1  0.5534200000000  0.5199480000000  0.6016140000000 1.0
C      1  0.4730560000000  0.4585730000000  0.5382170000000 1.0
C      1  0.6137020000000  0.4733160000000  0.5201790000000 1.0
C      1  0.5646080000000  0.6056150000000  0.4857690000000 1.0
C      1  0.5174840000000  0.4743340000000  0.5747160000000 1.0
C      1  0.6180460000000  0.5008230000000  0.5239360000000 1.0
C      1  0.6008280000000  0.5529290000000  0.4922540000000 1.0
C      1  0.5981760000000  0.4841230000000  0.4570010000000 1.0
C      1  0.4950740000000  0.4280770000000  0.5602470000000 1.0
C      1  0.4405960000000  0.4892130000000  0.5349260000000 1.0
C      1  0.5301170000000  0.4968080000000  0.5973210000000 1.0
C      1  0.5768020000000  0.5677130000000  0.5372900000000 1.0
C      1  0.5243370000000  0.3948720000000  0.4413440000000 1.0
C      1  0.5430800000000  0.4250040000000  0.5494770000000 1.0
C      1  0.4821200000000  0.4897000000000  0.4071010000000 1.0
C      1  0.4878300000000  0.5882060000000  0.5119650000000 1.0
C      1  0.5162860000000  0.3878650000000  0.5255860000000 1.0
C      1  0.4783230000000  0.4303590000000  0.5025590000000 1.0
C      1  0.5701360000000  0.4361010000000  0.5396470000000 1.0
C      1  0.4455040000000  0.4272900000000  0.5290850000000 1.0
C      1  0.4992110000000  0.5192070000000  0.4625730000000 1.0
C      1  0.5219610000000  0.4329370000000  0.5252710000000 1.0
C      1  0.4813860000000  0.4888320000000  0.5659930000000 1.0
C      1  0.4855500000000  0.4350690000000  0.5981450000000 1.0
C      1  0.4591910000000  0.6002980000000  0.4668280000000 1.0
C      1  0.5600680000000  0.5119330000000  0.5476130000000 1.0
C      1  0.4583170000000  0.5870400000000  0.5408950000000 1.0
C      1  0.4432360000000  0.5475370000000  0.5910440000000 1.0
C      1  0.3955470000000  0.4642420000000  0.4903680000000 1.0
C      1  0.4907520000000  0.4298790000000  0.4019160000000 1.0
C      1  0.4555820000000  0.5263700000000  0.4446420000000 1.0
C      1  0.5891450000000  0.4551660000000  0.5185030000000 1.0
C      1  0.4894340000000  0.4588490000000  0.5741490000000 1.0
C      1  0.5649410000000  0.4800560000000  0.4597210000000 1.0
C      1  0.5737030000000  0.5311750000000  0.5876050000000 1.0
C      1  0.5022520000000  0.5526800000000  0.5878880000000 1.0
C      1  0.4884660000000  0.5089590000000  0.5844760000000 1.0
C      1  0.5053000000000  0.4754900000000  0.6067400000000 1.0
C      1  0.4722880000000  0.5397020000000  0.5648440000000 1.0
C      1  0.5855490000000  0.4602340000000  0.5579180000000 1.0
C      1  0.5510800000000  0.5047400000000  0.4413180000000 1.0
C      1  0.4051690000000  0.5217310000000  0.5593200000000 1.0
C      1  0.5256030000000  0.4858430000000  0.4489800000000 1.0
C      1  0.5528920000000  0.4809470000000  0.4033570000000 1.0
C      1  0.4537220000000  0.4378990000000  0.4803250000000 1.0
C      1  0.4755790000000  0.5304120000000  0.5018250000000 1.0
C      1  0.3987340000000  0.5399400000000  0.5312220000000 1.0
C      1  0.4665690000000  0.4331920000000  0.4490250000000 1.0
C      1  0.4748460000000  0.4072210000000  0.4658590000000 1.0
C      1  0.3907540000000  0.4839220000000  0.4693720000000 1.0
C      1  0.5730090000000  0.4359910000000  0.4609770000000 1.0
C      1  0.5082440000000  0.5677000000000  0.4526180000000 1.0
C      1  0.5562040000000  0.4659920000000  0.4330240000000 1.0
C      1  0.5021600000000  0.4673960000000  0.5227650000000 1.0
C      1  0.5846500000000  0.5048140000000  0.4352720000000 1.0
C      1  0.4718490000000  0.6086940000000  0.5037350000000 1.0
C      1  0.4050860000000  0.5402130000000  0.4667700000000 1.0
C      1  0.5180000000000  0.4047390000000  0.5530240000000 1.0
C      1  0.4298370000000  0.5164760000000  0.5241000000000 1.0
C      1  0.4103460000000  0.4390650000000  0.4905100000000 1.0
C      1  0.5171670000000  0.5650200000000  0.4124280000000 1.0
C      1  0.4719710000000  0.5636520000000  0.5242280000000 1.0
C      1  0.5392980000000  0.5200320000000  0.4146490000000 1.0
C      1  0.5290540000000  0.5847480000000  0.5483080000000 1.0
C      1  0.4690540000000  0.5139720000000  0.4740630000000 1.0
C      1  0.4624130000000  0.4380540000000  0.4188800000000 1.0
C      1  0.4766730000000  0.4787350000000  0.6182410000000 1.0
C      1  0.4079690000000  0.4929620000000  0.4413010000000 1.0
C      1  0.5372530000000  0.5385180000000  0.5277500000000 1.0
C      1  0.5616090000000  0.4625870000000  0.5760030000000 1.0
C      1  0.4465290000000  0.3989060000000  0.4826060000000 1.0
C      1  0.3936780000000  0.4786350000000  0.5161750000000 1.0
C      1  0.4630800000000  0.5713430000000  0.4187780000000 1.0
C      1  0.5184970000000  0.4752950000000  0.4758480000000 1.0
C      1  0.4825760000000  0.5535780000000  0.4797800000000 1.0
C      1  0.4870880000000  0.5863090000000  0.4720410000000 1.0
C      1  0.5672590000000  0.5933580000000  0.5170330000000 1.0
C      1  0.5049650000000  0.4131880000000  0.4214810000000 1.0
C      1  0.4531020000000  0.4527220000000  0.5589360000000 1.0
C      1  0.4721300000000  0.5980470000000  0.4370910000000 1.0
C      1  0.4500710000000  0.4729830000000  0.6092860000000 1.0
C      1  0.4821850000000  0.4585080000000  0.4615910000000 1.0
C      1  0.4227830000000  0.4445120000000  0.4444880000000 1.0
C      1  0.4948750000000  0.5194890000000  0.5240070000000 1.0
C      1  0.5269170000000  0.4776310000000  0.5430770000000 1.0
C      1  0.5706660000000  0.5192110000000  0.5179510000000 1.0
C      1  0.5353300000000  0.5918090000000  0.5216220000000 1.0
C      1  0.5320120000000  0.3967260000000  0.4722800000000 1.0
C      1  0.5184790000000  0.5973400000000  0.4658620000000 1.0
C      1  0.5557830000000  0.5559040000000  0.5132440000000 1.0
C      1  0.4300990000000  0.4176900000000  0.5053450000000 1.0
C      1  0.4660500000000  0.5887270000000  0.5671710000000 1.0
C      1  0.5196310000000  0.4974450000000  0.4180270000000 1.0
C      1  0.4356480000000  0.5791280000000  0.4647840000000 1.0
C      1  0.4488730000000  0.5399320000000  0.5156020000000 1.0
C      1  0.4337180000000  0.4776920000000  0.4101120000000 1.0
C      1  0.5821330000000  0.4881020000000  0.5394940000000 1.0
C      1  0.5924410000000  0.4511930000000  0.4590680000000 1.0
C      1  0.5426280000000  0.4412270000000  0.5766160000000 1.0
C      1  0.4272370000000  0.4219250000000  0.4661560000000 1.0
C      1  0.4674380000000  0.5401360000000  0.4198130000000 1.0
C      1  0.6035480000000  0.4999620000000  0.4830500000000 1.0
C      1  0.5810570000000  0.5768690000000  0.4905180000000 1.0
C      1  0.5414490000000  0.6083110000000  0.4725030000000 1.0
C      1  0.4153190000000  0.5699600000000  0.5324130000000 1.0
C      1  0.5150370000000  0.5834770000000  0.5040710000000 1.0
C      1  0.4873300000000  0.3925850000000  0.5436920000000 1.0
C      1  0.4973390000000  0.4226080000000  0.5199080000000 1.0
C      1  0.5214340000000  0.5288420000000  0.4834320000000 1.0
C      1  0.3922600000000  0.5141810000000  0.4847020000000 1.0
C      1  0.5403770000000  0.3965580000000  0.5033590000000 1.0
C      1  0.4404790000000  0.6040140000000  0.4953900000000 1.0
C      1  0.5168740000000  0.4332520000000  0.5865250000000 1.0
C      1  0.5085580000000  0.5269990000000  0.5757140000000 1.0
C      1  0.5540310000000  0.5239800000000  0.4898380000000 1.0
C      1  0.4444800000000  0.4946150000000  0.4786600000000 1.0
C      1  0.5438790000000  0.4252830000000  0.4577660000000 1.0
C      1  0.4852870000000  0.4602440000000  0.4121520000000 1.0
C      1  0.5569200000000  0.5549280000000  0.4463860000000 1.0
C      1  0.5618790000000  0.4748930000000  0.4903150000000 1.0
C      1  0.4979360000000  0.4709670000000  0.4385950000000 1.0
C      1  0.4323970000000  0.5592600000000  0.4218630000000 1.0
C      1  0.4273930000000  0.4722350000000  0.4585860000000 1.0
C      1  0.4782990000000  0.3772470000000  0.5192180000000 1.0
C      1  0.6127620000000  0.5147330000000  0.5477800000000 1.0
C      1  0.4948570000000  0.4885530000000  0.4969130000000 1.0
C      1  0.4118370000000  0.5403100000000  0.5839530000000 1.0
C      1  0.5569790000000  0.4666620000000  0.5315860000000 1.0
C      1  0.4225940000000  0.5572510000000  0.5581570000000 1.0
END
