TITL C-2778436-5916-1086 -0.00626968026904759 125000 -1105.40477568166 0 0 188 (C1) n - 1
REM
REM in /home/nfs/bkarasulu/CARBON/AIRSS/Generating-Clusters/REBO/Only-C1/SD-CG/HFTN-CG
REM
REM
REM
REM
REM
REM ./C.cell (11c1c37f851c82e70ff6c80c92926a4b)
REM
REM compiler GCC version 9.2.1 20190827 (Red Hat 9.2.1-1)
REM options -cpp -mtune=generic -march=x86-64 -g -O0 -fpre-include=/usr/include/finclude/math-vector-fortran.h
REM seed -1198828702 931959187 -869724469 1898780509 1640397741 -830898629 1093266929 1402186592 1062579722 -789228901 894475006 1794882431 49479972 515515766 723362046 -784368048 -1293282481 -2115508825 1620139752 2119543402 1229010558 1323755473 -96336171 -281686533 -1622563230 -755102497 749774130 1161577476 1659847138 -1132886067 -1711217481 -1992999174 265707730
REM
CELL 1.54180   50.00000   50.00000   50.00000   90.00000   90.00000   90.00000
LATT -1
SFAC C  
C      1  0.5492800000000  0.5591810000000  0.5051270000000 1.0
C      1  0.4589270000000  0.5786320000000  0.4844130000000 1.0
C      1  0.4674520000000  0.5588840000000  0.5264380000000 1.0
C      1  0.5782810000000  0.5195620000000  0.5188410000000 1.0
C      1  0.4226040000000  0.5083910000000  0.5449100000000 1.0
C      1  0.4191670000000  0.4667050000000  0.4380980000000 1.0
C      1  0.4243610000000  0.4636510000000  0.4776320000000 1.0
C      1  0.5399990000000  0.5138940000000  0.5415020000000 1.0
C      1  0.5748090000000  0.4960740000000  0.4991010000000 1.0
C      1  0.5260890000000  0.4866820000000  0.4910810000000 1.0
C      1  0.4154940000000  0.5675780000000  0.5235300000000 1.0
C      1  0.5409590000000  0.4194490000000  0.5772440000000 1.0
C      1  0.5571330000000  0.5440880000000  0.5974960000000 1.0
C      1  0.5656050000000  0.4936980000000  0.5478260000000 1.0
C      1  0.5302190000000  0.4035830000000  0.4808090000000 1.0
C      1  0.5526750000000  0.4180020000000  0.4714090000000 1.0
C      1  0.5962330000000  0.4501110000000  0.4739990000000 1.0
C      1  0.6109660000000  0.4971110000000  0.5205510000000 1.0
C      1  0.4083080000000  0.5321380000000  0.4208380000000 1.0
C      1  0.4267930000000  0.5584880000000  0.5531730000000 1.0
C      1  0.5704240000000  0.5020930000000  0.4323100000000 1.0
C      1  0.4643070000000  0.5290100000000  0.4362980000000 1.0
C      1  0.4548630000000  0.4331920000000  0.5802100000000 1.0
C      1  0.5368520000000  0.5214870000000  0.5920240000000 1.0
C      1  0.4489260000000  0.5286070000000  0.5877110000000 1.0
C      1  0.5059900000000  0.4367200000000  0.4874370000000 1.0
C      1  0.4971010000000  0.5122050000000  0.6165040000000 1.0
C      1  0.5315150000000  0.4011580000000  0.5549500000000 1.0
C      1  0.4763720000000  0.5434590000000  0.5618950000000 1.0
C      1  0.4484490000000  0.4795290000000  0.5805750000000 1.0
C      1  0.5495170000000  0.5823280000000  0.5445330000000 1.0
C      1  0.3918230000000  0.4487250000000  0.5237990000000 1.0
C      1  0.4598470000000  0.4907840000000  0.5155640000000 1.0
C      1  0.4277730000000  0.4953130000000  0.4440740000000 1.0
C      1  0.4367140000000  0.5051870000000  0.5752710000000 1.0
C      1  0.5459190000000  0.4344990000000  0.4479240000000 1.0
C      1  0.5279270000000  0.5847570000000  0.5072380000000 1.0
C      1  0.5035880000000  0.4594900000000  0.5993420000000 1.0
C      1  0.5881510000000  0.4284080000000  0.5402260000000 1.0
C      1  0.4248620000000  0.5104890000000  0.4171700000000 1.0
C      1  0.4373100000000  0.4195100000000  0.5253680000000 1.0
C      1  0.4735180000000  0.5587730000000  0.4643870000000 1.0
C      1  0.4432630000000  0.5549030000000  0.5124060000000 1.0
C      1  0.5966890000000  0.5671580000000  0.5030780000000 1.0
C      1  0.5791260000000  0.4931810000000  0.5780690000000 1.0
C      1  0.5309070000000  0.6267100000000  0.5343310000000 1.0
C      1  0.4733970000000  0.3851860000000  0.5348310000000 1.0
C      1  0.5494300000000  0.5354150000000  0.4092260000000 1.0
C      1  0.5115930000000  0.6040820000000  0.4601190000000 1.0
C      1  0.4572560000000  0.5030170000000  0.4568910000000 1.0
C      1  0.5189670000000  0.5577420000000  0.4793570000000 1.0
C      1  0.5906810000000  0.5341880000000  0.4441600000000 1.0
C      1  0.5354700000000  0.4822560000000  0.5511290000000 1.0
C      1  0.5621440000000  0.4664450000000  0.4864010000000 1.0
C      1  0.5577530000000  0.5828310000000  0.4261320000000 1.0
C      1  0.4841560000000  0.4167620000000  0.4396750000000 1.0
C      1  0.5422010000000  0.5712250000000  0.5929240000000 1.0
C      1  0.5737670000000  0.5327520000000  0.5506140000000 1.0
C      1  0.3947960000000  0.4786350000000  0.5371260000000 1.0
C      1  0.5270120000000  0.5111450000000  0.4165390000000 1.0
C      1  0.5269270000000  0.4005000000000  0.5082700000000 1.0
C      1  0.3931110000000  0.5253550000000  0.5077500000000 1.0
C      1  0.4755930000000  0.4006660000000  0.3940210000000 1.0
C      1  0.3973530000000  0.4543430000000  0.4610910000000 1.0
C      1  0.4983120000000  0.4101890000000  0.5161960000000 1.0
C      1  0.4238390000000  0.5627550000000  0.4410800000000 1.0
C      1  0.4799050000000  0.5842900000000  0.5266900000000 1.0
C      1  0.4639920000000  0.4232160000000  0.4662620000000 1.0
C      1  0.5717210000000  0.4338350000000  0.4912840000000 1.0
C      1  0.5962560000000  0.5006870000000  0.4504650000000 1.0
C      1  0.4925150000000  0.5354490000000  0.3902650000000 1.0
C      1  0.4787420000000  0.5787040000000  0.5766490000000 1.0
C      1  0.4975640000000  0.5908750000000  0.5509160000000 1.0
C      1  0.5750160000000  0.5804960000000  0.5268000000000 1.0
C      1  0.4723290000000  0.5268750000000  0.4761480000000 1.0
C      1  0.5901490000000  0.4711930000000  0.5142060000000 1.0
C      1  0.5892250000000  0.5504980000000  0.5296830000000 1.0
C      1  0.4613490000000  0.4388520000000  0.5293070000000 1.0
C      1  0.4503110000000  0.5600280000000  0.5761330000000 1.0
C      1  0.4791580000000  0.4074790000000  0.4919010000000 1.0
C      1  0.4924830000000  0.5082600000000  0.5532630000000 1.0
C      1  0.4959830000000  0.5645060000000  0.4404170000000 1.0
C      1  0.4134810000000  0.4257550000000  0.4710210000000 1.0
C      1  0.5452670000000  0.4048560000000  0.5291560000000 1.0
C      1  0.4914390000000  0.4896910000000  0.4154310000000 1.0
C      1  0.5969750000000  0.5223570000000  0.4758150000000 1.0
C      1  0.4884480000000  0.5203020000000  0.4206000000000 1.0
C      1  0.5517510000000  0.5382700000000  0.5237830000000 1.0
C      1  0.5104850000000  0.5030280000000  0.5098440000000 1.0
C      1  0.4425330000000  0.5358170000000  0.4898980000000 1.0
C      1  0.6008380000000  0.4712600000000  0.4616530000000 1.0
C      1  0.4111070000000  0.5679400000000  0.4925360000000 1.0
C      1  0.4927370000000  0.4641520000000  0.5348510000000 1.0
C      1  0.4848990000000  0.4320220000000  0.5966180000000 1.0
C      1  0.4399910000000  0.4101810000000  0.4866480000000 1.0
C      1  0.4179910000000  0.5151370000000  0.4662370000000 1.0
C      1  0.5624580000000  0.5909260000000  0.4584000000000 1.0
C      1  0.4846990000000  0.5329480000000  0.5304300000000 1.0
C      1  0.5229250000000  0.4785540000000  0.4111100000000 1.0
C      1  0.5053720000000  0.5296720000000  0.4699830000000 1.0
C      1  0.5254420000000  0.4396210000000  0.5463880000000 1.0
C      1  0.3943030000000  0.4795380000000  0.4840320000000 1.0
C      1  0.5826570000000  0.5517160000000  0.4790240000000 1.0
C      1  0.5507550000000  0.5037360000000  0.4794400000000 1.0
C      1  0.4140630000000  0.4568060000000  0.5553500000000 1.0
C      1  0.4370780000000  0.4192820000000  0.4228860000000 1.0
C      1  0.5690200000000  0.4197350000000  0.5210000000000 1.0
C      1  0.5982250000000  0.4533680000000  0.5411810000000 1.0
C      1  0.4476860000000  0.5862450000000  0.4471920000000 1.0
C      1  0.4196370000000  0.4634590000000  0.5100660000000 1.0
C      1  0.5462370000000  0.5615460000000  0.5632370000000 1.0
C      1  0.4974060000000  0.4775800000000  0.4434720000000 1.0
C      1  0.4788230000000  0.5913580000000  0.4994350000000 1.0
C      1  0.5496290000000  0.4663850000000  0.4578600000000 1.0
C      1  0.4366810000000  0.4547920000000  0.5736380000000 1.0
C      1  0.4679950000000  0.4180800000000  0.4144310000000 1.0
C      1  0.3973480000000  0.5437810000000  0.4849470000000 1.0
C      1  0.5283480000000  0.5900980000000  0.4378040000000 1.0
C      1  0.5520020000000  0.4725220000000  0.5792260000000 1.0
C      1  0.5655690000000  0.5882600000000  0.4963250000000 1.0
C      1  0.4388240000000  0.4919800000000  0.3994130000000 1.0
C      1  0.4847430000000  0.5590320000000  0.4115370000000 1.0
C      1  0.5315470000000  0.5325690000000  0.5635290000000 1.0
C      1  0.5278740000000  0.6008000000000  0.5437280000000 1.0
C      1  0.6219590000000  0.5449100000000  0.5079650000000 1.0
C      1  0.5079730000000  0.5527090000000  0.5559260000000 1.0
C      1  0.4597460000000  0.4475220000000  0.4060130000000 1.0
C      1  0.4301410000000  0.5806630000000  0.4762560000000 1.0
C      1  0.5977410000000  0.4861310000000  0.5501380000000 1.0
C      1  0.5143920000000  0.4300810000000  0.4359600000000 1.0
C      1  0.4201940000000  0.4322170000000  0.5017870000000 1.0
C      1  0.4469960000000  0.5322360000000  0.5480140000000 1.0
C      1  0.5365090000000  0.4601330000000  0.5054370000000 1.0
C      1  0.5134970000000  0.5343750000000  0.5029890000000 1.0
C      1  0.5529670000000  0.4464500000000  0.5489280000000 1.0
C      1  0.5619310000000  0.4588270000000  0.5254840000000 1.0
C      1  0.5506360000000  0.5611520000000  0.4710670000000 1.0
C      1  0.5133720000000  0.5263820000000  0.4409630000000 1.0
C      1  0.5487970000000  0.5054230000000  0.4495270000000 1.0
C      1  0.4620980000000  0.5036640000000  0.5444340000000 1.0
C      1  0.4819710000000  0.4580490000000  0.4859010000000 1.0
C      1  0.4759660000000  0.4070600000000  0.5760880000000 1.0
C      1  0.5740430000000  0.5252150000000  0.5789130000000 1.0
C      1  0.4709120000000  0.4767320000000  0.4606640000000 1.0
C      1  0.4884490000000  0.4523300000000  0.5626370000000 1.0
C      1  0.5394540000000  0.6027630000000  0.4800260000000 1.0
C      1  0.5693630000000  0.5518680000000  0.4239140000000 1.0
C      1  0.4857030000000  0.4255490000000  0.5424440000000 1.0
C      1  0.4797350000000  0.5131160000000  0.5055780000000 1.0
C      1  0.4397720000000  0.5388770000000  0.4564170000000 1.0
C      1  0.5180540000000  0.5492270000000  0.4086290000000 1.0
C      1  0.3910070000000  0.4955930000000  0.5083210000000 1.0
C      1  0.4785110000000  0.4744460000000  0.5835340000000 1.0
C      1  0.5235530000000  0.5024940000000  0.6071370000000 1.0
C      1  0.5101610000000  0.4297700000000  0.5738580000000 1.0
C      1  0.5123260000000  0.5120310000000  0.3896910000000 1.0
C      1  0.4547680000000  0.5601490000000  0.4263420000000 1.0
C      1  0.4572240000000  0.3968840000000  0.5133020000000 1.0
C      1  0.5013980000000  0.4094260000000  0.4674290000000 1.0
C      1  0.5224690000000  0.4868370000000  0.4572310000000 1.0
C      1  0.5127580000000  0.5768610000000  0.5786050000000 1.0
C      1  0.5274060000000  0.4755450000000  0.5993320000000 1.0
C      1  0.4078300000000  0.5362420000000  0.5349540000000 1.0
C      1  0.5171720000000  0.4381950000000  0.5171330000000 1.0
C      1  0.4717480000000  0.5214660000000  0.6013240000000 1.0
C      1  0.5092220000000  0.4888960000000  0.5369240000000 1.0
C      1  0.4498530000000  0.4531900000000  0.4629530000000 1.0
C      1  0.4288470000000  0.4905280000000  0.5200810000000 1.0
C      1  0.5041110000000  0.5858890000000  0.4855210000000 1.0
C      1  0.5478330000000  0.4875010000000  0.3920470000000 1.0
C      1  0.4807490000000  0.5912280000000  0.4535350000000 1.0
C      1  0.5843340000000  0.5669930000000  0.4505220000000 1.0
C      1  0.5644120000000  0.5063610000000  0.4038220000000 1.0
C      1  0.5281670000000  0.5570180000000  0.4404500000000 1.0
C      1  0.5146590000000  0.5588860000000  0.5250130000000 1.0
C      1  0.4002900000000  0.5409150000000  0.4526330000000 1.0
C      1  0.4679490000000  0.4774370000000  0.4013210000000 1.0
C      1  0.6142270000000  0.5184690000000  0.5014160000000 1.0
C      1  0.4991050000000  0.3969640000000  0.5538950000000 1.0
C      1  0.4711600000000  0.4635630000000  0.5123470000000 1.0
C      1  0.4915650000000  0.5024850000000  0.5831300000000 1.0
C      1  0.4279680000000  0.4355030000000  0.4438280000000 1.0
C      1  0.4106000000000  0.4292520000000  0.5403060000000 1.0
C      1  0.5615040000000  0.4413440000000  0.5778530000000 1.0
C      1  0.4269570000000  0.5085040000000  0.4954370000000 1.0
C      1  0.4325370000000  0.4622190000000  0.4093430000000 1.0
C      1  0.4993520000000  0.4490070000000  0.4574490000000 1.0
C      1  0.5310650000000  0.4587790000000  0.4300910000000 1.0
END
