TITL C-2778422-5617-96 0.000496208269320217 125000 -843.62740839732 0 0 145 (C1) n - 1
REM
REM in /home/nfs/bkarasulu/CARBON/AIRSS/Generating-Clusters/REBO/Only-C1/SD-CG/HFTN-CG
REM
REM
REM
REM
REM
REM ./C.cell (11c1c37f851c82e70ff6c80c92926a4b)
REM
REM compiler GCC version 9.2.1 20190827 (Red Hat 9.2.1-1)
REM options -cpp -mtune=generic -march=x86-64 -g -O0 -fpre-include=/usr/include/finclude/math-vector-fortran.h
REM seed -1192677384 -1660812670 -342160081 1170394197 -1283282926 1747039065 179995672 -1646213963 566449392 -2006435455 1392255845 -170626318 -218899927 -207863759 74881725 -571145587 1901773884 -1545725979 -127398891 -779718075 684431913 -608814962 -1991567660 -1007625237 -983005605 -248689503 -309470179 1651879033 -859525682 -590153256 1826520614 -1645403408 -1256960527
REM
CELL 1.54180   50.00000   50.00000   50.00000   90.00000   90.00000   90.00000
LATT -1
SFAC C  
C      1  0.4801480000000  0.4323030000000  0.5265650000000 1.0
C      1  0.4554370000000  0.4599440000000  0.4905420000000 1.0
C      1  0.5544820000000  0.4107740000000  0.5326560000000 1.0
C      1  0.5097710000000  0.4105160000000  0.4544790000000 1.0
C      1  0.4554040000000  0.4499350000000  0.5662560000000 1.0
C      1  0.5373650000000  0.5304360000000  0.5885970000000 1.0
C      1  0.5266110000000  0.5178630000000  0.5609420000000 1.0
C      1  0.5269200000000  0.4996560000000  0.5965410000000 1.0
C      1  0.5364450000000  0.4428040000000  0.5480560000000 1.0
C      1  0.4680220000000  0.5268420000000  0.5721750000000 1.0
C      1  0.4602110000000  0.5709210000000  0.4132200000000 1.0
C      1  0.4237520000000  0.4541300000000  0.4482740000000 1.0
C      1  0.5916070000000  0.4694590000000  0.4951700000000 1.0
C      1  0.4558250000000  0.5598520000000  0.4438700000000 1.0
C      1  0.5642850000000  0.5050600000000  0.4502430000000 1.0
C      1  0.5857740000000  0.4655780000000  0.5534740000000 1.0
C      1  0.5265450000000  0.5407830000000  0.4194080000000 1.0
C      1  0.4871890000000  0.5857240000000  0.4681240000000 1.0
C      1  0.5057280000000  0.4628640000000  0.5254080000000 1.0
C      1  0.4968970000000  0.4317530000000  0.5760980000000 1.0
C      1  0.4738320000000  0.5340060000000  0.4199090000000 1.0
C      1  0.4120550000000  0.4726140000000  0.5172490000000 1.0
C      1  0.4409920000000  0.5820610000000  0.5290790000000 1.0
C      1  0.5060740000000  0.4114810000000  0.5043560000000 1.0
C      1  0.4415890000000  0.4853940000000  0.5179450000000 1.0
C      1  0.4514840000000  0.4732650000000  0.4433150000000 1.0
C      1  0.4879200000000  0.4974070000000  0.4880120000000 1.0
C      1  0.5451710000000  0.4490330000000  0.5016930000000 1.0
C      1  0.4050350000000  0.4704270000000  0.4901010000000 1.0
C      1  0.4798380000000  0.4107970000000  0.4823790000000 1.0
C      1  0.5479710000000  0.4432210000000  0.4576640000000 1.0
C      1  0.5753200000000  0.4414930000000  0.4975990000000 1.0
C      1  0.5078220000000  0.5501000000000  0.5466390000000 1.0
C      1  0.4896620000000  0.5694040000000  0.5669450000000 1.0
C      1  0.5626660000000  0.4242110000000  0.4757380000000 1.0
C      1  0.5479400000000  0.4784850000000  0.4230080000000 1.0
C      1  0.5546300000000  0.5526700000000  0.4340570000000 1.0
C      1  0.4611890000000  0.5561980000000  0.5670630000000 1.0
C      1  0.4554910000000  0.4558790000000  0.4153540000000 1.0
C      1  0.4369770000000  0.5125890000000  0.5303380000000 1.0
C      1  0.5821870000000  0.4796960000000  0.4643310000000 1.0
C      1  0.4301190000000  0.5159140000000  0.4344860000000 1.0
C      1  0.5595740000000  0.4898750000000  0.5076820000000 1.0
C      1  0.4645980000000  0.5287760000000  0.4517870000000 1.0
C      1  0.5008600000000  0.4558740000000  0.5895100000000 1.0
C      1  0.4862590000000  0.5744060000000  0.4432800000000 1.0
C      1  0.5515590000000  0.5826220000000  0.4516080000000 1.0
C      1  0.4458590000000  0.4517180000000  0.5202600000000 1.0
C      1  0.4743250000000  0.4021060000000  0.5416830000000 1.0
C      1  0.4204500000000  0.4202650000000  0.4862000000000 1.0
C      1  0.5578420000000  0.5238880000000  0.5043490000000 1.0
C      1  0.4866340000000  0.5445350000000  0.5243460000000 1.0
C      1  0.4266230000000  0.5380120000000  0.4602310000000 1.0
C      1  0.4599700000000  0.5281370000000  0.5159500000000 1.0
C      1  0.4972580000000  0.4915360000000  0.4568940000000 1.0
C      1  0.5906540000000  0.4526760000000  0.5251870000000 1.0
C      1  0.5497940000000  0.5722650000000  0.5504440000000 1.0
C      1  0.4493520000000  0.4184090000000  0.5271700000000 1.0
C      1  0.5155230000000  0.6063940000000  0.5475330000000 1.0
C      1  0.4101990000000  0.5249190000000  0.4872600000000 1.0
C      1  0.4502580000000  0.4062900000000  0.4909520000000 1.0
C      1  0.5106290000000  0.5707930000000  0.4217500000000 1.0
C      1  0.4685690000000  0.4863120000000  0.4096470000000 1.0
C      1  0.4587690000000  0.4930570000000  0.4912760000000 1.0
C      1  0.4703590000000  0.5980800000000  0.5293990000000 1.0
C      1  0.4503840000000  0.4336750000000  0.4407070000000 1.0
C      1  0.5209550000000  0.4008080000000  0.4789550000000 1.0
C      1  0.4984190000000  0.4429810000000  0.4344300000000 1.0
C      1  0.5632600000000  0.5519750000000  0.5317160000000 1.0
C      1  0.4984420000000  0.5282020000000  0.4082130000000 1.0
C      1  0.4332120000000  0.4718990000000  0.5652490000000 1.0
C      1  0.5749990000000  0.4491080000000  0.5740410000000 1.0
C      1  0.4793740000000  0.4233730000000  0.4513660000000 1.0
C      1  0.6112600000000  0.5262840000000  0.5066120000000 1.0
C      1  0.4732090000000  0.4691660000000  0.4628920000000 1.0
C      1  0.5639500000000  0.4656570000000  0.4453150000000 1.0
C      1  0.5218530000000  0.4156870000000  0.5335620000000 1.0
C      1  0.4481890000000  0.4349920000000  0.4733740000000 1.0
C      1  0.5319750000000  0.5918880000000  0.4316650000000 1.0
C      1  0.4223860000000  0.5396370000000  0.5438790000000 1.0
C      1  0.4495590000000  0.4981220000000  0.5717480000000 1.0
C      1  0.4902710000000  0.5969860000000  0.5530450000000 1.0
C      1  0.5738860000000  0.4911900000000  0.5549560000000 1.0
C      1  0.5722340000000  0.5551780000000  0.4999290000000 1.0
C      1  0.5474760000000  0.4953330000000  0.4763790000000 1.0
C      1  0.4224560000000  0.4882280000000  0.4456690000000 1.0
C      1  0.4118210000000  0.4627380000000  0.5443630000000 1.0
C      1  0.5357190000000  0.5375130000000  0.5354880000000 1.0
C      1  0.5760740000000  0.4228670000000  0.5327110000000 1.0
C      1  0.5390160000000  0.5106420000000  0.4295440000000 1.0
C      1  0.5006040000000  0.5208910000000  0.5070590000000 1.0
C      1  0.5368920000000  0.5885720000000  0.5063840000000 1.0
C      1  0.5401640000000  0.5612500000000  0.5746520000000 1.0
C      1  0.4526970000000  0.5130100000000  0.4171020000000 1.0
C      1  0.5891640000000  0.5327080000000  0.4815740000000 1.0
C      1  0.4691160000000  0.5055490000000  0.5976590000000 1.0
C      1  0.5898110000000  0.5018250000000  0.4965890000000 1.0
C      1  0.4067910000000  0.5242000000000  0.5198410000000 1.0
C      1  0.5464600000000  0.4494010000000  0.5743110000000 1.0
C      1  0.4649120000000  0.5701000000000  0.4832990000000 1.0
C      1  0.4943670000000  0.4748440000000  0.4289180000000 1.0
C      1  0.4994570000000  0.4543930000000  0.4735830000000 1.0
C      1  0.5438560000000  0.4934240000000  0.5488930000000 1.0
C      1  0.5195410000000  0.4835140000000  0.4069380000000 1.0
C      1  0.4673720000000  0.4836030000000  0.5483760000000 1.0
C      1  0.4867250000000  0.5992670000000  0.4994440000000 1.0
C      1  0.5097670000000  0.5512550000000  0.5864000000000 1.0
C      1  0.4834690000000  0.5025120000000  0.5360440000000 1.0
C      1  0.4965600000000  0.5011630000000  0.3991360000000 1.0
C      1  0.4947570000000  0.5220980000000  0.5566970000000 1.0
C      1  0.4308850000000  0.5730560000000  0.5033690000000 1.0
C      1  0.4313550000000  0.4363320000000  0.5475240000000 1.0
C      1  0.4390120000000  0.5618990000000  0.5500450000000 1.0
C      1  0.4997110000000  0.5206350000000  0.5963420000000 1.0
C      1  0.4436650000000  0.5102830000000  0.4713500000000 1.0
C      1  0.4994870000000  0.4125370000000  0.5553780000000 1.0
C      1  0.4961310000000  0.4420980000000  0.5009460000000 1.0
C      1  0.5378290000000  0.5933510000000  0.5352280000000 1.0
C      1  0.4956740000000  0.4861920000000  0.5992150000000 1.0
C      1  0.5256030000000  0.4532790000000  0.4164170000000 1.0
C      1  0.4100870000000  0.4468130000000  0.4748790000000 1.0
C      1  0.4122600000000  0.4954820000000  0.4746110000000 1.0
C      1  0.4352110000000  0.5426030000000  0.4992540000000 1.0
C      1  0.5290120000000  0.4670440000000  0.5889300000000 1.0
C      1  0.5292890000000  0.4299430000000  0.4385990000000 1.0
C      1  0.5307280000000  0.4657470000000  0.4771940000000 1.0
C      1  0.4714190000000  0.5395840000000  0.4877980000000 1.0
C      1  0.4754960000000  0.5697070000000  0.5135420000000 1.0
C      1  0.5099350000000  0.5493550000000  0.4909220000000 1.0
C      1  0.5318040000000  0.5245310000000  0.4828710000000 1.0
C      1  0.5268350000000  0.5071060000000  0.5225330000000 1.0
C      1  0.5510270000000  0.5532380000000  0.4664650000000 1.0
C      1  0.5115750000000  0.5778140000000  0.4984740000000 1.0
C      1  0.5890230000000  0.5129520000000  0.5514180000000 1.0
C      1  0.5134500000000  0.4838380000000  0.5015440000000 1.0
C      1  0.4834520000000  0.5739010000000  0.4034780000000 1.0
C      1  0.5191270000000  0.5131390000000  0.4538160000000 1.0
C      1  0.5848280000000  0.5282700000000  0.5261090000000 1.0
C      1  0.4354920000000  0.5689000000000  0.4694590000000 1.0
C      1  0.5741940000000  0.5329890000000  0.4542660000000 1.0
C      1  0.5399640000000  0.4687500000000  0.5269940000000 1.0
C      1  0.5574590000000  0.5796950000000  0.4853920000000 1.0
C      1  0.4813490000000  0.4555560000000  0.5479680000000 1.0
C      1  0.4951060000000  0.5303930000000  0.4668010000000 1.0
C      1  0.5493650000000  0.4007850000000  0.4804010000000 1.0
END
