TITL C-2778425-5191-959 0.00196963533616209 125000 -409.895460798393 0 0 72 (C1) n - 1
REM
REM in /home/nfs/bkarasulu/CARBON/AIRSS/Generating-Clusters/REBO/Only-C1/SD-CG/HFTN-CG
REM
REM
REM
REM
REM
REM ./C.cell (11c1c37f851c82e70ff6c80c92926a4b)
REM
REM compiler GCC version 9.2.1 20190827 (Red Hat 9.2.1-1)
REM options -cpp -mtune=generic -march=x86-64 -g -O0 -fpre-include=/usr/include/finclude/math-vector-fortran.h
REM seed -640234537 171992692 2083638423 -815727451 -830282389 1474277007 -162528452 -1263148430 -1359247793 -1973155229 1460757569 1309772581 -115011270 1228582900 -653571566 -656320019 31345754 -1229454251 -1975888022 1501374279 -1466338657 2083431432 -717404674 -1117865410 184045465 -1544491776 -1384782731 1771002304 1428679703 697988865 668972128 -293366632 243471135
REM
CELL 1.54180   50.00000   50.00000   50.00000   90.00000   90.00000   90.00000
LATT -1
SFAC C  
C      1  0.4246350000000  0.5148110000000  0.5406980000000 1.0
C      1  0.5098700000000  0.4774880000000  0.4755320000000 1.0
C      1  0.4683770000000  0.5306570000000  0.4373510000000 1.0
C      1  0.5776800000000  0.5285290000000  0.5129180000000 1.0
C      1  0.5129480000000  0.5516560000000  0.4224980000000 1.0
C      1  0.5020460000000  0.4240980000000  0.4597910000000 1.0
C      1  0.4547610000000  0.5385000000000  0.5294560000000 1.0
C      1  0.5080290000000  0.5289650000000  0.4629900000000 1.0
C      1  0.5552570000000  0.4647870000000  0.4983910000000 1.0
C      1  0.5483980000000  0.5129200000000  0.5072420000000 1.0
C      1  0.4797380000000  0.4363540000000  0.5294890000000 1.0
C      1  0.4581770000000  0.5504310000000  0.4826070000000 1.0
C      1  0.5413010000000  0.4901590000000  0.5315400000000 1.0
C      1  0.5237390000000  0.4496260000000  0.4381150000000 1.0
C      1  0.5298240000000  0.4771550000000  0.4335500000000 1.0
C      1  0.4760490000000  0.5317070000000  0.4672700000000 1.0
C      1  0.4887440000000  0.5003520000000  0.5220090000000 1.0
C      1  0.5390950000000  0.5210080000000  0.5585130000000 1.0
C      1  0.5097050000000  0.5360330000000  0.5667020000000 1.0
C      1  0.5461580000000  0.4928900000000  0.4541480000000 1.0
C      1  0.5048450000000  0.5517370000000  0.5192920000000 1.0
C      1  0.5728300000000  0.4757140000000  0.5118020000000 1.0
C      1  0.4725030000000  0.4886140000000  0.4158480000000 1.0
C      1  0.5243830000000  0.5542360000000  0.5423710000000 1.0
C      1  0.4793690000000  0.4499170000000  0.5597700000000 1.0
C      1  0.4290230000000  0.5124600000000  0.5127710000000 1.0
C      1  0.5271760000000  0.5406720000000  0.4445940000000 1.0
C      1  0.5250210000000  0.4665120000000  0.5394630000000 1.0
C      1  0.5133170000000  0.4414060000000  0.5083940000000 1.0
C      1  0.5297650000000  0.4359210000000  0.4642760000000 1.0
C      1  0.5275970000000  0.4549480000000  0.4880350000000 1.0
C      1  0.4936300000000  0.5761760000000  0.5044770000000 1.0
C      1  0.5238700000000  0.5050950000000  0.4767660000000 1.0
C      1  0.4347090000000  0.4866170000000  0.5006730000000 1.0
C      1  0.4907000000000  0.5122760000000  0.5804230000000 1.0
C      1  0.5503180000000  0.5371810000000  0.5315290000000 1.0
C      1  0.5685670000000  0.4785470000000  0.4632950000000 1.0
C      1  0.5180170000000  0.5137280000000  0.5328350000000 1.0
C      1  0.5311260000000  0.5826170000000  0.5510230000000 1.0
C      1  0.4906690000000  0.4423770000000  0.4355290000000 1.0
C      1  0.4822880000000  0.5314470000000  0.5271090000000 1.0
C      1  0.4858860000000  0.4188250000000  0.4821840000000 1.0
C      1  0.5509590000000  0.5253280000000  0.4554560000000 1.0
C      1  0.4704830000000  0.4277950000000  0.5038710000000 1.0
C      1  0.4760570000000  0.4820020000000  0.4739870000000 1.0
C      1  0.4957200000000  0.4790770000000  0.5443200000000 1.0
C      1  0.4819870000000  0.4880090000000  0.5702170000000 1.0
C      1  0.4859930000000  0.5079020000000  0.4888830000000 1.0
C      1  0.5123390000000  0.5250750000000  0.5018390000000 1.0
C      1  0.4725080000000  0.4337940000000  0.4171140000000 1.0
C      1  0.4418890000000  0.5380060000000  0.5022870000000 1.0
C      1  0.4391840000000  0.4621750000000  0.5155990000000 1.0
C      1  0.5766120000000  0.4999630000000  0.5316330000000 1.0
C      1  0.4531230000000  0.4598180000000  0.5415940000000 1.0
C      1  0.4469990000000  0.5332550000000  0.5598090000000 1.0
C      1  0.5046340000000  0.4926300000000  0.4212840000000 1.0
C      1  0.4446430000000  0.4390790000000  0.4992710000000 1.0
C      1  0.5756490000000  0.4946350000000  0.5825050000000 1.0
C      1  0.4551680000000  0.5064090000000  0.4300200000000 1.0
C      1  0.4360210000000  0.5018090000000  0.5666730000000 1.0
C      1  0.4460500000000  0.4853580000000  0.4739800000000 1.0
C      1  0.5086590000000  0.4415830000000  0.5468130000000 1.0
C      1  0.5634930000000  0.5275290000000  0.4816900000000 1.0
C      1  0.4758320000000  0.5385860000000  0.5713840000000 1.0
C      1  0.5367810000000  0.6064200000000  0.5582790000000 1.0
C      1  0.4707860000000  0.5749440000000  0.4894040000000 1.0
C      1  0.5135720000000  0.5148700000000  0.4069180000000 1.0
C      1  0.4544410000000  0.4805810000000  0.5654210000000 1.0
C      1  0.4924790000000  0.4729580000000  0.4465080000000 1.0
C      1  0.4857860000000  0.5457480000000  0.4204930000000 1.0
C      1  0.5650940000000  0.5041330000000  0.5603420000000 1.0
C      1  0.4369190000000  0.4953780000000  0.4491380000000 1.0
END
