TITL C-2778423-5760-1121 -0.000534569959527265 125000 -631.193106968237 0 0 112 (C1) n - 1
REM
REM in /home/nfs/bkarasulu/CARBON/AIRSS/Generating-Clusters/REBO/Only-C1/SD-CG/HFTN-CG
REM
REM
REM
REM
REM
REM ./C.cell (11c1c37f851c82e70ff6c80c92926a4b)
REM
REM compiler GCC version 9.2.1 20190827 (Red Hat 9.2.1-1)
REM options -cpp -mtune=generic -march=x86-64 -g -O0 -fpre-include=/usr/include/finclude/math-vector-fortran.h
REM seed 1238753054 -842176940 -1501462001 1231994115 -1497146468 -2118553458 1859611122 1125298129 1678920163 1170728992 496542283 -1967596279 898254240 1082290379 -1969438791 -2062086940 -1399909331 1929121085 -1611306479 -1223756445 -779740478 274543215 -989298043 -602212898 1467171752 1940254845 -1332531284 -453170259 74565675 -278798025 502787002 -1636300435 355544709
REM
CELL 1.54180   50.00000   50.00000   50.00000   90.00000   90.00000   90.00000
LATT -1
SFAC C  
C      1  0.4342190000000  0.5332260000000  0.5599130000000 1.0
C      1  0.5013590000000  0.4811880000000  0.4353140000000 1.0
C      1  0.4557690000000  0.5717490000000  0.5205690000000 1.0
C      1  0.4623750000000  0.5572980000000  0.4603200000000 1.0
C      1  0.5940990000000  0.5143450000000  0.4963290000000 1.0
C      1  0.5320560000000  0.5565330000000  0.4372920000000 1.0
C      1  0.4751940000000  0.4754220000000  0.4060240000000 1.0
C      1  0.4974740000000  0.4717700000000  0.4641960000000 1.0
C      1  0.5439880000000  0.4754060000000  0.5069470000000 1.0
C      1  0.4617600000000  0.5056590000000  0.5227190000000 1.0
C      1  0.5677160000000  0.5416270000000  0.4665920000000 1.0
C      1  0.4667980000000  0.4981510000000  0.6008710000000 1.0
C      1  0.4746150000000  0.5278870000000  0.4627280000000 1.0
C      1  0.4985870000000  0.5092220000000  0.5623650000000 1.0
C      1  0.5688590000000  0.5181290000000  0.5406890000000 1.0
C      1  0.4679980000000  0.4384710000000  0.5588200000000 1.0
C      1  0.5866420000000  0.5148760000000  0.4665280000000 1.0
C      1  0.4799480000000  0.5180270000000  0.5888390000000 1.0
C      1  0.4902500000000  0.5654210000000  0.5648060000000 1.0
C      1  0.4916420000000  0.4934620000000  0.5142590000000 1.0
C      1  0.5142070000000  0.4594670000000  0.5730310000000 1.0
C      1  0.4459120000000  0.5539650000000  0.4339250000000 1.0
C      1  0.4914710000000  0.4714270000000  0.5395020000000 1.0
C      1  0.4605390000000  0.5176210000000  0.5512920000000 1.0
C      1  0.5521930000000  0.5466460000000  0.5077010000000 1.0
C      1  0.4449580000000  0.5340010000000  0.5170080000000 1.0
C      1  0.4694000000000  0.4262520000000  0.5324780000000 1.0
C      1  0.4975550000000  0.5205160000000  0.5320080000000 1.0
C      1  0.4103910000000  0.5203970000000  0.5041830000000 1.0
C      1  0.4954790000000  0.5604120000000  0.4527810000000 1.0
C      1  0.5156870000000  0.4297060000000  0.4406690000000 1.0
C      1  0.5019470000000  0.5543090000000  0.4222850000000 1.0
C      1  0.5059160000000  0.4414040000000  0.5380730000000 1.0
C      1  0.4875420000000  0.4511180000000  0.5791130000000 1.0
C      1  0.4675850000000  0.4730960000000  0.5889100000000 1.0
C      1  0.4981860000000  0.5200770000000  0.4437300000000 1.0
C      1  0.4641270000000  0.5460990000000  0.5661240000000 1.0
C      1  0.4781590000000  0.4118430000000  0.5027390000000 1.0
C      1  0.4374600000000  0.4361770000000  0.4764600000000 1.0
C      1  0.5371330000000  0.4171680000000  0.5325090000000 1.0
C      1  0.5360220000000  0.4972900000000  0.4881860000000 1.0
C      1  0.4930230000000  0.5375360000000  0.4961410000000 1.0
C      1  0.5172840000000  0.4156290000000  0.4181190000000 1.0
C      1  0.4505420000000  0.5066340000000  0.4390310000000 1.0
C      1  0.5877940000000  0.4488480000000  0.5017960000000 1.0
C      1  0.5480090000000  0.5636600000000  0.4604530000000 1.0
C      1  0.4375840000000  0.4797510000000  0.5425980000000 1.0
C      1  0.4494040000000  0.5690440000000  0.4890980000000 1.0
C      1  0.4271520000000  0.5588220000000  0.5322230000000 1.0
C      1  0.5297330000000  0.5315810000000  0.5729860000000 1.0
C      1  0.4237150000000  0.4797330000000  0.4724230000000 1.0
C      1  0.5487680000000  0.5027170000000  0.4339300000000 1.0
C      1  0.5172150000000  0.4580260000000  0.5121240000000 1.0
C      1  0.5043100000000  0.3884260000000  0.4552290000000 1.0
C      1  0.5888420000000  0.4958260000000  0.5242270000000 1.0
C      1  0.5749430000000  0.4703370000000  0.5098040000000 1.0
C      1  0.5056890000000  0.5830810000000  0.5219140000000 1.0
C      1  0.5289090000000  0.4791690000000  0.4277190000000 1.0
C      1  0.5387130000000  0.5759830000000  0.4845480000000 1.0
C      1  0.4676380000000  0.5148720000000  0.4905810000000 1.0
C      1  0.5733810000000  0.4792040000000  0.5486480000000 1.0
C      1  0.5206840000000  0.3882050000000  0.5283060000000 1.0
C      1  0.5188550000000  0.4017770000000  0.3959280000000 1.0
C      1  0.5181380000000  0.5773590000000  0.5492590000000 1.0
C      1  0.5458120000000  0.5711680000000  0.5448930000000 1.0
C      1  0.5157830000000  0.5623030000000  0.5023130000000 1.0
C      1  0.5379460000000  0.5281850000000  0.4759060000000 1.0
C      1  0.5117860000000  0.5390160000000  0.4701050000000 1.0
C      1  0.4564560000000  0.5297040000000  0.4213750000000 1.0
C      1  0.5483140000000  0.4678860000000  0.5399860000000 1.0
C      1  0.5255560000000  0.4084690000000  0.5012940000000 1.0
C      1  0.4387060000000  0.4501230000000  0.5011850000000 1.0
C      1  0.4298930000000  0.4667420000000  0.4521520000000 1.0
C      1  0.6016870000000  0.5098420000000  0.4434130000000 1.0
C      1  0.4650250000000  0.5941520000000  0.4753760000000 1.0
C      1  0.4897280000000  0.4570740000000  0.4939270000000 1.0
C      1  0.5527350000000  0.5759540000000  0.5155450000000 1.0
C      1  0.5280100000000  0.5268120000000  0.4348870000000 1.0
C      1  0.4583230000000  0.4483960000000  0.4524740000000 1.0
C      1  0.4753640000000  0.5432780000000  0.5229380000000 1.0
C      1  0.5001890000000  0.4066790000000  0.4785570000000 1.0
C      1  0.5432850000000  0.5020780000000  0.5847190000000 1.0
C      1  0.5669200000000  0.5201880000000  0.5802350000000 1.0
C      1  0.5722120000000  0.5050610000000  0.4181650000000 1.0
C      1  0.4626520000000  0.4714950000000  0.5556230000000 1.0
C      1  0.5750510000000  0.5311760000000  0.5126710000000 1.0
C      1  0.4844660000000  0.5357400000000  0.4096870000000 1.0
C      1  0.4361960000000  0.5012240000000  0.4925580000000 1.0
C      1  0.4776520000000  0.4321930000000  0.4753160000000 1.0
C      1  0.4648920000000  0.4778800000000  0.4367430000000 1.0
C      1  0.4977280000000  0.4110160000000  0.5298220000000 1.0
C      1  0.5566800000000  0.5036950000000  0.4633460000000 1.0
C      1  0.4371460000000  0.5159140000000  0.4623160000000 1.0
C      1  0.4870300000000  0.5043450000000  0.4168860000000 1.0
C      1  0.5238340000000  0.4370550000000  0.4890460000000 1.0
C      1  0.5249860000000  0.5345130000000  0.5197140000000 1.0
C      1  0.5013050000000  0.5405360000000  0.5795860000000 1.0
C      1  0.4110280000000  0.5292120000000  0.5372070000000 1.0
C      1  0.4130450000000  0.4971350000000  0.5280590000000 1.0
C      1  0.4748690000000  0.4599150000000  0.3854000000000 1.0
C      1  0.4650870000000  0.4485310000000  0.5110420000000 1.0
C      1  0.4857000000000  0.5897340000000  0.4616470000000 1.0
C      1  0.5350010000000  0.4427310000000  0.5521930000000 1.0
C      1  0.5140280000000  0.4443240000000  0.4640870000000 1.0
C      1  0.4802880000000  0.5802240000000  0.5373130000000 1.0
C      1  0.5573500000000  0.5449470000000  0.5586330000000 1.0
C      1  0.5353060000000  0.5152570000000  0.5436270000000 1.0
C      1  0.5217730000000  0.4868970000000  0.5366770000000 1.0
C      1  0.4230810000000  0.4675740000000  0.5163450000000 1.0
C      1  0.5191100000000  0.4877450000000  0.5760140000000 1.0
C      1  0.4319090000000  0.5399830000000  0.4859660000000 1.0
C      1  0.5055310000000  0.4928130000000  0.4871150000000 1.0
END
