TITL C-2778436-5916-1426 -0.000539544225329396 125000 -1057.29287251735 0 0 181 (C1) n - 1
REM
REM in /home/nfs/bkarasulu/CARBON/AIRSS/Generating-Clusters/REBO/Only-C1/SD-CG/HFTN-CG
REM
REM
REM
REM
REM
REM ./C.cell (11c1c37f851c82e70ff6c80c92926a4b)
REM
REM compiler GCC version 9.2.1 20190827 (Red Hat 9.2.1-1)
REM options -cpp -mtune=generic -march=x86-64 -g -O0 -fpre-include=/usr/include/finclude/math-vector-fortran.h
REM seed -130565417 407849476 -1479184905 96464453 1062557433 1195782161 690359571 -544948820 1928017402 851028529 -1531619952 -1527730172 1141134970 -1044879511 -721638362 1801708631 1511792840 116068672 1897200838 -997447651 -2020065037 -1957866491 1179411348 278012078 575735180 119690888 -708113931 -1799467700 -465130936 1379881465 -1435214599 1015685801 1190872956
REM
CELL 1.54180   50.00000   50.00000   50.00000   90.00000   90.00000   90.00000
LATT -1
SFAC C  
C      1  0.5821930000000  0.4555350000000  0.4854060000000 1.0
C      1  0.4751850000000  0.5209520000000  0.5932130000000 1.0
C      1  0.5196700000000  0.4960490000000  0.6097030000000 1.0
C      1  0.4660270000000  0.4693450000000  0.6024610000000 1.0
C      1  0.4796420000000  0.4154300000000  0.5259710000000 1.0
C      1  0.6040990000000  0.4653670000000  0.5301840000000 1.0
C      1  0.5244720000000  0.4309220000000  0.4247580000000 1.0
C      1  0.4432950000000  0.4314490000000  0.5293850000000 1.0
C      1  0.5102900000000  0.5068560000000  0.5235860000000 1.0
C      1  0.5347670000000  0.5218530000000  0.4558350000000 1.0
C      1  0.3993350000000  0.5026260000000  0.5093580000000 1.0
C      1  0.4990250000000  0.5795610000000  0.4799460000000 1.0
C      1  0.4341310000000  0.5449020000000  0.5556660000000 1.0
C      1  0.4629750000000  0.4681620000000  0.5693290000000 1.0
C      1  0.4365270000000  0.5931720000000  0.4872990000000 1.0
C      1  0.4863310000000  0.5173970000000  0.4308880000000 1.0
C      1  0.5209500000000  0.4041130000000  0.5473830000000 1.0
C      1  0.5457890000000  0.5091320000000  0.5581380000000 1.0
C      1  0.5568180000000  0.4325690000000  0.5518590000000 1.0
C      1  0.4817380000000  0.6134410000000  0.4771860000000 1.0
C      1  0.5933750000000  0.4354360000000  0.5180830000000 1.0
C      1  0.4031600000000  0.5235030000000  0.4728730000000 1.0
C      1  0.4813960000000  0.4719750000000  0.5176230000000 1.0
C      1  0.4223430000000  0.5002280000000  0.4072540000000 1.0
C      1  0.6186760000000  0.4948470000000  0.5245340000000 1.0
C      1  0.4789170000000  0.5399340000000  0.5338020000000 1.0
C      1  0.5363870000000  0.6003650000000  0.5064750000000 1.0
C      1  0.5423960000000  0.4026560000000  0.5000120000000 1.0
C      1  0.4274870000000  0.4500150000000  0.5689470000000 1.0
C      1  0.4520050000000  0.5416740000000  0.5811410000000 1.0
C      1  0.5341400000000  0.4776000000000  0.4181220000000 1.0
C      1  0.5517090000000  0.4009650000000  0.5550310000000 1.0
C      1  0.4696800000000  0.4644540000000  0.4135140000000 1.0
C      1  0.4971880000000  0.5214290000000  0.4972040000000 1.0
C      1  0.4544690000000  0.6178540000000  0.4862390000000 1.0
C      1  0.5452410000000  0.5596260000000  0.5675500000000 1.0
C      1  0.4270690000000  0.5250810000000  0.4521400000000 1.0
C      1  0.5439000000000  0.5280870000000  0.4027060000000 1.0
C      1  0.4941200000000  0.4425160000000  0.4163340000000 1.0
C      1  0.5355690000000  0.5879430000000  0.5539520000000 1.0
C      1  0.4358840000000  0.4764780000000  0.5880940000000 1.0
C      1  0.5885560000000  0.5530870000000  0.4672360000000 1.0
C      1  0.5242260000000  0.5554430000000  0.4274980000000 1.0
C      1  0.4512500000000  0.5530340000000  0.4961970000000 1.0
C      1  0.4511550000000  0.5495660000000  0.5262010000000 1.0
C      1  0.5064590000000  0.5368280000000  0.4133970000000 1.0
C      1  0.5697110000000  0.5229190000000  0.5757350000000 1.0
C      1  0.5269520000000  0.4288820000000  0.5682440000000 1.0
C      1  0.5633220000000  0.4584120000000  0.5678710000000 1.0
C      1  0.5506630000000  0.4496340000000  0.4915480000000 1.0
C      1  0.5536420000000  0.5916740000000  0.5316200000000 1.0
C      1  0.5428650000000  0.4913910000000  0.5071150000000 1.0
C      1  0.4137320000000  0.4714110000000  0.5519630000000 1.0
C      1  0.6031740000000  0.5372910000000  0.4935750000000 1.0
C      1  0.5536580000000  0.4244740000000  0.4396370000000 1.0
C      1  0.6062210000000  0.5248240000000  0.4620470000000 1.0
C      1  0.5024040000000  0.3832290000000  0.4728100000000 1.0
C      1  0.4889900000000  0.3993490000000  0.5531470000000 1.0
C      1  0.4890110000000  0.4434140000000  0.5310920000000 1.0
C      1  0.5583650000000  0.5152950000000  0.4793370000000 1.0
C      1  0.4169030000000  0.4414770000000  0.5138940000000 1.0
C      1  0.4212750000000  0.4316450000000  0.4866670000000 1.0
C      1  0.5604590000000  0.4372950000000  0.5217530000000 1.0
C      1  0.4820080000000  0.5973510000000  0.4486450000000 1.0
C      1  0.4058810000000  0.4796010000000  0.4553860000000 1.0
C      1  0.5460500000000  0.5686660000000  0.4502640000000 1.0
C      1  0.5254290000000  0.5131090000000  0.4872090000000 1.0
C      1  0.6215630000000  0.4840340000000  0.4845820000000 1.0
C      1  0.5386320000000  0.4689690000000  0.5822240000000 1.0
C      1  0.4661040000000  0.5796310000000  0.4855130000000 1.0
C      1  0.5774800000000  0.5589160000000  0.4990810000000 1.0
C      1  0.5738940000000  0.4891810000000  0.5784240000000 1.0
C      1  0.5587000000000  0.5215740000000  0.5116010000000 1.0
C      1  0.4129260000000  0.5607590000000  0.5259310000000 1.0
C      1  0.5418370000000  0.4560850000000  0.4377430000000 1.0
C      1  0.4606160000000  0.4738830000000  0.4622180000000 1.0
C      1  0.4834020000000  0.5526260000000  0.6031320000000 1.0
C      1  0.3979170000000  0.5303180000000  0.5296330000000 1.0
C      1  0.5393040000000  0.4684280000000  0.4660480000000 1.0
C      1  0.5204570000000  0.5731550000000  0.5200620000000 1.0
C      1  0.5914600000000  0.4802980000000  0.4476020000000 1.0
C      1  0.5055290000000  0.5904580000000  0.5559810000000 1.0
C      1  0.5171620000000  0.5457080000000  0.4655890000000 1.0
C      1  0.5582490000000  0.4979150000000  0.4066960000000 1.0
C      1  0.4967270000000  0.3870520000000  0.5216570000000 1.0
C      1  0.5259910000000  0.5510630000000  0.5421570000000 1.0
C      1  0.4581090000000  0.4951960000000  0.5058320000000 1.0
C      1  0.4426680000000  0.4537900000000  0.4194910000000 1.0
C      1  0.4917030000000  0.4654340000000  0.5563700000000 1.0
C      1  0.4348590000000  0.4530730000000  0.4691320000000 1.0
C      1  0.4247620000000  0.5559670000000  0.4397210000000 1.0
C      1  0.4725970000000  0.4238280000000  0.5703260000000 1.0
C      1  0.5732860000000  0.4172270000000  0.4971580000000 1.0
C      1  0.4495680000000  0.5857510000000  0.4494910000000 1.0
C      1  0.4100530000000  0.5195760000000  0.4230300000000 1.0
C      1  0.5078810000000  0.4712170000000  0.4043610000000 1.0
C      1  0.5814790000000  0.5339130000000  0.4400470000000 1.0
C      1  0.5358380000000  0.5094030000000  0.4303230000000 1.0
C      1  0.4936620000000  0.4948100000000  0.5479660000000 1.0
C      1  0.4984830000000  0.5433700000000  0.5555860000000 1.0
C      1  0.4693670000000  0.4968630000000  0.3868140000000 1.0
C      1  0.4150560000000  0.5365520000000  0.4953250000000 1.0
C      1  0.4984190000000  0.4731490000000  0.6101570000000 1.0
C      1  0.4884260000000  0.5404070000000  0.4631200000000 1.0
C      1  0.6026410000000  0.4688740000000  0.4988200000000 1.0
C      1  0.5142630000000  0.5167770000000  0.3904360000000 1.0
C      1  0.4984170000000  0.4311090000000  0.4943470000000 1.0
C      1  0.4720400000000  0.5833280000000  0.5497720000000 1.0
C      1  0.4975110000000  0.4933230000000  0.3900370000000 1.0
C      1  0.5473520000000  0.4089730000000  0.4682390000000 1.0
C      1  0.3936700000000  0.4957410000000  0.4765200000000 1.0
C      1  0.5143050000000  0.3842380000000  0.4989710000000 1.0
C      1  0.4394800000000  0.4092700000000  0.4863150000000 1.0
C      1  0.4471090000000  0.4330100000000  0.5584850000000 1.0
C      1  0.6135040000000  0.4960660000000  0.4614820000000 1.0
C      1  0.4456630000000  0.5107200000000  0.3943200000000 1.0
C      1  0.4721180000000  0.5714510000000  0.4281550000000 1.0
C      1  0.5057130000000  0.5270200000000  0.6076490000000 1.0
C      1  0.5066630000000  0.5737140000000  0.4481590000000 1.0
C      1  0.4752140000000  0.5449970000000  0.4140010000000 1.0
C      1  0.4822420000000  0.4577200000000  0.4806430000000 1.0
C      1  0.5776180000000  0.4222720000000  0.4637860000000 1.0
C      1  0.4565160000000  0.4748690000000  0.5400240000000 1.0
C      1  0.4727550000000  0.5092060000000  0.4821620000000 1.0
C      1  0.4392910000000  0.5753280000000  0.5427620000000 1.0
C      1  0.4204900000000  0.5784380000000  0.4618480000000 1.0
C      1  0.4492260000000  0.5386200000000  0.4008050000000 1.0
C      1  0.4913810000000  0.4989920000000  0.4591110000000 1.0
C      1  0.4522580000000  0.4053880000000  0.5131800000000 1.0
C      1  0.5230220000000  0.5519270000000  0.4959680000000 1.0
C      1  0.4114930000000  0.5252080000000  0.5552130000000 1.0
C      1  0.4308180000000  0.5146170000000  0.5137320000000 1.0
C      1  0.4422770000000  0.5034990000000  0.5418290000000 1.0
C      1  0.4145300000000  0.4970210000000  0.5702600000000 1.0
C      1  0.4768340000000  0.4278370000000  0.4420730000000 1.0
C      1  0.4970210000000  0.5154600000000  0.5704040000000 1.0
C      1  0.4646090000000  0.5705840000000  0.5805780000000 1.0
C      1  0.4219570000000  0.4749930000000  0.4254120000000 1.0
C      1  0.4856590000000  0.4005790000000  0.4604930000000 1.0
C      1  0.5105510000000  0.4803070000000  0.5042850000000 1.0
C      1  0.4582220000000  0.4438440000000  0.5011910000000 1.0
C      1  0.4438300000000  0.5109400000000  0.5738980000000 1.0
C      1  0.4970360000000  0.5742540000000  0.5808630000000 1.0
C      1  0.6090580000000  0.5191540000000  0.5181340000000 1.0
C      1  0.4738430000000  0.4866600000000  0.4335490000000 1.0
C      1  0.5839980000000  0.4762060000000  0.5491550000000 1.0
C      1  0.5322560000000  0.5854830000000  0.4765160000000 1.0
C      1  0.5897980000000  0.4509640000000  0.4562060000000 1.0
C      1  0.4703800000000  0.4195720000000  0.4806250000000 1.0
C      1  0.5614500000000  0.4907440000000  0.4598140000000 1.0
C      1  0.5231840000000  0.5056790000000  0.5789120000000 1.0
C      1  0.4512890000000  0.5297520000000  0.4749860000000 1.0
C      1  0.5825970000000  0.5309470000000  0.5272010000000 1.0
C      1  0.5095470000000  0.4766980000000  0.4728540000000 1.0
C      1  0.4882120000000  0.5813270000000  0.5218120000000 1.0
C      1  0.5203110000000  0.4431270000000  0.5395610000000 1.0
C      1  0.4287750000000  0.5551720000000  0.4124130000000 1.0
C      1  0.5260890000000  0.4317590000000  0.4780080000000 1.0
C      1  0.5516540000000  0.5583870000000  0.4813430000000 1.0
C      1  0.4363180000000  0.4922150000000  0.4502590000000 1.0
C      1  0.5753550000000  0.5035970000000  0.4323130000000 1.0
C      1  0.5074720000000  0.4327750000000  0.4524950000000 1.0
C      1  0.4386620000000  0.4707280000000  0.4981420000000 1.0
C      1  0.4488050000000  0.4389040000000  0.4437520000000 1.0
C      1  0.4147900000000  0.5688070000000  0.4940670000000 1.0
C      1  0.4705620000000  0.5607040000000  0.4591740000000 1.0
C      1  0.4127190000000  0.4732880000000  0.5201510000000 1.0
C      1  0.5134110000000  0.4551440000000  0.5777880000000 1.0
C      1  0.5553630000000  0.4870100000000  0.5383810000000 1.0
C      1  0.5574690000000  0.5480610000000  0.4266540000000 1.0
C      1  0.5735770000000  0.5472920000000  0.5538820000000 1.0
C      1  0.5507950000000  0.5037010000000  0.5973710000000 1.0
C      1  0.4718680000000  0.5109780000000  0.5329100000000 1.0
C      1  0.4906240000000  0.5509820000000  0.5065260000000 1.0
C      1  0.5033300000000  0.6043210000000  0.5018410000000 1.0
C      1  0.5195790000000  0.4194540000000  0.5168050000000 1.0
C      1  0.4863030000000  0.4444990000000  0.5910610000000 1.0
C      1  0.5178290000000  0.5478590000000  0.5836510000000 1.0
C      1  0.5357870000000  0.4652760000000  0.5361640000000 1.0
C      1  0.5345330000000  0.5227250000000  0.5321560000000 1.0
C      1  0.5722160000000  0.5691560000000  0.5277470000000 1.0
END
