TITL C-2778437-8639-1402 0.000255748379730955 125000 -188.655348957165 0 0 34 (C1) n - 1
REM
REM in /home/nfs/bkarasulu/CARBON/AIRSS/Generating-Clusters/REBO/Only-C1/SD-CG/HFTN-CG
REM
REM
REM
REM
REM
REM ./C.cell (11c1c37f851c82e70ff6c80c92926a4b)
REM
REM compiler GCC version 9.2.1 20190827 (Red Hat 9.2.1-1)
REM options -cpp -mtune=generic -march=x86-64 -g -O0 -fpre-include=/usr/include/finclude/math-vector-fortran.h
REM seed 529830979 2107748261 -1190022436 -1591526599 -1786741181 338745112 1805664394 1976277006 -554185055 -225238472 -1561495502 -1608146814 1760887434 -971694923 794020658 490045810 -746717295 -1655902942 -916108434 -762150434 962865691 -1114598725 -602741912 257870829 1076814524 -560923550 380460402 1227839280 202717918 -1824661682 315172847 -625455142 2063555640
REM
CELL 1.54180   50.00000   50.00000   50.00000   90.00000   90.00000   90.00000
LATT -1
SFAC C  
C      1  0.4537310000000  0.5494710000000  0.4990170000000 1.0
C      1  0.4950520000000  0.4556500000000  0.5345220000000 1.0
C      1  0.5165790000000  0.4464870000000  0.5179540000000 1.0
C      1  0.5535920000000  0.5048330000000  0.5133550000000 1.0
C      1  0.4322640000000  0.5031760000000  0.5174230000000 1.0
C      1  0.4456840000000  0.5027750000000  0.4659950000000 1.0
C      1  0.5166960000000  0.5261890000000  0.4814370000000 1.0
C      1  0.5706290000000  0.4332580000000  0.5314980000000 1.0
C      1  0.5404800000000  0.5189140000000  0.5336790000000 1.0
C      1  0.4320950000000  0.4938530000000  0.4876500000000 1.0
C      1  0.5652960000000  0.5230450000000  0.4694380000000 1.0
C      1  0.5139120000000  0.5238450000000  0.5350640000000 1.0
C      1  0.5661910000000  0.4813230000000  0.5201440000000 1.0
C      1  0.5820260000000  0.4605920000000  0.5354710000000 1.0
C      1  0.4974480000000  0.5280700000000  0.5098110000000 1.0
C      1  0.4502530000000  0.4855590000000  0.5357620000000 1.0
C      1  0.4989830000000  0.5753370000000  0.4974980000000 1.0
C      1  0.4114800000000  0.5255020000000  0.5324600000000 1.0
C      1  0.5491340000000  0.4532240000000  0.5142570000000 1.0
C      1  0.5359740000000  0.4582410000000  0.4853000000000 1.0
C      1  0.4809490000000  0.5538640000000  0.5114640000000 1.0
C      1  0.5365360000000  0.4822280000000  0.4708370000000 1.0
C      1  0.4695760000000  0.5450980000000  0.4727790000000 1.0
C      1  0.5089030000000  0.4441410000000  0.4875200000000 1.0
C      1  0.4844290000000  0.4566570000000  0.4806660000000 1.0
C      1  0.4765390000000  0.4783820000000  0.4973870000000 1.0
C      1  0.4335510000000  0.5370370000000  0.5131090000000 1.0
C      1  0.4855610000000  0.5039490000000  0.4914500000000 1.0
C      1  0.5447290000000  0.5099920000000  0.4841310000000 1.0
C      1  0.5167400000000  0.4862700000000  0.4517990000000 1.0
C      1  0.4672390000000  0.5196280000000  0.4596610000000 1.0
C      1  0.4731200000000  0.4720560000000  0.5254580000000 1.0
C      1  0.4967370000000  0.5079530000000  0.4605040000000 1.0
C      1  0.4978890000000  0.5534000000000  0.4755000000000 1.0
END
