TITL C-2778437-8639-688 0.000762267355979254 125000 -662.63107220739 0 0 114 (C1) n - 1
REM
REM in /home/nfs/bkarasulu/CARBON/AIRSS/Generating-Clusters/REBO/Only-C1/SD-CG/HFTN-CG
REM
REM
REM
REM
REM
REM ./C.cell (11c1c37f851c82e70ff6c80c92926a4b)
REM
REM compiler GCC version 9.2.1 20190827 (Red Hat 9.2.1-1)
REM options -cpp -mtune=generic -march=x86-64 -g -O0 -fpre-include=/usr/include/finclude/math-vector-fortran.h
REM seed -1934710343 215359169 865248836 1248066149 -1821937995 533499633 16571732 -1376571316 19312413 803592721 1660233761 -1989788413 1220635826 1627911629 -2046174865 1944263006 960838818 -198424359 45864239 1604260661 -1034625264 1879483206 -364606155 -1025834390 -569324372 -1654812844 -1368284418 1037493272 1481556215 199361821 -1082601043 -111624467 198862188
REM
CELL 1.54180   50.00000   50.00000   50.00000   90.00000   90.00000   90.00000
LATT -1
SFAC C  
C      1  0.4818040000000  0.4756630000000  0.5385600000000 1.0
C      1  0.5029230000000  0.4993030000000  0.5386420000000 1.0
C      1  0.4969420000000  0.4183200000000  0.5609940000000 1.0
C      1  0.4638900000000  0.4526260000000  0.4376360000000 1.0
C      1  0.4949890000000  0.5845730000000  0.5058810000000 1.0
C      1  0.5660300000000  0.5556360000000  0.4584320000000 1.0
C      1  0.5742590000000  0.4921510000000  0.4406900000000 1.0
C      1  0.5526980000000  0.5326730000000  0.4482320000000 1.0
C      1  0.4643750000000  0.5378920000000  0.4408220000000 1.0
C      1  0.5661260000000  0.5705600000000  0.4883800000000 1.0
C      1  0.4578310000000  0.5227430000000  0.4680090000000 1.0
C      1  0.5721920000000  0.5297450000000  0.5253930000000 1.0
C      1  0.5484800000000  0.5825810000000  0.4644860000000 1.0
C      1  0.4508430000000  0.4926260000000  0.5024990000000 1.0
C      1  0.5002340000000  0.4486590000000  0.5087200000000 1.0
C      1  0.4840590000000  0.4659230000000  0.4874140000000 1.0
C      1  0.5246280000000  0.5270810000000  0.4650630000000 1.0
C      1  0.5459020000000  0.4815000000000  0.4539980000000 1.0
C      1  0.5116460000000  0.5515680000000  0.4165720000000 1.0
C      1  0.4580570000000  0.5649000000000  0.4831380000000 1.0
C      1  0.5522410000000  0.5334170000000  0.4911870000000 1.0
C      1  0.5509030000000  0.5108660000000  0.4235600000000 1.0
C      1  0.4842220000000  0.4959080000000  0.5036960000000 1.0
C      1  0.5651080000000  0.4465080000000  0.5360050000000 1.0
C      1  0.5354110000000  0.4138470000000  0.4938670000000 1.0
C      1  0.4517990000000  0.4819660000000  0.5489710000000 1.0
C      1  0.4074720000000  0.4747320000000  0.5239610000000 1.0
C      1  0.5170540000000  0.4834390000000  0.5894420000000 1.0
C      1  0.5069210000000  0.4119220000000  0.4949080000000 1.0
C      1  0.4261980000000  0.5093710000000  0.5628010000000 1.0
C      1  0.4407960000000  0.4437680000000  0.5451990000000 1.0
C      1  0.5205290000000  0.5900720000000  0.5200410000000 1.0
C      1  0.5488960000000  0.4671510000000  0.4992590000000 1.0
C      1  0.4678870000000  0.5777860000000  0.5061410000000 1.0
C      1  0.4187780000000  0.5355820000000  0.4621030000000 1.0
C      1  0.5703890000000  0.4886640000000  0.4979900000000 1.0
C      1  0.4649300000000  0.4523830000000  0.5886700000000 1.0
C      1  0.4161470000000  0.4451570000000  0.5311530000000 1.0
C      1  0.5146190000000  0.5557690000000  0.5520880000000 1.0
C      1  0.4149160000000  0.4543510000000  0.4994950000000 1.0
C      1  0.5105810000000  0.5069970000000  0.6130920000000 1.0
C      1  0.4902120000000  0.5248760000000  0.5202430000000 1.0
C      1  0.5108920000000  0.5650490000000  0.4903910000000 1.0
C      1  0.5212820000000  0.4973520000000  0.4607200000000 1.0
C      1  0.5254270000000  0.5078950000000  0.5145440000000 1.0
C      1  0.5481220000000  0.4733980000000  0.5887160000000 1.0
C      1  0.5975420000000  0.5067530000000  0.4937870000000 1.0
C      1  0.4422210000000  0.5284670000000  0.5727500000000 1.0
C      1  0.4706050000000  0.5765650000000  0.5627770000000 1.0
C      1  0.5277040000000  0.5349770000000  0.5729330000000 1.0
C      1  0.5401500000000  0.5641200000000  0.5816580000000 1.0
C      1  0.5151080000000  0.4897470000000  0.4904300000000 1.0
C      1  0.5532930000000  0.4239250000000  0.5138140000000 1.0
C      1  0.5584340000000  0.4619610000000  0.5655850000000 1.0
C      1  0.4968120000000  0.5768570000000  0.4186530000000 1.0
C      1  0.4847980000000  0.5462990000000  0.5410430000000 1.0
C      1  0.4323430000000  0.5291340000000  0.4382150000000 1.0
C      1  0.4837660000000  0.4243440000000  0.4774650000000 1.0
C      1  0.4392700000000  0.5399270000000  0.4875350000000 1.0
C      1  0.4805650000000  0.5163120000000  0.4251500000000 1.0
C      1  0.4974470000000  0.4623830000000  0.5872920000000 1.0
C      1  0.5322160000000  0.4188250000000  0.4431820000000 1.0
C      1  0.4971760000000  0.4914160000000  0.4415190000000 1.0
C      1  0.4721330000000  0.4720430000000  0.4118670000000 1.0
C      1  0.5812080000000  0.4550990000000  0.4791770000000 1.0
C      1  0.4650600000000  0.4479690000000  0.5274130000000 1.0
C      1  0.4298450000000  0.5169120000000  0.5104600000000 1.0
C      1  0.5453770000000  0.4214570000000  0.4677180000000 1.0
C      1  0.5340320000000  0.5182910000000  0.5992520000000 1.0
C      1  0.5138150000000  0.4436270000000  0.4433690000000 1.0
C      1  0.4322630000000  0.5581220000000  0.5331980000000 1.0
C      1  0.4595140000000  0.4358440000000  0.4959310000000 1.0
C      1  0.5495830000000  0.4772000000000  0.4214570000000 1.0
C      1  0.4877690000000  0.4294990000000  0.5882360000000 1.0
C      1  0.4581970000000  0.4954240000000  0.4735030000000 1.0
C      1  0.4619700000000  0.5460960000000  0.5664410000000 1.0
C      1  0.3947150000000  0.5264520000000  0.4742960000000 1.0
C      1  0.5547460000000  0.5035130000000  0.5224870000000 1.0
C      1  0.5127640000000  0.5339200000000  0.4961940000000 1.0
C      1  0.4450910000000  0.4603100000000  0.5703970000000 1.0
C      1  0.5231580000000  0.5856980000000  0.5798840000000 1.0
C      1  0.4331030000000  0.5018900000000  0.4278290000000 1.0
C      1  0.4587970000000  0.5669320000000  0.5326730000000 1.0
C      1  0.5878860000000  0.4858920000000  0.4687090000000 1.0
C      1  0.5181300000000  0.5510580000000  0.4448660000000 1.0
C      1  0.4998600000000  0.4774010000000  0.4042800000000 1.0
C      1  0.5298680000000  0.4575040000000  0.5206620000000 1.0
C      1  0.5218990000000  0.5032570000000  0.4071280000000 1.0
C      1  0.4855070000000  0.4353190000000  0.4515560000000 1.0
C      1  0.5794160000000  0.4420630000000  0.5055110000000 1.0
C      1  0.5134680000000  0.4351640000000  0.5373500000000 1.0
C      1  0.5483540000000  0.4529450000000  0.4700400000000 1.0
C      1  0.5038130000000  0.5259420000000  0.4082350000000 1.0
C      1  0.4698220000000  0.5651400000000  0.4571140000000 1.0
C      1  0.5971080000000  0.5263730000000  0.5129340000000 1.0
C      1  0.5187740000000  0.5765250000000  0.4634100000000 1.0
C      1  0.4976870000000  0.5804700000000  0.5659560000000 1.0
C      1  0.5192500000000  0.4688820000000  0.4272000000000 1.0
C      1  0.4377030000000  0.4585400000000  0.4550630000000 1.0
C      1  0.4226710000000  0.4798520000000  0.4431570000000 1.0
C      1  0.5558720000000  0.5001540000000  0.5985450000000 1.0
C      1  0.4266610000000  0.4957850000000  0.5340260000000 1.0
C      1  0.4583070000000  0.4967220000000  0.4150070000000 1.0
C      1  0.5331240000000  0.5678600000000  0.5309020000000 1.0
C      1  0.3986430000000  0.5179670000000  0.5002890000000 1.0
C      1  0.5150090000000  0.5056500000000  0.5664250000000 1.0
C      1  0.4825170000000  0.4206980000000  0.5169260000000 1.0
C      1  0.5551900000000  0.5549310000000  0.5146780000000 1.0
C      1  0.4914260000000  0.5807610000000  0.4467860000000 1.0
C      1  0.5504340000000  0.4769690000000  0.5378320000000 1.0
C      1  0.4361490000000  0.4486980000000  0.4815630000000 1.0
C      1  0.5145190000000  0.4600490000000  0.4732760000000 1.0
C      1  0.4756820000000  0.4758090000000  0.4570350000000 1.0
C      1  0.4930210000000  0.4523590000000  0.5561690000000 1.0
END
