TITL C-2778432-5617-1083 -0.000608873282449201 125000 -639.126210317938 0 0 110 (C1) n - 1
REM
REM in /home/nfs/bkarasulu/CARBON/AIRSS/Generating-Clusters/REBO/Only-C1/SD-CG/HFTN-CG
REM
REM
REM
REM
REM
REM ./C.cell (11c1c37f851c82e70ff6c80c92926a4b)
REM
REM compiler GCC version 9.2.1 20190827 (Red Hat 9.2.1-1)
REM options -cpp -mtune=generic -march=x86-64 -g -O0 -fpre-include=/usr/include/finclude/math-vector-fortran.h
REM seed -1700335971 -1143940551 -1343874014 -1281205833 1437933216 872779220 620015204 1099961892 -1081854522 181651290 1987319020 1515812866 1605366940 586387120 274425596 -179626174 -1047153462 -411751817 1777914629 1547885586 -1695013165 -597711912 1480235938 1537118739 -1142616178 404766395 -1753825828 -1284406232 -1582777439 -316689901 -1905461565 608210700 -2138266119
REM
CELL 1.54180   50.00000   50.00000   50.00000   90.00000   90.00000   90.00000
LATT -1
SFAC C  
C      1  0.4623200000000  0.5715700000000  0.5076790000000 1.0
C      1  0.5016210000000  0.5710700000000  0.5236710000000 1.0
C      1  0.5114380000000  0.4461690000000  0.5670710000000 1.0
C      1  0.4591490000000  0.5062270000000  0.4704510000000 1.0
C      1  0.5510380000000  0.4485240000000  0.4637890000000 1.0
C      1  0.4318710000000  0.4726450000000  0.4523720000000 1.0
C      1  0.4914050000000  0.5698480000000  0.5562910000000 1.0
C      1  0.5071720000000  0.5474640000000  0.4833900000000 1.0
C      1  0.4581950000000  0.5093150000000  0.5007760000000 1.0
C      1  0.4948180000000  0.5079450000000  0.5415950000000 1.0
C      1  0.5260780000000  0.4831970000000  0.4781840000000 1.0
C      1  0.4026500000000  0.4961130000000  0.5030970000000 1.0
C      1  0.5439620000000  0.5624410000000  0.4425380000000 1.0
C      1  0.4949250000000  0.4032520000000  0.4445370000000 1.0
C      1  0.4250640000000  0.5382910000000  0.4752500000000 1.0
C      1  0.4231960000000  0.5179320000000  0.5517770000000 1.0
C      1  0.4010800000000  0.4631410000000  0.4964570000000 1.0
C      1  0.5607270000000  0.5280660000000  0.4800790000000 1.0
C      1  0.4759130000000  0.5396940000000  0.5596600000000 1.0
C      1  0.4699600000000  0.4945400000000  0.5556160000000 1.0
C      1  0.5879730000000  0.5212230000000  0.4517960000000 1.0
C      1  0.4600010000000  0.5552160000000  0.4658980000000 1.0
C      1  0.4907050000000  0.4674300000000  0.5764750000000 1.0
C      1  0.5074570000000  0.4649470000000  0.4234400000000 1.0
C      1  0.4969320000000  0.5385480000000  0.5328560000000 1.0
C      1  0.4899050000000  0.5122150000000  0.4620390000000 1.0
C      1  0.4385750000000  0.5231940000000  0.4554710000000 1.0
C      1  0.4794760000000  0.5190180000000  0.5817050000000 1.0
C      1  0.5751730000000  0.4744710000000  0.5094020000000 1.0
C      1  0.5281720000000  0.5826370000000  0.5097120000000 1.0
C      1  0.5308240000000  0.5131550000000  0.4360750000000 1.0
C      1  0.5240010000000  0.4326270000000  0.5220630000000 1.0
C      1  0.5090860000000  0.4734910000000  0.5060500000000 1.0
C      1  0.4634400000000  0.4529370000000  0.5654910000000 1.0
C      1  0.4860590000000  0.4332910000000  0.5562870000000 1.0
C      1  0.5635930000000  0.5007210000000  0.5871170000000 1.0
C      1  0.5193350000000  0.5384170000000  0.5091680000000 1.0
C      1  0.4228310000000  0.5401780000000  0.5263430000000 1.0
C      1  0.5086640000000  0.4271100000000  0.4917740000000 1.0
C      1  0.4277580000000  0.5055650000000  0.5804970000000 1.0
C      1  0.4256160000000  0.5199450000000  0.5021450000000 1.0
C      1  0.4397950000000  0.4404660000000  0.5261160000000 1.0
C      1  0.4677640000000  0.4958780000000  0.4262730000000 1.0
C      1  0.5545160000000  0.4957330000000  0.4827850000000 1.0
C      1  0.4951250000000  0.4172910000000  0.5279980000000 1.0
C      1  0.5922670000000  0.5439680000000  0.5337620000000 1.0
C      1  0.5930390000000  0.4966890000000  0.4930330000000 1.0
C      1  0.5695680000000  0.5496000000000  0.4560780000000 1.0
C      1  0.5733470000000  0.4333080000000  0.4816970000000 1.0
C      1  0.4296780000000  0.4871900000000  0.5450290000000 1.0
C      1  0.5647890000000  0.4763940000000  0.4580440000000 1.0
C      1  0.5307920000000  0.5313190000000  0.4649890000000 1.0
C      1  0.4315730000000  0.5592010000000  0.4995210000000 1.0
C      1  0.4667580000000  0.5839450000000  0.5375270000000 1.0
C      1  0.5878160000000  0.5240760000000  0.4994100000000 1.0
C      1  0.5188120000000  0.5251530000000  0.5852130000000 1.0
C      1  0.4322640000000  0.4819050000000  0.5119580000000 1.0
C      1  0.4676120000000  0.4138110000000  0.4467580000000 1.0
C      1  0.4792680000000  0.4135010000000  0.4977200000000 1.0
C      1  0.5514640000000  0.4898610000000  0.4325260000000 1.0
C      1  0.4387660000000  0.4554940000000  0.5508780000000 1.0
C      1  0.4599550000000  0.4812350000000  0.5291100000000 1.0
C      1  0.4715940000000  0.4514760000000  0.4595190000000 1.0
C      1  0.4540640000000  0.4992660000000  0.5836920000000 1.0
C      1  0.5316310000000  0.4483370000000  0.5473520000000 1.0
C      1  0.5630520000000  0.5018580000000  0.5213120000000 1.0
C      1  0.5022660000000  0.4960660000000  0.5789740000000 1.0
C      1  0.4633330000000  0.4409330000000  0.4282410000000 1.0
C      1  0.5367270000000  0.4446390000000  0.4929460000000 1.0
C      1  0.5444590000000  0.5812200000000  0.4866460000000 1.0
C      1  0.4764070000000  0.4813520000000  0.4565710000000 1.0
C      1  0.4748110000000  0.5416620000000  0.4844530000000 1.0
C      1  0.5022120000000  0.5798770000000  0.4608290000000 1.0
C      1  0.5447850000000  0.4770590000000  0.5466420000000 1.0
C      1  0.4957390000000  0.5310270000000  0.4364240000000 1.0
C      1  0.5228380000000  0.4445180000000  0.4460050000000 1.0
C      1  0.5364170000000  0.5441130000000  0.5335400000000 1.0
C      1  0.4500240000000  0.5372870000000  0.5450470000000 1.0
C      1  0.4892900000000  0.5012100000000  0.5112190000000 1.0
C      1  0.4611470000000  0.5383820000000  0.5151270000000 1.0
C      1  0.5692480000000  0.5666580000000  0.4854990000000 1.0
C      1  0.5107290000000  0.5498330000000  0.5759810000000 1.0
C      1  0.4873690000000  0.4499150000000  0.4098960000000 1.0
C      1  0.5455310000000  0.5194950000000  0.5440310000000 1.0
C      1  0.4689510000000  0.4350730000000  0.5202050000000 1.0
C      1  0.5690190000000  0.4925530000000  0.5613340000000 1.0
C      1  0.5257830000000  0.4760530000000  0.4495700000000 1.0
C      1  0.4599440000000  0.4162250000000  0.4740380000000 1.0
C      1  0.4446300000000  0.4416390000000  0.4782930000000 1.0
C      1  0.4263020000000  0.4439810000000  0.5009320000000 1.0
C      1  0.5897050000000  0.4958210000000  0.4641770000000 1.0
C      1  0.5831290000000  0.5536130000000  0.5063390000000 1.0
C      1  0.5351840000000  0.5109720000000  0.5054010000000 1.0
C      1  0.5418010000000  0.4689330000000  0.5146840000000 1.0
C      1  0.4911520000000  0.5770940000000  0.4915770000000 1.0
C      1  0.4609400000000  0.5505320000000  0.4361530000000 1.0
C      1  0.5016770000000  0.4983140000000  0.4266990000000 1.0
C      1  0.5446370000000  0.5188260000000  0.5953230000000 1.0
C      1  0.4898670000000  0.5638570000000  0.4409000000000 1.0
C      1  0.5839900000000  0.4457990000000  0.5009330000000 1.0
C      1  0.5308920000000  0.5803400000000  0.4608880000000 1.0
C      1  0.4524930000000  0.5226200000000  0.4285190000000 1.0
C      1  0.4482600000000  0.4695000000000  0.4310820000000 1.0
C      1  0.5071920000000  0.5077910000000  0.4861320000000 1.0
C      1  0.4806470000000  0.4629080000000  0.5174200000000 1.0
C      1  0.4996040000000  0.4321540000000  0.4619400000000 1.0
C      1  0.4261420000000  0.4770420000000  0.4786560000000 1.0
C      1  0.5818340000000  0.5171870000000  0.5435150000000 1.0
C      1  0.5261040000000  0.5448580000000  0.4286110000000 1.0
C      1  0.5233210000000  0.5003340000000  0.5542180000000 1.0
END
