TITL C-2778435-5768-91 -0.00721671594223087 125000 -1017.8314465102 0 0 180 (C1) n - 1
REM
REM in /home/nfs/bkarasulu/CARBON/AIRSS/Generating-Clusters/REBO/Only-C1/SD-CG/HFTN-CG
REM
REM
REM
REM
REM
REM ./C.cell (11c1c37f851c82e70ff6c80c92926a4b)
REM
REM compiler GCC version 9.2.1 20190827 (Red Hat 9.2.1-1)
REM options -cpp -mtune=generic -march=x86-64 -g -O0 -fpre-include=/usr/include/finclude/math-vector-fortran.h
REM seed -100308977 -266757160 -1981520744 -690912983 -1253332871 -1152150871 113474667 1013455190 1465328938 -473012006 232183939 417136727 -648707915 -1944922186 -1981066587 1434586206 -1715547662 -1186319684 2090830069 -1930672804 -1663485718 -1629496938 1243270492 917419149 -1643123697 743048396 456886286 -928588184 -383266133 -914558253 559967080 -1686206850 -2038426053
REM
CELL 1.54180   50.00000   50.00000   50.00000   90.00000   90.00000   90.00000
LATT -1
SFAC C  
C      1  0.4867720000000  0.5860750000000  0.5517610000000 1.0
C      1  0.4432410000000  0.5494350000000  0.4957270000000 1.0
C      1  0.6065440000000  0.4856400000000  0.4738320000000 1.0
C      1  0.6165790000000  0.4971170000000  0.5033570000000 1.0
C      1  0.5003430000000  0.3973840000000  0.5196110000000 1.0
C      1  0.5774580000000  0.5757050000000  0.4797680000000 1.0
C      1  0.4031080000000  0.5241150000000  0.5049420000000 1.0
C      1  0.4535800000000  0.4665450000000  0.5943250000000 1.0
C      1  0.4311130000000  0.4235530000000  0.5513520000000 1.0
C      1  0.4450960000000  0.4926670000000  0.5960130000000 1.0
C      1  0.5296130000000  0.4539250000000  0.4717440000000 1.0
C      1  0.4737260000000  0.5042460000000  0.5046580000000 1.0
C      1  0.4164320000000  0.5601240000000  0.5318710000000 1.0
C      1  0.5026970000000  0.3994810000000  0.5504750000000 1.0
C      1  0.5725350000000  0.4056900000000  0.5109730000000 1.0
C      1  0.5538140000000  0.5111650000000  0.5726030000000 1.0
C      1  0.5050610000000  0.4489950000000  0.4118440000000 1.0
C      1  0.3996710000000  0.4685740000000  0.5040920000000 1.0
C      1  0.5646570000000  0.5578240000000  0.4186260000000 1.0
C      1  0.5323380000000  0.5995710000000  0.5251970000000 1.0
C      1  0.5326070000000  0.4906720000000  0.5909320000000 1.0
C      1  0.5300690000000  0.4682170000000  0.5539560000000 1.0
C      1  0.5461090000000  0.5530300000000  0.3983740000000 1.0
C      1  0.4704080000000  0.4130470000000  0.4461920000000 1.0
C      1  0.5734720000000  0.4962690000000  0.4330410000000 1.0
C      1  0.4938570000000  0.5258500000000  0.5538220000000 1.0
C      1  0.5280820000000  0.5520880000000  0.5368220000000 1.0
C      1  0.4362030000000  0.5086940000000  0.4603950000000 1.0
C      1  0.5238270000000  0.4119960000000  0.5065090000000 1.0
C      1  0.6003380000000  0.5245340000000  0.4793610000000 1.0
C      1  0.3814440000000  0.4804750000000  0.5257550000000 1.0
C      1  0.5117750000000  0.6033840000000  0.4790260000000 1.0
C      1  0.4450360000000  0.5463390000000  0.5560570000000 1.0
C      1  0.4807820000000  0.4691850000000  0.4095220000000 1.0
C      1  0.5821510000000  0.5588970000000  0.5358190000000 1.0
C      1  0.5542630000000  0.4099770000000  0.4645120000000 1.0
C      1  0.5090560000000  0.5785000000000  0.5009020000000 1.0
C      1  0.5717380000000  0.5359980000000  0.5592300000000 1.0
C      1  0.4637270000000  0.5698620000000  0.4865210000000 1.0
C      1  0.5382800000000  0.5094800000000  0.3724450000000 1.0
C      1  0.4512750000000  0.4424100000000  0.5198020000000 1.0
C      1  0.4002560000000  0.5778550000000  0.4578330000000 1.0
C      1  0.4773760000000  0.5227220000000  0.4295600000000 1.0
C      1  0.5545010000000  0.4976770000000  0.3979390000000 1.0
C      1  0.4587440000000  0.5268450000000  0.6264280000000 1.0
C      1  0.4986000000000  0.5975580000000  0.5253330000000 1.0
C      1  0.5589290000000  0.4785950000000  0.5634400000000 1.0
C      1  0.4953760000000  0.5259830000000  0.5955980000000 1.0
C      1  0.4703350000000  0.4687050000000  0.5221450000000 1.0
C      1  0.4642430000000  0.5662020000000  0.5355780000000 1.0
C      1  0.4556090000000  0.5919310000000  0.5642530000000 1.0
C      1  0.4995980000000  0.4429690000000  0.5133760000000 1.0
C      1  0.4113350000000  0.4287150000000  0.5322420000000 1.0
C      1  0.5158630000000  0.5506440000000  0.4061030000000 1.0
C      1  0.5283400000000  0.4043910000000  0.5598800000000 1.0
C      1  0.5171440000000  0.4613370000000  0.5015730000000 1.0
C      1  0.5388860000000  0.6047290000000  0.4971050000000 1.0
C      1  0.5570920000000  0.4705720000000  0.4183740000000 1.0
C      1  0.5790120000000  0.5326200000000  0.4549270000000 1.0
C      1  0.5241560000000  0.5513920000000  0.5645540000000 1.0
C      1  0.4182370000000  0.5305920000000  0.5461480000000 1.0
C      1  0.5064050000000  0.5372350000000  0.5226390000000 1.0
C      1  0.5808570000000  0.4629750000000  0.5456380000000 1.0
C      1  0.5984550000000  0.4837610000000  0.5292140000000 1.0
C      1  0.4243310000000  0.4048520000000  0.4973960000000 1.0
C      1  0.5554090000000  0.4564280000000  0.4911980000000 1.0
C      1  0.4925830000000  0.5007790000000  0.5301050000000 1.0
C      1  0.5072980000000  0.5722420000000  0.4310560000000 1.0
C      1  0.5095670000000  0.4365040000000  0.4401370000000 1.0
C      1  0.5695240000000  0.5234710000000  0.4924830000000 1.0
C      1  0.4899650000000  0.5299910000000  0.3990270000000 1.0
C      1  0.4634400000000  0.4294260000000  0.4739650000000 1.0
C      1  0.5064080000000  0.4875920000000  0.4216510000000 1.0
C      1  0.5385070000000  0.3947200000000  0.4854040000000 1.0
C      1  0.4026560000000  0.4699630000000  0.4542680000000 1.0
C      1  0.5332940000000  0.4375380000000  0.5615690000000 1.0
C      1  0.4562830000000  0.4370720000000  0.4354840000000 1.0
C      1  0.4911620000000  0.5521430000000  0.5742510000000 1.0
C      1  0.3900920000000  0.4926260000000  0.5544010000000 1.0
C      1  0.5831100000000  0.4479790000000  0.4557880000000 1.0
C      1  0.5942110000000  0.4380340000000  0.5023430000000 1.0
C      1  0.5194850000000  0.4939680000000  0.4524090000000 1.0
C      1  0.4674250000000  0.5997540000000  0.4859540000000 1.0
C      1  0.4172740000000  0.4471520000000  0.4704110000000 1.0
C      1  0.4935110000000  0.5533470000000  0.4886380000000 1.0
C      1  0.5341560000000  0.5093050000000  0.5293950000000 1.0
C      1  0.4072840000000  0.4969310000000  0.4654940000000 1.0
C      1  0.5028910000000  0.5400140000000  0.4358360000000 1.0
C      1  0.4429180000000  0.4749420000000  0.4806200000000 1.0
C      1  0.5130600000000  0.5382380000000  0.4649560000000 1.0
C      1  0.5055140000000  0.5098070000000  0.4773230000000 1.0
C      1  0.6052120000000  0.4658640000000  0.5007760000000 1.0
C      1  0.4552610000000  0.5234050000000  0.5335720000000 1.0
C      1  0.4828330000000  0.4547950000000  0.6001130000000 1.0
C      1  0.6008860000000  0.5083060000000  0.4493110000000 1.0
C      1  0.5507840000000  0.4960840000000  0.4658150000000 1.0
C      1  0.4417980000000  0.4458400000000  0.5717330000000 1.0
C      1  0.5459510000000  0.5613560000000  0.5191770000000 1.0
C      1  0.4712300000000  0.4777420000000  0.4903130000000 1.0
C      1  0.5143640000000  0.5897510000000  0.5677010000000 1.0
C      1  0.5041680000000  0.4391020000000  0.5453370000000 1.0
C      1  0.5153400000000  0.4265660000000  0.4784380000000 1.0
C      1  0.4508380000000  0.4060390000000  0.5436970000000 1.0
C      1  0.5491300000000  0.5572320000000  0.4467570000000 1.0
C      1  0.4348750000000  0.5414890000000  0.4535020000000 1.0
C      1  0.5638780000000  0.4797060000000  0.5951120000000 1.0
C      1  0.5561210000000  0.4514000000000  0.5288920000000 1.0
C      1  0.4049670000000  0.5130210000000  0.5666620000000 1.0
C      1  0.5033940000000  0.4931030000000  0.5742870000000 1.0
C      1  0.4234680000000  0.4841950000000  0.4997630000000 1.0
C      1  0.4881840000000  0.3754450000000  0.4725720000000 1.0
C      1  0.3918560000000  0.5100530000000  0.4847530000000 1.0
C      1  0.4213340000000  0.5183290000000  0.4321020000000 1.0
C      1  0.5494110000000  0.6052900000000  0.4525820000000 1.0
C      1  0.4702780000000  0.4333370000000  0.5810620000000 1.0
C      1  0.4920750000000  0.3745860000000  0.4995650000000 1.0
C      1  0.5456230000000  0.5283280000000  0.4609000000000 1.0
C      1  0.5284870000000  0.4681780000000  0.4043680000000 1.0
C      1  0.4269850000000  0.5094510000000  0.5206510000000 1.0
C      1  0.4239260000000  0.4842940000000  0.4313930000000 1.0
C      1  0.5540130000000  0.4142170000000  0.5752150000000 1.0
C      1  0.5960250000000  0.5201180000000  0.5129200000000 1.0
C      1  0.5337200000000  0.4704570000000  0.5215020000000 1.0
C      1  0.4281290000000  0.6073860000000  0.5236040000000 1.0
C      1  0.4864490000000  0.6024280000000  0.4640360000000 1.0
C      1  0.5131390000000  0.5097400000000  0.5053990000000 1.0
C      1  0.4764960000000  0.5228240000000  0.4694810000000 1.0
C      1  0.4875670000000  0.4763800000000  0.4637210000000 1.0
C      1  0.5595490000000  0.5008800000000  0.5235990000000 1.0
C      1  0.5879490000000  0.5674170000000  0.5110530000000 1.0
C      1  0.5787410000000  0.4772540000000  0.4600900000000 1.0
C      1  0.4804040000000  0.5799430000000  0.4433940000000 1.0
C      1  0.5920490000000  0.4345480000000  0.5304890000000 1.0
C      1  0.5595340000000  0.5678870000000  0.5561340000000 1.0
C      1  0.4736430000000  0.5039030000000  0.5705420000000 1.0
C      1  0.5608110000000  0.4328620000000  0.4447730000000 1.0
C      1  0.5806970000000  0.4282640000000  0.4790100000000 1.0
C      1  0.4378780000000  0.4622890000000  0.5441520000000 1.0
C      1  0.4722120000000  0.4155730000000  0.5226560000000 1.0
C      1  0.4859750000000  0.4236380000000  0.4932670000000 1.0
C      1  0.4371690000000  0.4323330000000  0.4905010000000 1.0
C      1  0.4148350000000  0.5590370000000  0.4692910000000 1.0
C      1  0.5251370000000  0.5120410000000  0.5580180000000 1.0
C      1  0.5378400000000  0.4530700000000  0.4400240000000 1.0
C      1  0.5608390000000  0.6021370000000  0.4782930000000 1.0
C      1  0.4565720000000  0.4908770000000  0.5441790000000 1.0
C      1  0.4876750000000  0.4470300000000  0.4580520000000 1.0
C      1  0.4653560000000  0.5528510000000  0.4578840000000 1.0
C      1  0.5539140000000  0.4268840000000  0.5086740000000 1.0
C      1  0.5571880000000  0.5513590000000  0.4914020000000 1.0
C      1  0.5230480000000  0.5349370000000  0.5905750000000 1.0
C      1  0.4839630000000  0.4201540000000  0.5611290000000 1.0
C      1  0.4209220000000  0.5044030000000  0.5881130000000 1.0
C      1  0.4084970000000  0.4690850000000  0.5429560000000 1.0
C      1  0.4738340000000  0.5001070000000  0.3971380000000 1.0
C      1  0.4353550000000  0.5844400000000  0.5379650000000 1.0
C      1  0.4547850000000  0.4847310000000  0.4210150000000 1.0
C      1  0.4538910000000  0.5234820000000  0.4927360000000 1.0
C      1  0.5310490000000  0.5680820000000  0.4802540000000 1.0
C      1  0.5390680000000  0.5875590000000  0.5516550000000 1.0
C      1  0.5410790000000  0.5056530000000  0.4285310000000 1.0
C      1  0.4987160000000  0.4719420000000  0.5407330000000 1.0
C      1  0.5055230000000  0.4704990000000  0.5964800000000 1.0
C      1  0.5200360000000  0.4079130000000  0.4524710000000 1.0
C      1  0.4028610000000  0.4406490000000  0.5092380000000 1.0
C      1  0.4638220000000  0.5633620000000  0.5752740000000 1.0
C      1  0.4575110000000  0.5701240000000  0.4226900000000 1.0
C      1  0.5630180000000  0.4894070000000  0.4948570000000 1.0
C      1  0.4407870000000  0.4608030000000  0.4497410000000 1.0
C      1  0.5216470000000  0.5087220000000  0.4005210000000 1.0
C      1  0.4664220000000  0.4987080000000  0.4490450000000 1.0
C      1  0.4671670000000  0.5137810000000  0.6028300000000 1.0
C      1  0.4616560000000  0.5454740000000  0.4108060000000 1.0
C      1  0.4752740000000  0.6116710000000  0.5094900000000 1.0
C      1  0.4917290000000  0.3941990000000  0.4514300000000 1.0
C      1  0.4125970000000  0.5531300000000  0.5008830000000 1.0
C      1  0.5817950000000  0.5643780000000  0.4479900000000 1.0
C      1  0.5299250000000  0.5807660000000  0.4488020000000 1.0
C      1  0.5836750000000  0.5116870000000  0.5418320000000 1.0
C      1  0.4765980000000  0.5446780000000  0.5173400000000 1.0
END
