TITL C-2778425-5191-383 0.00105881829993236 125000 -256.856256011853 0 0 46 (C1) n - 1
REM
REM in /home/nfs/bkarasulu/CARBON/AIRSS/Generating-Clusters/REBO/Only-C1/SD-CG/HFTN-CG
REM
REM
REM
REM
REM
REM ./C.cell (11c1c37f851c82e70ff6c80c92926a4b)
REM
REM compiler GCC version 9.2.1 20190827 (Red Hat 9.2.1-1)
REM options -cpp -mtune=generic -march=x86-64 -g -O0 -fpre-include=/usr/include/finclude/math-vector-fortran.h
REM seed 2048694052 -1372943797 -66227887 112770945 1660766505 -2073636466 835527167 1323986362 -1672476330 1062666774 -193561073 276028787 583765192 -216877944 -1449732106 1431590210 355889149 1478767691 1701004375 -1757104623 618639354 -1629991486 643691495 -1115228051 735668378 -1680108163 811280429 284590181 -507568136 -1045309912 -1795469853 -1794758060 1822226003
REM
CELL 1.54180   50.00000   50.00000   50.00000   90.00000   90.00000   90.00000
LATT -1
SFAC C  
C      1  0.4937120000000  0.4976250000000  0.5813920000000 1.0
C      1  0.4616720000000  0.4478980000000  0.5449620000000 1.0
C      1  0.5670030000000  0.5269730000000  0.5248240000000 1.0
C      1  0.4706710000000  0.4427060000000  0.5713780000000 1.0
C      1  0.6050120000000  0.5622000000000  0.5360330000000 1.0
C      1  0.5155880000000  0.5259510000000  0.4187180000000 1.0
C      1  0.5859210000000  0.5445070000000  0.5304030000000 1.0
C      1  0.4313130000000  0.5283690000000  0.4928960000000 1.0
C      1  0.4534910000000  0.4682870000000  0.4618630000000 1.0
C      1  0.5197180000000  0.5258340000000  0.4513040000000 1.0
C      1  0.5323540000000  0.4727580000000  0.5666110000000 1.0
C      1  0.5088680000000  0.4732220000000  0.5831240000000 1.0
C      1  0.4674490000000  0.5136650000000  0.5676480000000 1.0
C      1  0.4779460000000  0.4611510000000  0.4517220000000 1.0
C      1  0.4798960000000  0.4404670000000  0.5246000000000 1.0
C      1  0.5106410000000  0.5179380000000  0.4766950000000 1.0
C      1  0.4926450000000  0.4500220000000  0.5860100000000 1.0
C      1  0.4918150000000  0.5325630000000  0.3962690000000 1.0
C      1  0.4864870000000  0.5113660000000  0.3724140000000 1.0
C      1  0.5411230000000  0.5409520000000  0.4331160000000 1.0
C      1  0.4626310000000  0.5216500000000  0.5186680000000 1.0
C      1  0.4325730000000  0.5005980000000  0.5027910000000 1.0
C      1  0.5017230000000  0.4653620000000  0.4657120000000 1.0
C      1  0.5034980000000  0.4469880000000  0.5118760000000 1.0
C      1  0.4425430000000  0.4681160000000  0.5392480000000 1.0
C      1  0.4892480000000  0.5313000000000  0.4995230000000 1.0
C      1  0.5454080000000  0.5069580000000  0.5184560000000 1.0
C      1  0.4085980000000  0.5399590000000  0.4835420000000 1.0
C      1  0.5457720000000  0.4591890000000  0.4890900000000 1.0
C      1  0.4719500000000  0.4935800000000  0.5028410000000 1.0
C      1  0.5160300000000  0.4768900000000  0.5164620000000 1.0
C      1  0.4486310000000  0.5168670000000  0.5465680000000 1.0
C      1  0.5406950000000  0.4793220000000  0.5381310000000 1.0
C      1  0.5636160000000  0.5554230000000  0.4308520000000 1.0
C      1  0.4577600000000  0.5427990000000  0.4934910000000 1.0
C      1  0.6237990000000  0.5796120000000  0.5415730000000 1.0
C      1  0.4480290000000  0.4817870000000  0.4853930000000 1.0
C      1  0.5192170000000  0.5174230000000  0.5089590000000 1.0
C      1  0.4949870000000  0.5103340000000  0.5528120000000 1.0
C      1  0.4963840000000  0.5015520000000  0.5251520000000 1.0
C      1  0.4359180000000  0.4945630000000  0.5309870000000 1.0
C      1  0.5096610000000  0.5044530000000  0.3939070000000 1.0
C      1  0.5015770000000  0.4884400000000  0.4878740000000 1.0
C      1  0.5548970000000  0.4766850000000  0.5073260000000 1.0
C      1  0.5186250000000  0.4511390000000  0.4859790000000 1.0
C      1  0.4729050000000  0.5045590000000  0.3508040000000 1.0
END
