TITL C-2778423-5760-435 -0.00142497610077972 125000 -430.112251916569 0 0 73 (C1) n - 1
REM
REM in /home/nfs/bkarasulu/CARBON/AIRSS/Generating-Clusters/REBO/Only-C1/SD-CG/HFTN-CG
REM
REM
REM
REM
REM
REM ./C.cell (11c1c37f851c82e70ff6c80c92926a4b)
REM
REM compiler GCC version 9.2.1 20190827 (Red Hat 9.2.1-1)
REM options -cpp -mtune=generic -march=x86-64 -g -O0 -fpre-include=/usr/include/finclude/math-vector-fortran.h
REM seed -1645118083 -1283322215 400838594 393317166 -869597611 -1291876117 825947114 862487552 1803753751 -1183806145 -1946965752 316090386 -74166538 765148179 -1079065801 1835580526 244230248 1323454837 1166396218 -795644402 1220738081 1602613965 -1331353921 2102223829 796857988 1878357633 789828888 -1542514329 743042744 317417013 -2086126050 547306965 1014549585
REM
CELL 1.54180   50.00000   50.00000   50.00000   90.00000   90.00000   90.00000
LATT -1
SFAC C  
C      1  0.5674110000000  0.5290960000000  0.4564340000000 1.0
C      1  0.5426800000000  0.4839260000000  0.5500580000000 1.0
C      1  0.5127690000000  0.5243540000000  0.5385330000000 1.0
C      1  0.5363270000000  0.5021310000000  0.5232420000000 1.0
C      1  0.5326990000000  0.5255340000000  0.4888440000000 1.0
C      1  0.5502260000000  0.5306710000000  0.5271730000000 1.0
C      1  0.5203210000000  0.5028070000000  0.5596350000000 1.0
C      1  0.4959430000000  0.5835980000000  0.5071200000000 1.0
C      1  0.4582970000000  0.5537920000000  0.5694610000000 1.0
C      1  0.5504340000000  0.4591130000000  0.4963410000000 1.0
C      1  0.5303230000000  0.5520840000000  0.5002440000000 1.0
C      1  0.5249530000000  0.5529220000000  0.5320030000000 1.0
C      1  0.4745810000000  0.4636170000000  0.4853380000000 1.0
C      1  0.4666180000000  0.5082810000000  0.5539550000000 1.0
C      1  0.4356450000000  0.4600670000000  0.5216610000000 1.0
C      1  0.4654870000000  0.4552570000000  0.5622130000000 1.0
C      1  0.5223920000000  0.5468320000000  0.4412840000000 1.0
C      1  0.5412260000000  0.4557000000000  0.5481010000000 1.0
C      1  0.4414180000000  0.5355780000000  0.4725210000000 1.0
C      1  0.5074290000000  0.5663870000000  0.4609430000000 1.0
C      1  0.5150980000000  0.4450320000000  0.4635110000000 1.0
C      1  0.5223190000000  0.4769070000000  0.4670080000000 1.0
C      1  0.5277290000000  0.4833510000000  0.5000860000000 1.0
C      1  0.5547840000000  0.4465380000000  0.5246790000000 1.0
C      1  0.4569420000000  0.5601430000000  0.4884120000000 1.0
C      1  0.4407480000000  0.4520610000000  0.5484720000000 1.0
C      1  0.5425240000000  0.4365470000000  0.4768690000000 1.0
C      1  0.6021370000000  0.5420710000000  0.5266940000000 1.0
C      1  0.4379790000000  0.4673750000000  0.4698490000000 1.0
C      1  0.4914250000000  0.4382580000000  0.4797210000000 1.0
C      1  0.4219540000000  0.5254960000000  0.5441480000000 1.0
C      1  0.5410470000000  0.4975790000000  0.4217140000000 1.0
C      1  0.4490690000000  0.5100600000000  0.4512110000000 1.0
C      1  0.4375680000000  0.5457310000000  0.5283580000000 1.0
C      1  0.4882800000000  0.4364220000000  0.5575450000000 1.0
C      1  0.4837870000000  0.5116430000000  0.5021160000000 1.0
C      1  0.5188660000000  0.4426130000000  0.5609430000000 1.0
C      1  0.4923510000000  0.5372530000000  0.4540740000000 1.0
C      1  0.5492660000000  0.5408370000000  0.4393360000000 1.0
C      1  0.4213410000000  0.5101060000000  0.4707870000000 1.0
C      1  0.4916520000000  0.4926810000000  0.4181330000000 1.0
C      1  0.4757210000000  0.4824230000000  0.5614120000000 1.0
C      1  0.5025110000000  0.5747920000000  0.5344590000000 1.0
C      1  0.4779100000000  0.5134870000000  0.4384180000000 1.0
C      1  0.5044040000000  0.4656470000000  0.5272170000000 1.0
C      1  0.4977380000000  0.4368480000000  0.5275750000000 1.0
C      1  0.5030420000000  0.4794210000000  0.5526840000000 1.0
C      1  0.4656070000000  0.5468590000000  0.5308930000000 1.0
C      1  0.4664480000000  0.4820490000000  0.4599950000000 1.0
C      1  0.4940710000000  0.4814190000000  0.5012790000000 1.0
C      1  0.4835430000000  0.5215670000000  0.5298990000000 1.0
C      1  0.5603650000000  0.4306730000000  0.4562940000000 1.0
C      1  0.4787060000000  0.5670440000000  0.5494040000000 1.0
C      1  0.6277340000000  0.5476920000000  0.5264580000000 1.0
C      1  0.4467310000000  0.5274210000000  0.5626980000000 1.0
C      1  0.4194690000000  0.4819300000000  0.5127190000000 1.0
C      1  0.4684810000000  0.5815670000000  0.4993770000000 1.0
C      1  0.4515620000000  0.4207350000000  0.4980870000000 1.0
C      1  0.5165100000000  0.4793960000000  0.4203410000000 1.0
C      1  0.4980930000000  0.4944110000000  0.4575160000000 1.0
C      1  0.5542450000000  0.4487230000000  0.4348940000000 1.0
C      1  0.5761270000000  0.5363590000000  0.5269340000000 1.0
C      1  0.4949320000000  0.4235820000000  0.5027680000000 1.0
C      1  0.5086250000000  0.5127680000000  0.4811960000000 1.0
C      1  0.4123840000000  0.5025000000000  0.5308550000000 1.0
C      1  0.5497240000000  0.4789380000000  0.4469560000000 1.0
C      1  0.5599260000000  0.4853850000000  0.4768650000000 1.0
C      1  0.5577630000000  0.5142160000000  0.4790680000000 1.0
C      1  0.4525780000000  0.4483230000000  0.5016840000000 1.0
C      1  0.4200060000000  0.4851020000000  0.4841420000000 1.0
C      1  0.5142320000000  0.5720270000000  0.4876290000000 1.0
C      1  0.4740390000000  0.5325320000000  0.4794590000000 1.0
C      1  0.5227240000000  0.4537130000000  0.4320570000000 1.0
END
