TITL C-2778432-5617-384 -0.00227141410565405 125000 -297.056973002461 0 0 53 (C1) n - 1
REM
REM in /home/nfs/bkarasulu/CARBON/AIRSS/Generating-Clusters/REBO/Only-C1/SD-CG/HFTN-CG
REM
REM
REM
REM
REM
REM ./C.cell (11c1c37f851c82e70ff6c80c92926a4b)
REM
REM compiler GCC version 9.2.1 20190827 (Red Hat 9.2.1-1)
REM options -cpp -mtune=generic -march=x86-64 -g -O0 -fpre-include=/usr/include/finclude/math-vector-fortran.h
REM seed -2101170424 -270293273 2060170257 1154686600 1705399156 372301590 652510537 -897459571 -486782906 -1452783993 1002756483 430489832 1514662476 1579844332 -1851643489 -1772843933 104355257 -1133559281 888563864 1844707786 1021717299 283191342 1418350174 288804669 485976978 1967613091 742723313 983249346 -675211354 910559694 -795261076 -1374815801 -116847689
REM
CELL 1.54180   50.00000   50.00000   50.00000   90.00000   90.00000   90.00000
LATT -1
SFAC C  
C      1  0.4508450000000  0.4664190000000  0.5664920000000 1.0
C      1  0.5471320000000  0.5109640000000  0.4789010000000 1.0
C      1  0.5095460000000  0.4512930000000  0.5390820000000 1.0
C      1  0.5000390000000  0.4355460000000  0.5195070000000 1.0
C      1  0.4987200000000  0.5337950000000  0.4684570000000 1.0
C      1  0.5272520000000  0.5261230000000  0.5098260000000 1.0
C      1  0.4995550000000  0.5360430000000  0.5004450000000 1.0
C      1  0.3912800000000  0.4929030000000  0.4858490000000 1.0
C      1  0.5350970000000  0.5639420000000  0.4460160000000 1.0
C      1  0.5810910000000  0.4680410000000  0.4892870000000 1.0
C      1  0.4341920000000  0.5175180000000  0.5029610000000 1.0
C      1  0.4757500000000  0.5337310000000  0.5389340000000 1.0
C      1  0.5705240000000  0.4783550000000  0.5131260000000 1.0
C      1  0.4992510000000  0.5226960000000  0.5498050000000 1.0
C      1  0.5348970000000  0.5540530000000  0.4962320000000 1.0
C      1  0.4571590000000  0.5162850000000  0.4552960000000 1.0
C      1  0.5212550000000  0.5769350000000  0.5112470000000 1.0
C      1  0.4529530000000  0.5350260000000  0.5244330000000 1.0
C      1  0.5029860000000  0.5039760000000  0.4596960000000 1.0
C      1  0.4332700000000  0.4623710000000  0.5455430000000 1.0
C      1  0.5751280000000  0.4825090000000  0.4651240000000 1.0
C      1  0.4679040000000  0.4402430000000  0.4836030000000 1.0
C      1  0.4426200000000  0.4426470000000  0.4636260000000 1.0
C      1  0.5418310000000  0.4493980000000  0.4468800000000 1.0
C      1  0.4711790000000  0.5409270000000  0.4571630000000 1.0
C      1  0.5794680000000  0.5127830000000  0.4695190000000 1.0
C      1  0.5293070000000  0.4959990000000  0.4594820000000 1.0
C      1  0.5446940000000  0.5755570000000  0.4245720000000 1.0
C      1  0.5493290000000  0.4757960000000  0.4525730000000 1.0
C      1  0.5725180000000  0.4999190000000  0.5370480000000 1.0
C      1  0.4168290000000  0.4906120000000  0.4968030000000 1.0
C      1  0.4091400000000  0.4443730000000  0.5332030000000 1.0
C      1  0.5434630000000  0.4853140000000  0.5407770000000 1.0
C      1  0.5281640000000  0.4281100000000  0.4562160000000 1.0
C      1  0.4478000000000  0.4526610000000  0.5898630000000 1.0
C      1  0.4422970000000  0.4991330000000  0.4769810000000 1.0
C      1  0.5102850000000  0.4198640000000  0.4746580000000 1.0
C      1  0.4765090000000  0.4931700000000  0.4572480000000 1.0
C      1  0.4201960000000  0.4700420000000  0.5171260000000 1.0
C      1  0.5250060000000  0.5517300000000  0.4685630000000 1.0
C      1  0.4955620000000  0.5627630000000  0.5111640000000 1.0
C      1  0.5181390000000  0.4763600000000  0.5487730000000 1.0
C      1  0.4727410000000  0.4836500000000  0.5633740000000 1.0
C      1  0.5436770000000  0.4994740000000  0.5097830000000 1.0
C      1  0.4976550000000  0.4947490000000  0.5565590000000 1.0
C      1  0.5692520000000  0.5270100000000  0.5260520000000 1.0
C      1  0.4621430000000  0.4693410000000  0.4685750000000 1.0
C      1  0.5237550000000  0.5365620000000  0.5482600000000 1.0
C      1  0.5707590000000  0.5273550000000  0.4975750000000 1.0
C      1  0.4915320000000  0.4291910000000  0.4935030000000 1.0
C      1  0.5489590000000  0.5417950000000  0.5395200000000 1.0
C      1  0.4265040000000  0.5486330000000  0.5137730000000 1.0
C      1  0.4628610000000  0.5663150000000  0.4509240000000 1.0
END
