TITL C-2778428-5639-673 1.09505878392265e-07 125000 -165.761019052745 0 0 30 (C1) n - 1
REM
REM in /home/nfs/bkarasulu/CARBON/AIRSS/Generating-Clusters/REBO/Only-C1/SD-CG/HFTN-CG
REM
REM
REM
REM
REM
REM ./C.cell (11c1c37f851c82e70ff6c80c92926a4b)
REM
REM compiler GCC version 9.2.1 20190827 (Red Hat 9.2.1-1)
REM options -cpp -mtune=generic -march=x86-64 -g -O0 -fpre-include=/usr/include/finclude/math-vector-fortran.h
REM seed -2139609108 696834774 1456642288 1948537130 -118485905 -1426468798 -414019667 309857557 449478522 -209225432 1789436699 1695636777 -51780315 821880319 1108540594 -1445596736 1109631975 -1427515544 -327324052 -909591577 -1288630643 -1318491669 -1545917815 1261681059 -990421918 13544036 1279087207 576418073 -1693128092 -764314794 -1700126903 -1385676686 299295638
REM
CELL 1.54180   50.00000   50.00000   50.00000   90.00000   90.00000   90.00000
LATT -1
SFAC C  
C      1  0.5471850000000  0.4474340000000  0.4155090000000 1.0
C      1  0.4287790000000  0.4975580000000  0.5045330000000 1.0
C      1  0.5266730000000  0.4602780000000  0.5117530000000 1.0
C      1  0.5345750000000  0.4574210000000  0.4361990000000 1.0
C      1  0.4849170000000  0.5334700000000  0.4827170000000 1.0
C      1  0.4684380000000  0.4820620000000  0.4740180000000 1.0
C      1  0.4254860000000  0.5056470000000  0.5299970000000 1.0
C      1  0.5339530000000  0.5075390000000  0.4932290000000 1.0
C      1  0.4948170000000  0.4770560000000  0.4710890000000 1.0
C      1  0.5216270000000  0.4676760000000  0.4574450000000 1.0
C      1  0.5176700000000  0.5205360000000  0.5157200000000 1.0
C      1  0.4775680000000  0.5432410000000  0.5290970000000 1.0
C      1  0.5119720000000  0.4992480000000  0.5595420000000 1.0
C      1  0.4868250000000  0.5067380000000  0.5694540000000 1.0
C      1  0.4615250000000  0.5360240000000  0.4068120000000 1.0
C      1  0.4770780000000  0.5343260000000  0.4572800000000 1.0
C      1  0.4692400000000  0.5351810000000  0.4318440000000 1.0
C      1  0.4449830000000  0.4890680000000  0.4848760000000 1.0
C      1  0.4603490000000  0.5108480000000  0.5676870000000 1.0
C      1  0.5325330000000  0.4268390000000  0.5462620000000 1.0
C      1  0.5191950000000  0.4721070000000  0.5572300000000 1.0
C      1  0.5616130000000  0.5066990000000  0.5000230000000 1.0
C      1  0.5231080000000  0.4795260000000  0.4885450000000 1.0
C      1  0.4931500000000  0.5325710000000  0.5094320000000 1.0
C      1  0.4374070000000  0.5106280000000  0.5536370000000 1.0
C      1  0.5268660000000  0.5177230000000  0.5426780000000 1.0
C      1  0.5263540000000  0.4521940000000  0.5386230000000 1.0
C      1  0.5296400000000  0.5240960000000  0.4674580000000 1.0
C      1  0.5260810000000  0.5377550000000  0.4461970000000 1.0
C      1  0.5503920000000  0.5285120000000  0.5511150000000 1.0
END
