TITL C-2778424-3986-1288 -0.0292262919771341 125000 -383.311092109611 0 0 66 (C1) n - 1
REM
REM in /home/nfs/bkarasulu/CARBON/AIRSS/Generating-Clusters/REBO/Only-C1/SD-CG/HFTN-CG
REM
REM
REM
REM
REM
REM ./C.cell (11c1c37f851c82e70ff6c80c92926a4b)
REM
REM compiler GCC version 9.2.1 20190827 (Red Hat 9.2.1-1)
REM options -cpp -mtune=generic -march=x86-64 -g -O0 -fpre-include=/usr/include/finclude/math-vector-fortran.h
REM seed 1754228129 -1362017577 1216528984 -1557127929 -1146558401 2138063466 1020870262 1606149818 383187966 -1563781284 1503667290 -992907504 1625069599 317206316 1424703267 -1947699166 893150126 1549268235 -1605794091 -479182770 -2106335558 2103305314 -1630892908 1223634 -2011666584 -336249653 -2042215205 2102327048 -1063047517 -283082977 1745204773 -463896063 924439652
REM
CELL 1.54180   50.00000   50.00000   50.00000   90.00000   90.00000   90.00000
LATT -1
SFAC C  
C      1  0.5457510000000  0.4468390000000  0.4711180000000 1.0
C      1  0.5270410000000  0.5132800000000  0.5557250000000 1.0
C      1  0.5748250000000  0.5110090000000  0.4724900000000 1.0
C      1  0.4474300000000  0.5548900000000  0.4779420000000 1.0
C      1  0.5147580000000  0.4356650000000  0.5480000000000 1.0
C      1  0.4901700000000  0.5062160000000  0.5375410000000 1.0
C      1  0.5239690000000  0.5550960000000  0.5335300000000 1.0
C      1  0.5395220000000  0.5364390000000  0.4471780000000 1.0
C      1  0.5279930000000  0.5201210000000  0.4838880000000 1.0
C      1  0.5000930000000  0.4538810000000  0.4477690000000 1.0
C      1  0.5296440000000  0.4457740000000  0.4471600000000 1.0
C      1  0.5149590000000  0.5477480000000  0.4536670000000 1.0
C      1  0.4956300000000  0.5677900000000  0.4645170000000 1.0
C      1  0.4080430000000  0.5092340000000  0.5224190000000 1.0
C      1  0.4474710000000  0.4890810000000  0.4667650000000 1.0
C      1  0.5142320000000  0.4700800000000  0.5733830000000 1.0
C      1  0.5554410000000  0.5237050000000  0.5155550000000 1.0
C      1  0.5077430000000  0.5110680000000  0.5098590000000 1.0
C      1  0.5465150000000  0.5456620000000  0.4936300000000 1.0
C      1  0.5392520000000  0.5050470000000  0.4554790000000 1.0
C      1  0.4473630000000  0.4436530000000  0.5246210000000 1.0
C      1  0.5322700000000  0.4739980000000  0.5279800000000 1.0
C      1  0.4475740000000  0.5371650000000  0.4494030000000 1.0
C      1  0.5008540000000  0.5740990000000  0.4925930000000 1.0
C      1  0.4997250000000  0.5262980000000  0.5636240000000 1.0
C      1  0.4686960000000  0.5624130000000  0.4557040000000 1.0
C      1  0.5266600000000  0.4718150000000  0.4956740000000 1.0
C      1  0.5069580000000  0.4505420000000  0.4795750000000 1.0
C      1  0.4692430000000  0.4900810000000  0.4333250000000 1.0
C      1  0.4732260000000  0.5344550000000  0.5441170000000 1.0
C      1  0.5674870000000  0.4894240000000  0.4506070000000 1.0
C      1  0.5533990000000  0.4414720000000  0.5185600000000 1.0
C      1  0.4944760000000  0.5027930000000  0.4354910000000 1.0
C      1  0.4785770000000  0.5263640000000  0.5049970000000 1.0
C      1  0.4461740000000  0.5093190000000  0.4421100000000 1.0
C      1  0.5552930000000  0.4767180000000  0.4786610000000 1.0
C      1  0.5612800000000  0.5359800000000  0.4679480000000 1.0
C      1  0.5281430000000  0.4851530000000  0.5536840000000 1.0
C      1  0.5008370000000  0.4892010000000  0.4864970000000 1.0
C      1  0.5248300000000  0.5642580000000  0.5061410000000 1.0
C      1  0.4869540000000  0.4686970000000  0.5716020000000 1.0
C      1  0.4742220000000  0.4593200000000  0.5234340000000 1.0
C      1  0.4541190000000  0.5030390000000  0.5046840000000 1.0
C      1  0.4969440000000  0.4387780000000  0.5275930000000 1.0
C      1  0.5420110000000  0.4334740000000  0.5437030000000 1.0
C      1  0.4771570000000  0.4380750000000  0.4886840000000 1.0
C      1  0.5397500000000  0.5310820000000  0.5380960000000 1.0
C      1  0.4974120000000  0.5576220000000  0.5502840000000 1.0
C      1  0.5094160000000  0.4968390000000  0.4573960000000 1.0
C      1  0.4673730000000  0.5142590000000  0.4754760000000 1.0
C      1  0.5619280000000  0.4710630000000  0.5174450000000 1.0
C      1  0.4835670000000  0.5825650000000  0.5374020000000 1.0
C      1  0.4542600000000  0.5611730000000  0.5048620000000 1.0
C      1  0.4340280000000  0.5008290000000  0.5259810000000 1.0
C      1  0.5066520000000  0.4256250000000  0.5006500000000 1.0
C      1  0.4446710000000  0.4897120000000  0.5486350000000 1.0
C      1  0.5683090000000  0.4983800000000  0.5018840000000 1.0
C      1  0.4730000000000  0.4769240000000  0.4965930000000 1.0
C      1  0.4731520000000  0.4635940000000  0.4447490000000 1.0
C      1  0.4968630000000  0.5297050000000  0.4763100000000 1.0
C      1  0.4499030000000  0.5435220000000  0.5269300000000 1.0
C      1  0.4774630000000  0.5785440000000  0.5095540000000 1.0
C      1  0.4253350000000  0.4308040000000  0.5255940000000 1.0
C      1  0.4744820000000  0.4807290000000  0.5459650000000 1.0
C      1  0.5390690000000  0.4324890000000  0.4949830000000 1.0
C      1  0.4584130000000  0.4593310000000  0.4725850000000 1.0
END
