TITL C-2778424-3986-1152 0.000196746420721016 125000 -1133.75455226984 0 0 191 (C1) n - 1
REM
REM in /home/nfs/bkarasulu/CARBON/AIRSS/Generating-Clusters/REBO/Only-C1/SD-CG/HFTN-CG
REM
REM
REM
REM
REM
REM ./C.cell (11c1c37f851c82e70ff6c80c92926a4b)
REM
REM compiler GCC version 9.2.1 20190827 (Red Hat 9.2.1-1)
REM options -cpp -mtune=generic -march=x86-64 -g -O0 -fpre-include=/usr/include/finclude/math-vector-fortran.h
REM seed -933966410 -581720242 -400948773 1561437175 1109405539 -1064322568 -947234697 1055041394 -1945404618 1471595294 2134645911 -1552687437 2095452758 -1712458723 -555641967 1918291264 -1469607697 -1226513019 -660302788 -327428750 1017982080 -596963708 882594861 -2007607501 1369514269 -721441093 338021125 -871631408 -2130434404 -193074194 -135982754 69335741 1940329139
REM
CELL 1.54180   50.00000   50.00000   50.00000   90.00000   90.00000   90.00000
LATT -1
SFAC C  
C      1  0.5390260000000  0.4784250000000  0.5110880000000 1.0
C      1  0.5346310000000  0.5911390000000  0.5147040000000 1.0
C      1  0.5213440000000  0.4525850000000  0.4187830000000 1.0
C      1  0.5478240000000  0.4669610000000  0.4265500000000 1.0
C      1  0.5070830000000  0.4246490000000  0.4853140000000 1.0
C      1  0.5992520000000  0.5112110000000  0.4968590000000 1.0
C      1  0.4609830000000  0.5271880000000  0.4470120000000 1.0
C      1  0.4222790000000  0.4829200000000  0.5081270000000 1.0
C      1  0.4020680000000  0.4608800000000  0.5102110000000 1.0
C      1  0.5238210000000  0.4744480000000  0.3928780000000 1.0
C      1  0.5991650000000  0.5300050000000  0.4413700000000 1.0
C      1  0.6051650000000  0.5024690000000  0.5351910000000 1.0
C      1  0.4368880000000  0.4940390000000  0.5861900000000 1.0
C      1  0.5219990000000  0.4528730000000  0.6041460000000 1.0
C      1  0.4825260000000  0.5012870000000  0.5514790000000 1.0
C      1  0.5427490000000  0.4958180000000  0.5598970000000 1.0
C      1  0.5500410000000  0.5282470000000  0.5207420000000 1.0
C      1  0.5308460000000  0.3940470000000  0.4946440000000 1.0
C      1  0.4945110000000  0.5485230000000  0.5303740000000 1.0
C      1  0.4695010000000  0.5597640000000  0.4885190000000 1.0
C      1  0.4547350000000  0.5688620000000  0.5615090000000 1.0
C      1  0.5653820000000  0.5689190000000  0.4312910000000 1.0
C      1  0.5170190000000  0.6173490000000  0.4715760000000 1.0
C      1  0.5736480000000  0.4788940000000  0.5418830000000 1.0
C      1  0.5993330000000  0.4822570000000  0.4805330000000 1.0
C      1  0.5830470000000  0.5782100000000  0.5184180000000 1.0
C      1  0.4889850000000  0.4329630000000  0.4020800000000 1.0
C      1  0.5104470000000  0.4704970000000  0.5799080000000 1.0
C      1  0.5867860000000  0.4496240000000  0.5306250000000 1.0
C      1  0.5830690000000  0.5653790000000  0.4557800000000 1.0
C      1  0.4982780000000  0.4200130000000  0.5785560000000 1.0
C      1  0.5210330000000  0.4962390000000  0.6136690000000 1.0
C      1  0.4565570000000  0.5806320000000  0.5078470000000 1.0
C      1  0.5810940000000  0.4600000000000  0.4274320000000 1.0
C      1  0.4298880000000  0.4872990000000  0.4084010000000 1.0
C      1  0.5236190000000  0.4563780000000  0.5316330000000 1.0
C      1  0.4520960000000  0.4378870000000  0.5114440000000 1.0
C      1  0.4095170000000  0.5385220000000  0.5471020000000 1.0
C      1  0.5632030000000  0.5121290000000  0.5908000000000 1.0
C      1  0.4394740000000  0.5923090000000  0.4603160000000 1.0
C      1  0.4227020000000  0.5794560000000  0.5033090000000 1.0
C      1  0.4965950000000  0.4702850000000  0.4691910000000 1.0
C      1  0.4842990000000  0.4826650000000  0.5163640000000 1.0
C      1  0.5224290000000  0.4432400000000  0.5021670000000 1.0
C      1  0.4899710000000  0.5318700000000  0.4422270000000 1.0
C      1  0.5100450000000  0.4905550000000  0.4482160000000 1.0
C      1  0.5459730000000  0.4949230000000  0.3953770000000 1.0
C      1  0.5071650000000  0.3802690000000  0.5062770000000 1.0
C      1  0.3948120000000  0.4549230000000  0.5376470000000 1.0
C      1  0.5179980000000  0.5544120000000  0.5517010000000 1.0
C      1  0.5641960000000  0.4310740000000  0.4694990000000 1.0
C      1  0.5053710000000  0.5623250000000  0.6016040000000 1.0
C      1  0.5020300000000  0.5261380000000  0.3940860000000 1.0
C      1  0.4488580000000  0.4728450000000  0.4773740000000 1.0
C      1  0.4437020000000  0.4250460000000  0.4272190000000 1.0
C      1  0.5082520000000  0.4723630000000  0.4976880000000 1.0
C      1  0.5087130000000  0.5241510000000  0.4942790000000 1.0
C      1  0.4967640000000  0.5028300000000  0.6059560000000 1.0
C      1  0.5459330000000  0.4130300000000  0.5166890000000 1.0
C      1  0.4197570000000  0.4883330000000  0.5619590000000 1.0
C      1  0.5139140000000  0.4207440000000  0.4179950000000 1.0
C      1  0.5416180000000  0.5951640000000  0.5634940000000 1.0
C      1  0.5681330000000  0.5831230000000  0.5637790000000 1.0
C      1  0.5002390000000  0.4073400000000  0.4437650000000 1.0
C      1  0.5316540000000  0.5026990000000  0.5302230000000 1.0
C      1  0.4047350000000  0.5320540000000  0.4925100000000 1.0
C      1  0.4040050000000  0.4856490000000  0.4559100000000 1.0
C      1  0.4519600000000  0.4857760000000  0.5500790000000 1.0
C      1  0.4498160000000  0.4015040000000  0.5146300000000 1.0
C      1  0.4783530000000  0.5234610000000  0.5867180000000 1.0
C      1  0.4369580000000  0.5398560000000  0.5631990000000 1.0
C      1  0.5469920000000  0.4648010000000  0.5527530000000 1.0
C      1  0.5754660000000  0.5125120000000  0.4320560000000 1.0
C      1  0.4674330000000  0.4313090000000  0.5751520000000 1.0
C      1  0.4373840000000  0.4634330000000  0.5288250000000 1.0
C      1  0.4861880000000  0.5694820000000  0.5744200000000 1.0
C      1  0.5325250000000  0.5576450000000  0.5221520000000 1.0
C      1  0.5755650000000  0.5057430000000  0.5205780000000 1.0
C      1  0.5467040000000  0.4336210000000  0.5547610000000 1.0
C      1  0.5179110000000  0.5806250000000  0.5687200000000 1.0
C      1  0.4709120000000  0.4637080000000  0.4201190000000 1.0
C      1  0.5538970000000  0.4692230000000  0.6442010000000 1.0
C      1  0.4120200000000  0.5372710000000  0.4351130000000 1.0
C      1  0.4540000000000  0.5700880000000  0.4193900000000 1.0
C      1  0.5113260000000  0.4264470000000  0.6020600000000 1.0
C      1  0.5711420000000  0.4231080000000  0.5371680000000 1.0
C      1  0.4470410000000  0.5206270000000  0.5854680000000 1.0
C      1  0.4519350000000  0.5520690000000  0.4666360000000 1.0
C      1  0.4047380000000  0.4439270000000  0.4870150000000 1.0
C      1  0.5691190000000  0.4695270000000  0.5033030000000 1.0
C      1  0.4897920000000  0.5887050000000  0.4463000000000 1.0
C      1  0.5709880000000  0.4885100000000  0.4126780000000 1.0
C      1  0.4841060000000  0.3800090000000  0.4900250000000 1.0
C      1  0.4208790000000  0.5763980000000  0.4728430000000 1.0
C      1  0.4278540000000  0.4329710000000  0.5420360000000 1.0
C      1  0.4149200000000  0.5504690000000  0.5166700000000 1.0
C      1  0.5608060000000  0.5822930000000  0.5003820000000 1.0
C      1  0.4761440000000  0.4903860000000  0.5829570000000 1.0
C      1  0.5341860000000  0.5223760000000  0.4027510000000 1.0
C      1  0.5668940000000  0.4339650000000  0.4145340000000 1.0
C      1  0.4787430000000  0.4278230000000  0.4836400000000 1.0
C      1  0.5472810000000  0.5238700000000  0.4403860000000 1.0
C      1  0.4663110000000  0.4025110000000  0.4896950000000 1.0
C      1  0.4901740000000  0.6285810000000  0.4792660000000 1.0
C      1  0.4352150000000  0.4733310000000  0.4529310000000 1.0
C      1  0.5344900000000  0.5501320000000  0.4553850000000 1.0
C      1  0.6044500000000  0.5554350000000  0.4717670000000 1.0
C      1  0.5071030000000  0.5430390000000  0.4673560000000 1.0
C      1  0.4425500000000  0.5011750000000  0.4925820000000 1.0
C      1  0.5386070000000  0.6097530000000  0.5389980000000 1.0
C      1  0.4809480000000  0.5734420000000  0.4217260000000 1.0
C      1  0.4728520000000  0.4086150000000  0.4491280000000 1.0
C      1  0.5862050000000  0.5199310000000  0.4696330000000 1.0
C      1  0.5412610000000  0.4902730000000  0.4455820000000 1.0
C      1  0.5839540000000  0.5934370000000  0.5424510000000 1.0
C      1  0.4020310000000  0.4525950000000  0.4599080000000 1.0
C      1  0.5118190000000  0.5012860000000  0.5690030000000 1.0
C      1  0.5756840000000  0.5052820000000  0.5618550000000 1.0
C      1  0.4614200000000  0.4357930000000  0.5443510000000 1.0
C      1  0.3830400000000  0.5190570000000  0.5347210000000 1.0
C      1  0.4592810000000  0.5315130000000  0.5383380000000 1.0
C      1  0.4652490000000  0.3885120000000  0.5365650000000 1.0
C      1  0.4712650000000  0.4553300000000  0.4789180000000 1.0
C      1  0.5383450000000  0.4612520000000  0.6246710000000 1.0
C      1  0.4376860000000  0.5592370000000  0.4380730000000 1.0
C      1  0.4998760000000  0.5497640000000  0.4154310000000 1.0
C      1  0.4979650000000  0.4635640000000  0.4358770000000 1.0
C      1  0.4305810000000  0.4251820000000  0.4888950000000 1.0
C      1  0.4980020000000  0.4936510000000  0.3843160000000 1.0
C      1  0.5278430000000  0.5468970000000  0.5976430000000 1.0
C      1  0.5392790000000  0.5189740000000  0.4898830000000 1.0
C      1  0.4895410000000  0.3872410000000  0.5413480000000 1.0
C      1  0.4638580000000  0.5095920000000  0.5127410000000 1.0
C      1  0.4353160000000  0.4436260000000  0.5734830000000 1.0
C      1  0.5060270000000  0.5659950000000  0.5035640000000 1.0
C      1  0.4841770000000  0.4542150000000  0.5926670000000 1.0
C      1  0.4191760000000  0.4368610000000  0.4437240000000 1.0
C      1  0.5454790000000  0.4214440000000  0.4256390000000 1.0
C      1  0.3998350000000  0.5090550000000  0.5584170000000 1.0
C      1  0.4126610000000  0.5465990000000  0.4663540000000 1.0
C      1  0.4214390000000  0.4138100000000  0.5197010000000 1.0
C      1  0.5958280000000  0.5526620000000  0.5207420000000 1.0
C      1  0.4108960000000  0.5035670000000  0.4306140000000 1.0
C      1  0.4276480000000  0.5994020000000  0.5280760000000 1.0
C      1  0.5563990000000  0.5675290000000  0.4742190000000 1.0
C      1  0.5016250000000  0.4534720000000  0.5536300000000 1.0
C      1  0.5177240000000  0.4007660000000  0.5315700000000 1.0
C      1  0.3876620000000  0.5109550000000  0.5091640000000 1.0
C      1  0.4398260000000  0.5945030000000  0.5492420000000 1.0
C      1  0.5174130000000  0.4232410000000  0.5530890000000 1.0
C      1  0.4641820000000  0.4247320000000  0.4092460000000 1.0
C      1  0.5481470000000  0.4164400000000  0.4530500000000 1.0
C      1  0.4821090000000  0.5399570000000  0.5609520000000 1.0
C      1  0.5735230000000  0.5533110000000  0.5672660000000 1.0
C      1  0.4723940000000  0.5135270000000  0.3851470000000 1.0
C      1  0.4449800000000  0.4701460000000  0.4266030000000 1.0
C      1  0.4758100000000  0.4638100000000  0.5396570000000 1.0
C      1  0.6012620000000  0.4757640000000  0.5141060000000 1.0
C      1  0.4080610000000  0.4605730000000  0.5616640000000 1.0
C      1  0.5019650000000  0.5092680000000  0.5245210000000 1.0
C      1  0.4400540000000  0.5217370000000  0.4250290000000 1.0
C      1  0.4799730000000  0.5358620000000  0.5046150000000 1.0
C      1  0.4745900000000  0.6030940000000  0.4953260000000 1.0
C      1  0.4940520000000  0.5713510000000  0.4729920000000 1.0
C      1  0.5282450000000  0.5572830000000  0.4235000000000 1.0
C      1  0.5154370000000  0.5163780000000  0.4304860000000 1.0
C      1  0.4533870000000  0.4663650000000  0.5893220000000 1.0
C      1  0.5520080000000  0.5340170000000  0.5531920000000 1.0
C      1  0.4425970000000  0.4188420000000  0.4608390000000 1.0
C      1  0.5809730000000  0.4547900000000  0.4748550000000 1.0
C      1  0.4917290000000  0.4631230000000  0.3942020000000 1.0
C      1  0.5183840000000  0.6014260000000  0.4480180000000 1.0
C      1  0.5575130000000  0.5399810000000  0.5921560000000 1.0
C      1  0.5535520000000  0.4395190000000  0.4991200000000 1.0
C      1  0.4449720000000  0.5599470000000  0.5297880000000 1.0
C      1  0.5588770000000  0.4996220000000  0.4699130000000 1.0
C      1  0.5629740000000  0.5375670000000  0.4799210000000 1.0
C      1  0.5083570000000  0.5988500000000  0.4982070000000 1.0
C      1  0.5255710000000  0.5301670000000  0.5702350000000 1.0
C      1  0.4656600000000  0.5992450000000  0.4643480000000 1.0
C      1  0.5870690000000  0.4023490000000  0.5471130000000 1.0
C      1  0.6055330000000  0.5416270000000  0.4969930000000 1.0
C      1  0.5835370000000  0.4849830000000  0.4504240000000 1.0
C      1  0.5472820000000  0.4959470000000  0.6069330000000 1.0
C      1  0.4476820000000  0.5092660000000  0.3960460000000 1.0
C      1  0.5383620000000  0.5856070000000  0.4374230000000 1.0
C      1  0.5910060000000  0.5317550000000  0.5467310000000 1.0
C      1  0.4375380000000  0.5227970000000  0.4718990000000 1.0
C      1  0.3946760000000  0.5018780000000  0.4795730000000 1.0
C      1  0.5557820000000  0.5466270000000  0.4087270000000 1.0
C      1  0.5234190000000  0.4055010000000  0.4658230000000 1.0
END
