TITL C-2778425-5191-518 0.00270227024235876 125000 -1144.49901530267 0 0 198 (C1) n - 1
REM
REM in /home/nfs/bkarasulu/CARBON/AIRSS/Generating-Clusters/REBO/Only-C1/SD-CG/HFTN-CG
REM
REM
REM
REM
REM
REM ./C.cell (11c1c37f851c82e70ff6c80c92926a4b)
REM
REM compiler GCC version 9.2.1 20190827 (Red Hat 9.2.1-1)
REM options -cpp -mtune=generic -march=x86-64 -g -O0 -fpre-include=/usr/include/finclude/math-vector-fortran.h
REM seed -936097480 2003390726 -1405341639 -628733293 -2147076941 1882641964 -1068471290 -1747695097 -1400038106 -1028232433 1422106768 -942544202 30207059 -1201399756 1611351355 -1668686888 459387374 424673197 -976540138 787307466 1345699448 -636885263 566035800 -327296537 2008952984 1050365975 838328863 -633511696 813521440 -1465934866 -529812893 1376200189 -759485417
REM
CELL 1.54180   50.00000   50.00000   50.00000   90.00000   90.00000   90.00000
LATT -1
SFAC C  
C      1  0.6055410000000  0.5100060000000  0.4422830000000 1.0
C      1  0.4342300000000  0.5845670000000  0.4560330000000 1.0
C      1  0.5183000000000  0.5937380000000  0.4696460000000 1.0
C      1  0.4896330000000  0.6041470000000  0.4681390000000 1.0
C      1  0.4225450000000  0.4712430000000  0.4943780000000 1.0
C      1  0.5642650000000  0.5236770000000  0.5900790000000 1.0
C      1  0.5045420000000  0.4890850000000  0.4579580000000 1.0
C      1  0.4480510000000  0.4847530000000  0.4184010000000 1.0
C      1  0.5468990000000  0.5731070000000  0.5223210000000 1.0
C      1  0.3816140000000  0.4901150000000  0.5025560000000 1.0
C      1  0.4315850000000  0.5544650000000  0.4819250000000 1.0
C      1  0.5049440000000  0.5287840000000  0.4576000000000 1.0
C      1  0.4323110000000  0.5192200000000  0.5004810000000 1.0
C      1  0.6009300000000  0.5148590000000  0.5410150000000 1.0
C      1  0.5248610000000  0.5525710000000  0.5325610000000 1.0
C      1  0.4939340000000  0.5020430000000  0.4030220000000 1.0
C      1  0.4951980000000  0.5915940000000  0.5305460000000 1.0
C      1  0.3947120000000  0.4935980000000  0.4485540000000 1.0
C      1  0.4609770000000  0.4688950000000  0.5254240000000 1.0
C      1  0.5945640000000  0.4408100000000  0.4645120000000 1.0
C      1  0.5193160000000  0.4338890000000  0.5382870000000 1.0
C      1  0.4986720000000  0.4705700000000  0.4820670000000 1.0
C      1  0.4784750000000  0.6139010000000  0.5191070000000 1.0
C      1  0.4950360000000  0.5324840000000  0.5499900000000 1.0
C      1  0.4783800000000  0.4349560000000  0.5140370000000 1.0
C      1  0.4269740000000  0.5291330000000  0.4322610000000 1.0
C      1  0.5167210000000  0.4396870000000  0.4076800000000 1.0
C      1  0.4352580000000  0.4834660000000  0.5712290000000 1.0
C      1  0.4604320000000  0.5662590000000  0.3737270000000 1.0
C      1  0.4591140000000  0.5375700000000  0.3884140000000 1.0
C      1  0.4577530000000  0.5215630000000  0.4306100000000 1.0
C      1  0.5557200000000  0.5717290000000  0.5720470000000 1.0
C      1  0.4776290000000  0.4740610000000  0.4072980000000 1.0
C      1  0.4409340000000  0.4664300000000  0.4680830000000 1.0
C      1  0.4715840000000  0.3974930000000  0.4813600000000 1.0
C      1  0.5153980000000  0.5610660000000  0.4610950000000 1.0
C      1  0.5424270000000  0.5027120000000  0.4202710000000 1.0
C      1  0.5205470000000  0.4726920000000  0.3998190000000 1.0
C      1  0.4476830000000  0.5815760000000  0.5068670000000 1.0
C      1  0.5415290000000  0.5033220000000  0.6048160000000 1.0
C      1  0.4789470000000  0.4071870000000  0.5786380000000 1.0
C      1  0.4702900000000  0.4696330000000  0.4539340000000 1.0
C      1  0.6069660000000  0.4662640000000  0.5186890000000 1.0
C      1  0.4659390000000  0.4074330000000  0.5402560000000 1.0
C      1  0.5615660000000  0.4359320000000  0.4659480000000 1.0
C      1  0.4631650000000  0.5547190000000  0.4805800000000 1.0
C      1  0.5185330000000  0.5507570000000  0.4274770000000 1.0
C      1  0.4791560000000  0.4991140000000  0.5641590000000 1.0
C      1  0.5466340000000  0.5467430000000  0.5828370000000 1.0
C      1  0.5725330000000  0.5145320000000  0.4679180000000 1.0
C      1  0.5821660000000  0.5058570000000  0.4188330000000 1.0
C      1  0.5856640000000  0.4993230000000  0.5654270000000 1.0
C      1  0.4980630000000  0.4025590000000  0.5508000000000 1.0
C      1  0.5712540000000  0.4886650000000  0.5352980000000 1.0
C      1  0.5323290000000  0.4984300000000  0.5072080000000 1.0
C      1  0.4517130000000  0.5116880000000  0.5483140000000 1.0
C      1  0.4482330000000  0.4389970000000  0.5202170000000 1.0
C      1  0.4949560000000  0.5178170000000  0.4840740000000 1.0
C      1  0.5864510000000  0.5334180000000  0.5660210000000 1.0
C      1  0.4850620000000  0.5312620000000  0.5202690000000 1.0
C      1  0.4190610000000  0.5546460000000  0.4509370000000 1.0
C      1  0.5402580000000  0.4094840000000  0.5281980000000 1.0
C      1  0.4489830000000  0.5202480000000  0.5788730000000 1.0
C      1  0.4053840000000  0.5243940000000  0.4593120000000 1.0
C      1  0.4871400000000  0.4469020000000  0.4082540000000 1.0
C      1  0.5104040000000  0.5023780000000  0.5563760000000 1.0
C      1  0.4390940000000  0.4928980000000  0.4502300000000 1.0
C      1  0.5421890000000  0.4645860000000  0.4321050000000 1.0
C      1  0.4263400000000  0.5029370000000  0.5288520000000 1.0
C      1  0.4069580000000  0.4652970000000  0.4470830000000 1.0
C      1  0.5656040000000  0.4643070000000  0.4785670000000 1.0
C      1  0.4808780000000  0.4444270000000  0.4845400000000 1.0
C      1  0.4267800000000  0.5033050000000  0.5955330000000 1.0
C      1  0.5226210000000  0.4202970000000  0.5671010000000 1.0
C      1  0.4332020000000  0.6005490000000  0.5276380000000 1.0
C      1  0.5376190000000  0.6296410000000  0.4363950000000 1.0
C      1  0.4551370000000  0.4381530000000  0.4724210000000 1.0
C      1  0.5828070000000  0.5562050000000  0.4363140000000 1.0
C      1  0.4911770000000  0.5594510000000  0.4856400000000 1.0
C      1  0.5654050000000  0.4325640000000  0.5288260000000 1.0
C      1  0.5580510000000  0.5823370000000  0.4491270000000 1.0
C      1  0.3974760000000  0.4302510000000  0.4997690000000 1.0
C      1  0.4664160000000  0.5037390000000  0.4869410000000 1.0
C      1  0.5230510000000  0.4733020000000  0.5431120000000 1.0
C      1  0.5305060000000  0.4450230000000  0.5897600000000 1.0
C      1  0.5553130000000  0.5012020000000  0.4890870000000 1.0
C      1  0.4546180000000  0.5299400000000  0.5215130000000 1.0
C      1  0.5710980000000  0.5223640000000  0.5286360000000 1.0
C      1  0.4502380000000  0.4085710000000  0.4570490000000 1.0
C      1  0.5123030000000  0.4708080000000  0.4321020000000 1.0
C      1  0.4835440000000  0.5204720000000  0.5988940000000 1.0
C      1  0.6122740000000  0.4959820000000  0.5206150000000 1.0
C      1  0.4113830000000  0.4684110000000  0.5557040000000 1.0
C      1  0.4701440000000  0.4321110000000  0.5864430000000 1.0
C      1  0.4063170000000  0.5240580000000  0.4877590000000 1.0
C      1  0.5486670000000  0.4004440000000  0.4779960000000 1.0
C      1  0.4537790000000  0.6199140000000  0.5325190000000 1.0
C      1  0.5370610000000  0.4924430000000  0.5750420000000 1.0
C      1  0.4350550000000  0.4498210000000  0.5728050000000 1.0
C      1  0.5118590000000  0.3920240000000  0.5213790000000 1.0
C      1  0.5066200000000  0.5750310000000  0.5766660000000 1.0
C      1  0.4739310000000  0.5926250000000  0.4475610000000 1.0
C      1  0.4930700000000  0.4476470000000  0.5369420000000 1.0
C      1  0.4985740000000  0.5614740000000  0.5161750000000 1.0
C      1  0.5320580000000  0.4459430000000  0.5118360000000 1.0
C      1  0.4571040000000  0.4620120000000  0.5961770000000 1.0
C      1  0.5329240000000  0.5010530000000  0.4638660000000 1.0
C      1  0.5657710000000  0.4772980000000  0.5730070000000 1.0
C      1  0.3803360000000  0.4952180000000  0.4781930000000 1.0
C      1  0.4634420000000  0.5108700000000  0.4021050000000 1.0
C      1  0.4926690000000  0.4794890000000  0.5289850000000 1.0
C      1  0.5377310000000  0.6069230000000  0.4490790000000 1.0
C      1  0.5876840000000  0.4821340000000  0.4504290000000 1.0
C      1  0.4475440000000  0.5583740000000  0.5316770000000 1.0
C      1  0.4743650000000  0.4283550000000  0.4315090000000 1.0
C      1  0.5793380000000  0.5632730000000  0.5575410000000 1.0
C      1  0.4934100000000  0.4512550000000  0.4472780000000 1.0
C      1  0.5529570000000  0.4643120000000  0.5310820000000 1.0
C      1  0.4050860000000  0.4767440000000  0.5224770000000 1.0
C      1  0.4807000000000  0.6172620000000  0.4912460000000 1.0
C      1  0.4600170000000  0.4957470000000  0.5999710000000 1.0
C      1  0.5086450000000  0.4342050000000  0.4693220000000 1.0
C      1  0.4128750000000  0.5772070000000  0.5259910000000 1.0
C      1  0.5262930000000  0.5969790000000  0.5326390000000 1.0
C      1  0.4702620000000  0.5555760000000  0.5540680000000 1.0
C      1  0.6039560000000  0.5390490000000  0.4520810000000 1.0
C      1  0.4579840000000  0.5462360000000  0.4506520000000 1.0
C      1  0.6049720000000  0.4614080000000  0.4848990000000 1.0
C      1  0.6005590000000  0.5387070000000  0.4810690000000 1.0
C      1  0.5669110000000  0.4791000000000  0.4166080000000 1.0
C      1  0.4898840000000  0.4105920000000  0.4557450000000 1.0
C      1  0.4299210000000  0.4588420000000  0.4304750000000 1.0
C      1  0.5115620000000  0.5167400000000  0.4276500000000 1.0
C      1  0.5215190000000  0.3981230000000  0.4584440000000 1.0
C      1  0.5608980000000  0.5915100000000  0.4818790000000 1.0
C      1  0.4950630000000  0.4824520000000  0.5870490000000 1.0
C      1  0.5650720000000  0.4076490000000  0.5067740000000 1.0
C      1  0.5197620000000  0.4713410000000  0.5008740000000 1.0
C      1  0.5808620000000  0.4122660000000  0.4776300000000 1.0
C      1  0.4860230000000  0.5804070000000  0.5575010000000 1.0
C      1  0.4805190000000  0.4519310000000  0.5657310000000 1.0
C      1  0.5547450000000  0.4814260000000  0.4544640000000 1.0
C      1  0.5495270000000  0.5089930000000  0.5514580000000 1.0
C      1  0.4457110000000  0.5197110000000  0.4686020000000 1.0
C      1  0.4057960000000  0.5097410000000  0.4224310000000 1.0
C      1  0.4461690000000  0.4222350000000  0.5561650000000 1.0
C      1  0.4214390000000  0.4331970000000  0.5396730000000 1.0
C      1  0.4998400000000  0.5037970000000  0.5128670000000 1.0
C      1  0.5170630000000  0.5219860000000  0.5930530000000 1.0
C      1  0.4045010000000  0.5353940000000  0.5591770000000 1.0
C      1  0.4567130000000  0.5470930000000  0.5805240000000 1.0
C      1  0.4250970000000  0.4236220000000  0.4728230000000 1.0
C      1  0.4174310000000  0.5563020000000  0.5474990000000 1.0
C      1  0.3991990000000  0.4435740000000  0.5258160000000 1.0
C      1  0.5237640000000  0.5344000000000  0.4923190000000 1.0
C      1  0.4742560000000  0.5008840000000  0.4478720000000 1.0
C      1  0.4528920000000  0.4849860000000  0.5012470000000 1.0
C      1  0.5837850000000  0.4868990000000  0.4941820000000 1.0
C      1  0.5506770000000  0.4356390000000  0.4369740000000 1.0
C      1  0.4053130000000  0.4498800000000  0.4737610000000 1.0
C      1  0.5492290000000  0.5562030000000  0.4673750000000 1.0
C      1  0.4469240000000  0.5912120000000  0.4798880000000 1.0
C      1  0.5025750000000  0.4184290000000  0.5054910000000 1.0
C      1  0.5304380000000  0.4253550000000  0.4884860000000 1.0
C      1  0.5526340000000  0.5370960000000  0.5059220000000 1.0
C      1  0.5230970000000  0.5392130000000  0.5640580000000 1.0
C      1  0.4620610000000  0.4741480000000  0.5563550000000 1.0
C      1  0.4035640000000  0.5016090000000  0.5536600000000 1.0
C      1  0.6140390000000  0.4898800000000  0.4684880000000 1.0
C      1  0.4987500000000  0.5506560000000  0.5933290000000 1.0
C      1  0.5335590000000  0.5945640000000  0.4992060000000 1.0
C      1  0.5045870000000  0.3911870000000  0.4874170000000 1.0
C      1  0.5335920000000  0.4705950000000  0.6105450000000 1.0
C      1  0.5729180000000  0.4514600000000  0.5632050000000 1.0
C      1  0.5802660000000  0.4534830000000  0.4356490000000 1.0
C      1  0.5250350000000  0.5056640000000  0.3919480000000 1.0
C      1  0.5802420000000  0.5790110000000  0.5013650000000 1.0
C      1  0.6080950000000  0.5108220000000  0.4925460000000 1.0
C      1  0.4639080000000  0.5703590000000  0.4333010000000 1.0
C      1  0.4284030000000  0.4163050000000  0.5042450000000 1.0
C      1  0.5905760000000  0.4521520000000  0.5370100000000 1.0
C      1  0.5388750000000  0.5296640000000  0.4535250000000 1.0
C      1  0.5545580000000  0.4315900000000  0.5717880000000 1.0
C      1  0.5263170000000  0.4179130000000  0.4310930000000 1.0
C      1  0.4004330000000  0.5151660000000  0.5842500000000 1.0
C      1  0.5314990000000  0.5217340000000  0.5291900000000 1.0
C      1  0.4572260000000  0.4013160000000  0.5112270000000 1.0
C      1  0.5395440000000  0.5337120000000  0.4058480000000 1.0
C      1  0.4615060000000  0.5653850000000  0.4062810000000 1.0
C      1  0.4123620000000  0.5641300000000  0.5004800000000 1.0
C      1  0.5731590000000  0.5518510000000  0.4879850000000 1.0
C      1  0.5789940000000  0.5713820000000  0.5307300000000 1.0
C      1  0.5071740000000  0.4841070000000  0.6114910000000 1.0
C      1  0.5319540000000  0.5862360000000  0.5644460000000 1.0
C      1  0.5684900000000  0.5268530000000  0.4384960000000 1.0
C      1  0.5511610000000  0.5599090000000  0.4243840000000 1.0
C      1  0.4433160000000  0.4335970000000  0.4346220000000 1.0
C      1  0.5111160000000  0.4608760000000  0.5700420000000 1.0
END
