TITL C-2778430-5657-1164 0.00220927555942793 125000 -1175.37211007281 0 0 200 (C1) n - 1
REM
REM in /home/nfs/bkarasulu/CARBON/AIRSS/Generating-Clusters/REBO/Only-C1/SD-CG/HFTN-CG
REM
REM
REM
REM
REM
REM ./C.cell (11c1c37f851c82e70ff6c80c92926a4b)
REM
REM compiler GCC version 9.2.1 20190827 (Red Hat 9.2.1-1)
REM options -cpp -mtune=generic -march=x86-64 -g -O0 -fpre-include=/usr/include/finclude/math-vector-fortran.h
REM seed -834237920 -1689051613 1728990416 -2111664023 383747095 -1297522866 1064561244 791246573 -988036558 -729042687 1779830822 -1548017145 1933102487 742298585 1837900784 -1226741510 1560135545 -24766678 -1165931435 -799168715 1977095133 21734347 -1345977194 152136178 1139899792 1896867249 -1853799392 -1311777047 1670866462 1039588207 1976198444 -698157267 582528527
REM
CELL 1.54180   50.00000   50.00000   50.00000   90.00000   90.00000   90.00000
LATT -1
SFAC C  
C      1  0.4607560000000  0.4988880000000  0.4329090000000 1.0
C      1  0.5671870000000  0.4545800000000  0.5242460000000 1.0
C      1  0.4897850000000  0.4191860000000  0.5775250000000 1.0
C      1  0.5569350000000  0.4882290000000  0.5575110000000 1.0
C      1  0.4385930000000  0.5971570000000  0.5206330000000 1.0
C      1  0.5022210000000  0.4661390000000  0.5673820000000 1.0
C      1  0.5386510000000  0.4754360000000  0.4366880000000 1.0
C      1  0.4537120000000  0.4633920000000  0.5121170000000 1.0
C      1  0.4847710000000  0.4683030000000  0.5248180000000 1.0
C      1  0.5697470000000  0.4284100000000  0.5026220000000 1.0
C      1  0.5112640000000  0.5307710000000  0.5380100000000 1.0
C      1  0.5838870000000  0.5552510000000  0.5282790000000 1.0
C      1  0.4069080000000  0.5484480000000  0.4503000000000 1.0
C      1  0.5500540000000  0.4616170000000  0.4723140000000 1.0
C      1  0.5118720000000  0.4451570000000  0.4167750000000 1.0
C      1  0.4828050000000  0.4868530000000  0.4558730000000 1.0
C      1  0.4481710000000  0.4498680000000  0.5844540000000 1.0
C      1  0.4322610000000  0.4838600000000  0.5153470000000 1.0
C      1  0.4605910000000  0.4978080000000  0.6112490000000 1.0
C      1  0.5533050000000  0.5175380000000  0.4590380000000 1.0
C      1  0.5086900000000  0.5199250000000  0.5789430000000 1.0
C      1  0.4912760000000  0.4298860000000  0.4900530000000 1.0
C      1  0.6095930000000  0.4767830000000  0.4828930000000 1.0
C      1  0.6214930000000  0.5140950000000  0.5310350000000 1.0
C      1  0.4790220000000  0.4472550000000  0.5824560000000 1.0
C      1  0.4739680000000  0.5885920000000  0.4482080000000 1.0
C      1  0.5098740000000  0.5025700000000  0.6278050000000 1.0
C      1  0.5595350000000  0.5853160000000  0.4510950000000 1.0
C      1  0.5774100000000  0.5591420000000  0.4533790000000 1.0
C      1  0.4503550000000  0.4988310000000  0.5531370000000 1.0
C      1  0.4539070000000  0.5262320000000  0.5955950000000 1.0
C      1  0.4748170000000  0.4420170000000  0.4435970000000 1.0
C      1  0.4863920000000  0.3937070000000  0.5095370000000 1.0
C      1  0.5070180000000  0.5528310000000  0.5711910000000 1.0
C      1  0.4498970000000  0.5901710000000  0.4307570000000 1.0
C      1  0.5377700000000  0.4325860000000  0.4308970000000 1.0
C      1  0.4883370000000  0.5114120000000  0.4869320000000 1.0
C      1  0.4601930000000  0.5861510000000  0.4773740000000 1.0
C      1  0.5149390000000  0.5640830000000  0.5007680000000 1.0
C      1  0.4425450000000  0.5960740000000  0.5489800000000 1.0
C      1  0.4145160000000  0.4365980000000  0.5296460000000 1.0
C      1  0.4245670000000  0.5735940000000  0.5117170000000 1.0
C      1  0.4519670000000  0.5405580000000  0.4577370000000 1.0
C      1  0.4915290000000  0.4800990000000  0.3897580000000 1.0
C      1  0.4900700000000  0.5145840000000  0.6075030000000 1.0
C      1  0.5153690000000  0.4348820000000  0.5935280000000 1.0
C      1  0.4638980000000  0.5602370000000  0.5774620000000 1.0
C      1  0.4486570000000  0.4413800000000  0.4792530000000 1.0
C      1  0.4814410000000  0.5458310000000  0.6010890000000 1.0
C      1  0.6159500000000  0.5012350000000  0.4995530000000 1.0
C      1  0.4780070000000  0.3997710000000  0.4543680000000 1.0
C      1  0.4607670000000  0.5275920000000  0.4053590000000 1.0
C      1  0.4390560000000  0.5134610000000  0.4548390000000 1.0
C      1  0.4661350000000  0.4119510000000  0.4803420000000 1.0
C      1  0.4239350000000  0.4745670000000  0.3989000000000 1.0
C      1  0.4083750000000  0.4625090000000  0.4497020000000 1.0
C      1  0.5331390000000  0.5135330000000  0.3984350000000 1.0
C      1  0.4149880000000  0.4327660000000  0.4599760000000 1.0
C      1  0.4523870000000  0.4600210000000  0.4321050000000 1.0
C      1  0.5670250000000  0.4495600000000  0.4165940000000 1.0
C      1  0.5999090000000  0.4444280000000  0.5040410000000 1.0
C      1  0.4687140000000  0.4139270000000  0.4266890000000 1.0
C      1  0.5248320000000  0.5636990000000  0.4093680000000 1.0
C      1  0.4370410000000  0.4728450000000  0.4518370000000 1.0
C      1  0.5236230000000  0.4689520000000  0.5468090000000 1.0
C      1  0.4828060000000  0.5386000000000  0.3594870000000 1.0
C      1  0.5293990000000  0.4876420000000  0.6140100000000 1.0
C      1  0.3992530000000  0.4622040000000  0.5200190000000 1.0
C      1  0.5210410000000  0.4840530000000  0.3888910000000 1.0
C      1  0.4742470000000  0.4563950000000  0.3918800000000 1.0
C      1  0.5691720000000  0.4747630000000  0.4473760000000 1.0
C      1  0.4548110000000  0.4902080000000  0.4713520000000 1.0
C      1  0.4659450000000  0.4746450000000  0.5483030000000 1.0
C      1  0.4759260000000  0.5637490000000  0.4920490000000 1.0
C      1  0.6068720000000  0.5401140000000  0.5462970000000 1.0
C      1  0.5879710000000  0.4482010000000  0.5507720000000 1.0
C      1  0.4136140000000  0.5098240000000  0.5246260000000 1.0
C      1  0.4198820000000  0.4530870000000  0.4936320000000 1.0
C      1  0.5187590000000  0.4982560000000  0.5449980000000 1.0
C      1  0.5945230000000  0.4938930000000  0.5691490000000 1.0
C      1  0.4108930000000  0.4851010000000  0.4243440000000 1.0
C      1  0.4429190000000  0.5519770000000  0.5111780000000 1.0
C      1  0.4940540000000  0.4383230000000  0.5208460000000 1.0
C      1  0.5859410000000  0.4389270000000  0.4416970000000 1.0
C      1  0.4326700000000  0.4043120000000  0.5174990000000 1.0
C      1  0.4328930000000  0.5244670000000  0.5011520000000 1.0
C      1  0.5510150000000  0.4192570000000  0.4778640000000 1.0
C      1  0.4403870000000  0.4742030000000  0.5973730000000 1.0
C      1  0.5822910000000  0.4815230000000  0.5162390000000 1.0
C      1  0.4817280000000  0.5025260000000  0.4082280000000 1.0
C      1  0.5489860000000  0.5070370000000  0.6039450000000 1.0
C      1  0.5244890000000  0.5673590000000  0.4568930000000 1.0
C      1  0.5325450000000  0.4959310000000  0.4618220000000 1.0
C      1  0.4171640000000  0.4203550000000  0.4916390000000 1.0
C      1  0.4896130000000  0.4957820000000  0.5722310000000 1.0
C      1  0.5377790000000  0.5341410000000  0.6077370000000 1.0
C      1  0.5416360000000  0.4297630000000  0.5774370000000 1.0
C      1  0.5211680000000  0.4322050000000  0.5312890000000 1.0
C      1  0.4021710000000  0.5625290000000  0.5505320000000 1.0
C      1  0.6090890000000  0.4555590000000  0.5296550000000 1.0
C      1  0.4142790000000  0.5470580000000  0.4837050000000 1.0
C      1  0.5090000000000  0.5108500000000  0.4211570000000 1.0
C      1  0.5050600000000  0.5074100000000  0.4606340000000 1.0
C      1  0.5137420000000  0.3932080000000  0.5055610000000 1.0
C      1  0.5699220000000  0.4985940000000  0.5858360000000 1.0
C      1  0.4081110000000  0.4512850000000  0.5570270000000 1.0
C      1  0.5265940000000  0.4447470000000  0.4590960000000 1.0
C      1  0.5012690000000  0.3895800000000  0.5540860000000 1.0
C      1  0.4882570000000  0.6081860000000  0.5113580000000 1.0
C      1  0.5498830000000  0.5095580000000  0.5026670000000 1.0
C      1  0.5050280000000  0.5352630000000  0.4439690000000 1.0
C      1  0.5078620000000  0.4781770000000  0.4261900000000 1.0
C      1  0.5462230000000  0.6000470000000  0.5252270000000 1.0
C      1  0.3948040000000  0.5330110000000  0.5079670000000 1.0
C      1  0.4610160000000  0.5466090000000  0.5354340000000 1.0
C      1  0.4141950000000  0.5387860000000  0.5673080000000 1.0
C      1  0.5550990000000  0.5736390000000  0.4830850000000 1.0
C      1  0.4897920000000  0.5544100000000  0.5439590000000 1.0
C      1  0.5620690000000  0.5091150000000  0.4086850000000 1.0
C      1  0.4612850000000  0.5151310000000  0.5276160000000 1.0
C      1  0.4001150000000  0.5096640000000  0.4836910000000 1.0
C      1  0.4316400000000  0.4348800000000  0.5665070000000 1.0
C      1  0.5090050000000  0.5960200000000  0.4914370000000 1.0
C      1  0.4876340000000  0.5363610000000  0.3868740000000 1.0
C      1  0.5152930000000  0.5500690000000  0.6036730000000 1.0
C      1  0.5058060000000  0.3970940000000  0.4581570000000 1.0
C      1  0.5919820000000  0.5515580000000  0.4763640000000 1.0
C      1  0.4331260000000  0.5095880000000  0.4157920000000 1.0
C      1  0.4741690000000  0.5393500000000  0.4792060000000 1.0
C      1  0.5928750000000  0.5181660000000  0.4535670000000 1.0
C      1  0.5374870000000  0.4625750000000  0.4048180000000 1.0
C      1  0.4286410000000  0.5402670000000  0.4252500000000 1.0
C      1  0.5962500000000  0.4878710000000  0.4547540000000 1.0
C      1  0.4452330000000  0.4248570000000  0.4492200000000 1.0
C      1  0.4764950000000  0.4596580000000  0.4870480000000 1.0
C      1  0.4864910000000  0.4341560000000  0.4061760000000 1.0
C      1  0.4875610000000  0.5080720000000  0.5420910000000 1.0
C      1  0.5137070000000  0.5833730000000  0.5574900000000 1.0
C      1  0.4001520000000  0.5621160000000  0.5222640000000 1.0
C      1  0.4888190000000  0.5689590000000  0.5175650000000 1.0
C      1  0.5431840000000  0.5860080000000  0.4273440000000 1.0
C      1  0.5796610000000  0.5594820000000  0.5016360000000 1.0
C      1  0.4701040000000  0.4029800000000  0.5564560000000 1.0
C      1  0.5428410000000  0.5867660000000  0.5488470000000 1.0
C      1  0.5390170000000  0.4028650000000  0.5042370000000 1.0
C      1  0.5398820000000  0.5950230000000  0.4993640000000 1.0
C      1  0.5375660000000  0.4596400000000  0.5199630000000 1.0
C      1  0.4582710000000  0.5075400000000  0.4972000000000 1.0
C      1  0.5185250000000  0.4155620000000  0.5589180000000 1.0
C      1  0.4110210000000  0.4857660000000  0.4916490000000 1.0
C      1  0.5126890000000  0.4654070000000  0.6004280000000 1.0
C      1  0.5612580000000  0.4257430000000  0.4506390000000 1.0
C      1  0.5091900000000  0.5879810000000  0.4271600000000 1.0
C      1  0.5458340000000  0.5413680000000  0.4904720000000 1.0
C      1  0.4514460000000  0.5319160000000  0.5624090000000 1.0
C      1  0.5325110000000  0.4814710000000  0.4941710000000 1.0
C      1  0.6153700000000  0.5393240000000  0.5088200000000 1.0
C      1  0.5919690000000  0.5558130000000  0.5670700000000 1.0
C      1  0.5506710000000  0.4580630000000  0.5608030000000 1.0
C      1  0.6129580000000  0.5275360000000  0.4779380000000 1.0
C      1  0.4613410000000  0.5501180000000  0.4288610000000 1.0
C      1  0.6055860000000  0.4881920000000  0.5392100000000 1.0
C      1  0.4092450000000  0.5172380000000  0.4579160000000 1.0
C      1  0.3992490000000  0.4800730000000  0.5470720000000 1.0
C      1  0.4679800000000  0.6054070000000  0.5573090000000 1.0
C      1  0.5630710000000  0.5648450000000  0.5538390000000 1.0
C      1  0.4708260000000  0.4174510000000  0.5270920000000 1.0
C      1  0.4488350000000  0.4622320000000  0.4041950000000 1.0
C      1  0.5151520000000  0.5413050000000  0.3962620000000 1.0
C      1  0.4609710000000  0.6038630000000  0.5030430000000 1.0
C      1  0.5749470000000  0.5157580000000  0.4816050000000 1.0
C      1  0.5638740000000  0.5105140000000  0.5329440000000 1.0
C      1  0.4356720000000  0.5672430000000  0.4702840000000 1.0
C      1  0.4987180000000  0.4832740000000  0.4975680000000 1.0
C      1  0.4976670000000  0.4588650000000  0.4514660000000 1.0
C      1  0.5320280000000  0.5447390000000  0.5201270000000 1.0
C      1  0.4118390000000  0.5086090000000  0.5570410000000 1.0
C      1  0.5047730000000  0.5927390000000  0.4605860000000 1.0
C      1  0.4898870000000  0.5610360000000  0.4350550000000 1.0
C      1  0.4828340000000  0.5841430000000  0.5718800000000 1.0
C      1  0.4806620000000  0.4768030000000  0.5987170000000 1.0
C      1  0.5521020000000  0.4179530000000  0.5291840000000 1.0
C      1  0.4342920000000  0.5017550000000  0.5816610000000 1.0
C      1  0.4392560000000  0.4112370000000  0.5504210000000 1.0
C      1  0.5505150000000  0.5384080000000  0.5442300000000 1.0
C      1  0.5385890000000  0.5163690000000  0.5633520000000 1.0
C      1  0.5879150000000  0.5187450000000  0.5102980000000 1.0
C      1  0.4331680000000  0.5673940000000  0.5644450000000 1.0
C      1  0.5705410000000  0.4823170000000  0.4139450000000 1.0
C      1  0.4932830000000  0.6038740000000  0.5391980000000 1.0
C      1  0.6026740000000  0.4552440000000  0.4569540000000 1.0
C      1  0.4447390000000  0.4361150000000  0.5199450000000 1.0
C      1  0.5707360000000  0.5252970000000  0.4307130000000 1.0
C      1  0.4556470000000  0.3909340000000  0.5015090000000 1.0
C      1  0.5640240000000  0.4277520000000  0.5544060000000 1.0
C      1  0.5472520000000  0.5476480000000  0.4510090000000 1.0
C      1  0.5780710000000  0.4642690000000  0.4870670000000 1.0
C      1  0.4289750000000  0.5716540000000  0.4382460000000 1.0
C      1  0.5160790000000  0.5425670000000  0.4754070000000 1.0
C      1  0.5169980000000  0.4204090000000  0.4761270000000 1.0
END
