TITL C-2778422-5617-143 0.00660817814103564 125000 -1142.47304168137 0 0 197 (C1) n - 1
REM
REM in /home/nfs/bkarasulu/CARBON/AIRSS/Generating-Clusters/REBO/Only-C1/SD-CG/HFTN-CG
REM
REM
REM
REM
REM
REM ./C.cell (11c1c37f851c82e70ff6c80c92926a4b)
REM
REM compiler GCC version 9.2.1 20190827 (Red Hat 9.2.1-1)
REM options -cpp -mtune=generic -march=x86-64 -g -O0 -fpre-include=/usr/include/finclude/math-vector-fortran.h
REM seed -615775958 195826171 -1492162493 -744390543 1242406724 866618420 827914460 112494841 1822536155 -2024211024 -1646295304 -1661112803 -294643072 -768033889 1456416014 26036686 1351210351 1957437615 436024623 -700612291 -1470365905 299019430 23881335 1367219764 -771678458 210578677 -1114429163 1846822518 1343329528 -1640749207 2000686042 961845351 862134542
REM
CELL 1.54180   50.00000   50.00000   50.00000   90.00000   90.00000   90.00000
LATT -1
SFAC C  
C      1  0.4307140000000  0.5268570000000  0.5990950000000 1.0
C      1  0.4266170000000  0.5518030000000  0.4659430000000 1.0
C      1  0.5930170000000  0.4609200000000  0.4909020000000 1.0
C      1  0.5087660000000  0.4394240000000  0.4030880000000 1.0
C      1  0.4372870000000  0.4975890000000  0.4878740000000 1.0
C      1  0.4923260000000  0.6146430000000  0.4696780000000 1.0
C      1  0.4359440000000  0.5157140000000  0.5167590000000 1.0
C      1  0.5184020000000  0.4260680000000  0.5581870000000 1.0
C      1  0.6021860000000  0.4988530000000  0.4506140000000 1.0
C      1  0.6086900000000  0.4960330000000  0.5108030000000 1.0
C      1  0.4720500000000  0.5672290000000  0.4101610000000 1.0
C      1  0.4004710000000  0.4636420000000  0.4291560000000 1.0
C      1  0.3831300000000  0.5289530000000  0.4586860000000 1.0
C      1  0.4192260000000  0.5633270000000  0.5165590000000 1.0
C      1  0.4867520000000  0.5071520000000  0.4380860000000 1.0
C      1  0.4403480000000  0.5697170000000  0.5409320000000 1.0
C      1  0.5382110000000  0.3999390000000  0.5528960000000 1.0
C      1  0.4869370000000  0.5056600000000  0.6166790000000 1.0
C      1  0.4489100000000  0.4560690000000  0.4182870000000 1.0
C      1  0.4939970000000  0.5622620000000  0.4956240000000 1.0
C      1  0.5717390000000  0.5056290000000  0.4161860000000 1.0
C      1  0.5548820000000  0.4989140000000  0.4873900000000 1.0
C      1  0.4708280000000  0.5427160000000  0.5447110000000 1.0
C      1  0.5452240000000  0.5074690000000  0.6001800000000 1.0
C      1  0.4206330000000  0.4451470000000  0.4262120000000 1.0
C      1  0.6028810000000  0.5181360000000  0.4855480000000 1.0
C      1  0.4840260000000  0.4238190000000  0.5934540000000 1.0
C      1  0.5872800000000  0.4725380000000  0.5692460000000 1.0
C      1  0.4924950000000  0.4242720000000  0.4687670000000 1.0
C      1  0.5271020000000  0.5552120000000  0.5828630000000 1.0
C      1  0.4823160000000  0.5355230000000  0.4685660000000 1.0
C      1  0.5777440000000  0.4445970000000  0.4653560000000 1.0
C      1  0.4343870000000  0.4404660000000  0.4537920000000 1.0
C      1  0.4101670000000  0.4768360000000  0.5086010000000 1.0
C      1  0.5993270000000  0.5577770000000  0.4779330000000 1.0
C      1  0.4878830000000  0.3952730000000  0.5518090000000 1.0
C      1  0.4777210000000  0.5304630000000  0.3960100000000 1.0
C      1  0.4996520000000  0.4804550000000  0.5530180000000 1.0
C      1  0.4721920000000  0.5759390000000  0.5380700000000 1.0
C      1  0.4664310000000  0.4294430000000  0.4985500000000 1.0
C      1  0.5653340000000  0.5662390000000  0.4292020000000 1.0
C      1  0.5853540000000  0.4906160000000  0.4873310000000 1.0
C      1  0.4078970000000  0.5024550000000  0.5250410000000 1.0
C      1  0.4426050000000  0.4450570000000  0.4923150000000 1.0
C      1  0.5697360000000  0.4674840000000  0.5962050000000 1.0
C      1  0.4618020000000  0.5129680000000  0.5600790000000 1.0
C      1  0.4319000000000  0.5273190000000  0.5676080000000 1.0
C      1  0.4980010000000  0.5369840000000  0.4385950000000 1.0
C      1  0.5154450000000  0.6207220000000  0.4568840000000 1.0
C      1  0.5765090000000  0.5761820000000  0.4956970000000 1.0
C      1  0.5279940000000  0.5156040000000  0.3876800000000 1.0
C      1  0.5551740000000  0.5338340000000  0.5229920000000 1.0
C      1  0.4993620000000  0.5493520000000  0.5256640000000 1.0
C      1  0.4339090000000  0.4980070000000  0.4374530000000 1.0
C      1  0.5811400000000  0.4806700000000  0.4363170000000 1.0
C      1  0.4516810000000  0.4569210000000  0.5411590000000 1.0
C      1  0.5545700000000  0.4355600000000  0.5112430000000 1.0
C      1  0.5508880000000  0.5304050000000  0.4615230000000 1.0
C      1  0.5179770000000  0.5054830000000  0.5094520000000 1.0
C      1  0.5122810000000  0.5909380000000  0.4949130000000 1.0
C      1  0.6096480000000  0.4425650000000  0.4700560000000 1.0
C      1  0.5393200000000  0.6125080000000  0.4469240000000 1.0
C      1  0.4793100000000  0.4513690000000  0.4037310000000 1.0
C      1  0.5901680000000  0.5404130000000  0.5058250000000 1.0
C      1  0.5784270000000  0.5026420000000  0.5605590000000 1.0
C      1  0.5139370000000  0.4323320000000  0.4930930000000 1.0
C      1  0.5517460000000  0.5935070000000  0.5124410000000 1.0
C      1  0.4071220000000  0.4848770000000  0.4453090000000 1.0
C      1  0.3902980000000  0.5226370000000  0.5070280000000 1.0
C      1  0.4589670000000  0.3984350000000  0.4899160000000 1.0
C      1  0.4333130000000  0.5710480000000  0.4439670000000 1.0
C      1  0.4883150000000  0.4749520000000  0.6105020000000 1.0
C      1  0.4367300000000  0.4667460000000  0.5962120000000 1.0
C      1  0.4030210000000  0.5313520000000  0.5520480000000 1.0
C      1  0.4454310000000  0.4836410000000  0.5612520000000 1.0
C      1  0.4482360000000  0.4238790000000  0.5497490000000 1.0
C      1  0.5518490000000  0.5603740000000  0.5523220000000 1.0
C      1  0.5468210000000  0.4796070000000  0.6068710000000 1.0
C      1  0.4844710000000  0.6475080000000  0.5235260000000 1.0
C      1  0.5329010000000  0.4138980000000  0.5054450000000 1.0
C      1  0.5414180000000  0.5205370000000  0.4182770000000 1.0
C      1  0.5268800000000  0.4569350000000  0.4758300000000 1.0
C      1  0.5159610000000  0.4188090000000  0.4217130000000 1.0
C      1  0.5789740000000  0.4239980000000  0.5271820000000 1.0
C      1  0.4799900000000  0.5671210000000  0.4585080000000 1.0
C      1  0.5478260000000  0.5641230000000  0.4007670000000 1.0
C      1  0.5605490000000  0.4887060000000  0.5356000000000 1.0
C      1  0.4915990000000  0.4743880000000  0.4815810000000 1.0
C      1  0.5625630000000  0.5000990000000  0.4558650000000 1.0
C      1  0.5100970000000  0.4891620000000  0.3931100000000 1.0
C      1  0.4343200000000  0.5611550000000  0.4918450000000 1.0
C      1  0.3863310000000  0.5130070000000  0.4814890000000 1.0
C      1  0.4666880000000  0.3977850000000  0.4565990000000 1.0
C      1  0.4676990000000  0.5066110000000  0.4151680000000 1.0
C      1  0.5459900000000  0.5071140000000  0.5676200000000 1.0
C      1  0.4780800000000  0.6063070000000  0.5491860000000 1.0
C      1  0.5542550000000  0.5370460000000  0.5926140000000 1.0
C      1  0.4988220000000  0.4000340000000  0.5209990000000 1.0
C      1  0.6077870000000  0.5129330000000  0.5384410000000 1.0
C      1  0.4879630000000  0.5338470000000  0.5976240000000 1.0
C      1  0.4490980000000  0.5415820000000  0.4108790000000 1.0
C      1  0.4766910000000  0.5929170000000  0.4768350000000 1.0
C      1  0.5399370000000  0.3823040000000  0.4948430000000 1.0
C      1  0.4507650000000  0.5776260000000  0.5713130000000 1.0
C      1  0.4957370000000  0.4504250000000  0.5661360000000 1.0
C      1  0.5303540000000  0.4631450000000  0.3990790000000 1.0
C      1  0.4065200000000  0.4980180000000  0.5585180000000 1.0
C      1  0.4829170000000  0.4780500000000  0.3846430000000 1.0
C      1  0.4628920000000  0.4872160000000  0.5906470000000 1.0
C      1  0.5675820000000  0.4099050000000  0.5518100000000 1.0
C      1  0.4535880000000  0.4815870000000  0.3991360000000 1.0
C      1  0.4441990000000  0.4127280000000  0.5178290000000 1.0
C      1  0.4656380000000  0.4502510000000  0.6048030000000 1.0
C      1  0.5524340000000  0.4372660000000  0.4797050000000 1.0
C      1  0.3998150000000  0.5432570000000  0.5260050000000 1.0
C      1  0.5327210000000  0.5935750000000  0.5409730000000 1.0
C      1  0.5133940000000  0.6080590000000  0.5183340000000 1.0
C      1  0.5269420000000  0.5483520000000  0.3936440000000 1.0
C      1  0.5039770000000  0.5769380000000  0.5413420000000 1.0
C      1  0.4732400000000  0.4124410000000  0.5675050000000 1.0
C      1  0.5094650000000  0.4888500000000  0.4249090000000 1.0
C      1  0.4943690000000  0.4086250000000  0.4395440000000 1.0
C      1  0.5069370000000  0.4907870000000  0.4589630000000 1.0
C      1  0.5308610000000  0.5503070000000  0.5127970000000 1.0
C      1  0.4600580000000  0.5704380000000  0.4363080000000 1.0
C      1  0.4886290000000  0.4482650000000  0.5002350000000 1.0
C      1  0.5195320000000  0.3955390000000  0.4726600000000 1.0
C      1  0.5852720000000  0.5353960000000  0.5389500000000 1.0
C      1  0.4841840000000  0.5850480000000  0.5750250000000 1.0
C      1  0.4623360000000  0.5180140000000  0.4785730000000 1.0
C      1  0.5130230000000  0.5589700000000  0.4592760000000 1.0
C      1  0.5487480000000  0.5064810000000  0.5161910000000 1.0
C      1  0.5997400000000  0.5321770000000  0.4555190000000 1.0
C      1  0.5128530000000  0.4333070000000  0.5974880000000 1.0
C      1  0.6049470000000  0.4790790000000  0.5404400000000 1.0
C      1  0.5484600000000  0.4381670000000  0.5505200000000 1.0
C      1  0.5427370000000  0.5900060000000  0.4797750000000 1.0
C      1  0.4359810000000  0.5101540000000  0.4055880000000 1.0
C      1  0.4158460000000  0.4661390000000  0.5554790000000 1.0
C      1  0.5942090000000  0.4535360000000  0.5202870000000 1.0
C      1  0.4975130000000  0.4296540000000  0.5340270000000 1.0
C      1  0.4940290000000  0.5174500000000  0.5242480000000 1.0
C      1  0.5309230000000  0.4210810000000  0.4588830000000 1.0
C      1  0.5150250000000  0.4496670000000  0.4469680000000 1.0
C      1  0.5353680000000  0.4593250000000  0.5263440000000 1.0
C      1  0.4397640000000  0.5367510000000  0.5375150000000 1.0
C      1  0.5271100000000  0.5103260000000  0.4711870000000 1.0
C      1  0.5645860000000  0.5667760000000  0.5261380000000 1.0
C      1  0.5576890000000  0.5900620000000  0.4492240000000 1.0
C      1  0.5499880000000  0.4905840000000  0.3945560000000 1.0
C      1  0.5801210000000  0.5355150000000  0.4304670000000 1.0
C      1  0.5373430000000  0.4760480000000  0.5564930000000 1.0
C      1  0.5326090000000  0.5597660000000  0.4813880000000 1.0
C      1  0.5750020000000  0.5343430000000  0.5714180000000 1.0
C      1  0.4616690000000  0.5702390000000  0.4936930000000 1.0
C      1  0.5253370000000  0.4594040000000  0.5783990000000 1.0
C      1  0.5173450000000  0.4647270000000  0.6098240000000 1.0
C      1  0.4143600000000  0.4256430000000  0.5124460000000 1.0
C      1  0.4837850000000  0.4530530000000  0.4374160000000 1.0
C      1  0.5387000000000  0.4623250000000  0.4295650000000 1.0
C      1  0.5178540000000  0.5818250000000  0.5699970000000 1.0
C      1  0.5064970000000  0.5306780000000  0.4888000000000 1.0
C      1  0.5711090000000  0.4590000000000  0.5439550000000 1.0
C      1  0.4899880000000  0.4624020000000  0.5286720000000 1.0
C      1  0.5627410000000  0.5463430000000  0.4859430000000 1.0
C      1  0.4917080000000  0.6223370000000  0.5305400000000 1.0
C      1  0.4322290000000  0.5315500000000  0.4387310000000 1.0
C      1  0.4403200000000  0.4664850000000  0.5128060000000 1.0
C      1  0.4593550000000  0.4764890000000  0.4434930000000 1.0
C      1  0.4681990000000  0.4798600000000  0.5134680000000 1.0
C      1  0.4633380000000  0.4314720000000  0.4524240000000 1.0
C      1  0.4596740000000  0.5165170000000  0.6022130000000 1.0
C      1  0.5188410000000  0.5691770000000  0.4277480000000 1.0
C      1  0.4001210000000  0.5379980000000  0.4395430000000 1.0
C      1  0.5183840000000  0.4746370000000  0.5033170000000 1.0
C      1  0.4427640000000  0.5574890000000  0.5948570000000 1.0
C      1  0.4649050000000  0.4854170000000  0.4719120000000 1.0
C      1  0.4921020000000  0.5096150000000  0.5539450000000 1.0
C      1  0.4989060000000  0.5781770000000  0.4110150000000 1.0
C      1  0.5463660000000  0.4233830000000  0.4303800000000 1.0
C      1  0.4917370000000  0.3992120000000  0.4919120000000 1.0
C      1  0.4156790000000  0.4294920000000  0.4801730000000 1.0
C      1  0.4290970000000  0.4677410000000  0.4737810000000 1.0
C      1  0.5024330000000  0.5386550000000  0.4078740000000 1.0
C      1  0.4005760000000  0.4859670000000  0.4772630000000 1.0
C      1  0.4322440000000  0.4435370000000  0.5727960000000 1.0
C      1  0.4681200000000  0.5094190000000  0.5102030000000 1.0
C      1  0.4071250000000  0.4501110000000  0.5274090000000 1.0
C      1  0.5396790000000  0.4930230000000  0.4361750000000 1.0
C      1  0.5354630000000  0.5342370000000  0.5576880000000 1.0
C      1  0.4744530000000  0.5611960000000  0.5967140000000 1.0
C      1  0.5285180000000  0.3880960000000  0.5263000000000 1.0
C      1  0.5061470000000  0.5297050000000  0.5729590000000 1.0
C      1  0.5417020000000  0.5450720000000  0.4353580000000 1.0
C      1  0.4204190000000  0.4958560000000  0.5892780000000 1.0
C      1  0.5679760000000  0.4493230000000  0.4355790000000 1.0
C      1  0.4660600000000  0.4515670000000  0.5716520000000 1.0
END
