TITL C-2778427-5640-280 -0.0033469672013357 125000 -1005.91181960205 0 0 174 (C1) n - 1
REM
REM in /home/nfs/bkarasulu/CARBON/AIRSS/Generating-Clusters/REBO/Only-C1/SD-CG/HFTN-CG
REM
REM
REM
REM
REM
REM ./C.cell (11c1c37f851c82e70ff6c80c92926a4b)
REM
REM compiler GCC version 9.2.1 20190827 (Red Hat 9.2.1-1)
REM options -cpp -mtune=generic -march=x86-64 -g -O0 -fpre-include=/usr/include/finclude/math-vector-fortran.h
REM seed -1551944740 1476927033 1265252589 535203447 -580918324 1852152736 -745441641 1471726403 1097784385 1831408200 325571063 -717527694 270188476 -1580963766 -1270948853 -1281709407 1522000692 683924385 -1422819698 -1741610951 -1222660107 -114264460 242688299 -1094295138 1494252160 -1083388235 -1492832850 1542526149 -1518298653 -183914399 2005135386 736470339 -1836768594
REM
CELL 1.54180   50.00000   50.00000   50.00000   90.00000   90.00000   90.00000
LATT -1
SFAC C  
C      1  0.5191160000000  0.4517860000000  0.4594570000000 1.0
C      1  0.4254670000000  0.5111650000000  0.5183790000000 1.0
C      1  0.4734760000000  0.4386640000000  0.4446560000000 1.0
C      1  0.4571240000000  0.4827700000000  0.4350210000000 1.0
C      1  0.5110180000000  0.4083470000000  0.4388890000000 1.0
C      1  0.5312190000000  0.5478830000000  0.4344700000000 1.0
C      1  0.4888390000000  0.4980170000000  0.3966330000000 1.0
C      1  0.4514030000000  0.5843090000000  0.5175170000000 1.0
C      1  0.5343860000000  0.5009270000000  0.5335010000000 1.0
C      1  0.4614590000000  0.4077540000000  0.5170850000000 1.0
C      1  0.4440260000000  0.5262850000000  0.4991130000000 1.0
C      1  0.4837960000000  0.4577630000000  0.4966020000000 1.0
C      1  0.4051810000000  0.4813350000000  0.5606160000000 1.0
C      1  0.4159450000000  0.5003520000000  0.4805220000000 1.0
C      1  0.4414150000000  0.5013660000000  0.4143730000000 1.0
C      1  0.4987580000000  0.5031920000000  0.5587010000000 1.0
C      1  0.4239680000000  0.4429710000000  0.4743230000000 1.0
C      1  0.5326660000000  0.4640010000000  0.5863300000000 1.0
C      1  0.4261330000000  0.4728930000000  0.4257680000000 1.0
C      1  0.5552010000000  0.4912200000000  0.4245830000000 1.0
C      1  0.5391750000000  0.4353010000000  0.5692480000000 1.0
C      1  0.3973780000000  0.5251580000000  0.4922490000000 1.0
C      1  0.4863040000000  0.5649810000000  0.5947670000000 1.0
C      1  0.4050850000000  0.5581900000000  0.5130070000000 1.0
C      1  0.4997200000000  0.4643080000000  0.5940920000000 1.0
C      1  0.4785770000000  0.5044620000000  0.4742870000000 1.0
C      1  0.4383360000000  0.4847420000000  0.5010010000000 1.0
C      1  0.3969260000000  0.4655520000000  0.5125460000000 1.0
C      1  0.5679050000000  0.5397540000000  0.5607470000000 1.0
C      1  0.4656490000000  0.5161380000000  0.5332950000000 1.0
C      1  0.5137940000000  0.4318950000000  0.4186330000000 1.0
C      1  0.4317290000000  0.4420480000000  0.5497850000000 1.0
C      1  0.5297090000000  0.5913900000000  0.5289610000000 1.0
C      1  0.4943280000000  0.4519130000000  0.4264280000000 1.0
C      1  0.4517650000000  0.4055510000000  0.4433720000000 1.0
C      1  0.5907430000000  0.5527420000000  0.4846000000000 1.0
C      1  0.4553800000000  0.5759090000000  0.4376160000000 1.0
C      1  0.5695990000000  0.4824550000000  0.5292140000000 1.0
C      1  0.4659500000000  0.5223120000000  0.4034960000000 1.0
C      1  0.5604200000000  0.5414050000000  0.4262870000000 1.0
C      1  0.5918170000000  0.5109990000000  0.4623010000000 1.0
C      1  0.4028000000000  0.4322810000000  0.5159730000000 1.0
C      1  0.5458450000000  0.5326440000000  0.6018400000000 1.0
C      1  0.5646850000000  0.4619830000000  0.4720410000000 1.0
C      1  0.5492050000000  0.4689380000000  0.5502790000000 1.0
C      1  0.4700940000000  0.4310550000000  0.4953650000000 1.0
C      1  0.5229800000000  0.5507260000000  0.5282540000000 1.0
C      1  0.4742000000000  0.5982810000000  0.5361040000000 1.0
C      1  0.5095170000000  0.5664480000000  0.5053570000000 1.0
C      1  0.5198470000000  0.5934700000000  0.4461030000000 1.0
C      1  0.5570880000000  0.5079670000000  0.6084880000000 1.0
C      1  0.5547410000000  0.5761870000000  0.5305650000000 1.0
C      1  0.5545370000000  0.4322440000000  0.4859050000000 1.0
C      1  0.5038900000000  0.5259500000000  0.5365800000000 1.0
C      1  0.4576500000000  0.4530940000000  0.5680160000000 1.0
C      1  0.4397170000000  0.4336420000000  0.4479600000000 1.0
C      1  0.5760450000000  0.5555040000000  0.5387590000000 1.0
C      1  0.5805270000000  0.5399730000000  0.4484140000000 1.0
C      1  0.5520730000000  0.4466470000000  0.5264460000000 1.0
C      1  0.4199950000000  0.5397650000000  0.4402510000000 1.0
C      1  0.5158810000000  0.4931860000000  0.5929560000000 1.0
C      1  0.5628290000000  0.5496520000000  0.5868450000000 1.0
C      1  0.5600090000000  0.4793000000000  0.4997050000000 1.0
C      1  0.4400400000000  0.5320030000000  0.4233180000000 1.0
C      1  0.4841340000000  0.5577560000000  0.5526640000000 1.0
C      1  0.5957140000000  0.4777720000000  0.5640420000000 1.0
C      1  0.5144100000000  0.5454360000000  0.5610680000000 1.0
C      1  0.3913410000000  0.5304850000000  0.5251230000000 1.0
C      1  0.5554890000000  0.5093230000000  0.5571260000000 1.0
C      1  0.4687750000000  0.4682270000000  0.5927630000000 1.0
C      1  0.5495340000000  0.5407100000000  0.5129890000000 1.0
C      1  0.5201740000000  0.4779170000000  0.4425740000000 1.0
C      1  0.5999860000000  0.4708710000000  0.5336890000000 1.0
C      1  0.5886310000000  0.5056790000000  0.5636320000000 1.0
C      1  0.4767660000000  0.5284270000000  0.4946060000000 1.0
C      1  0.6004080000000  0.4779810000000  0.4593880000000 1.0
C      1  0.4912070000000  0.3951300000000  0.5298350000000 1.0
C      1  0.4655470000000  0.5599050000000  0.4983500000000 1.0
C      1  0.5205500000000  0.5265060000000  0.5863210000000 1.0
C      1  0.5121750000000  0.5213900000000  0.4370230000000 1.0
C      1  0.5086080000000  0.5242010000000  0.3975180000000 1.0
C      1  0.4836010000000  0.4077990000000  0.4527830000000 1.0
C      1  0.5180830000000  0.4796030000000  0.5525790000000 1.0
C      1  0.5953540000000  0.4415830000000  0.4946080000000 1.0
C      1  0.5328410000000  0.4167030000000  0.4994320000000 1.0
C      1  0.4464380000000  0.5894090000000  0.4677670000000 1.0
C      1  0.4896710000000  0.5144850000000  0.5884630000000 1.0
C      1  0.5362220000000  0.5145890000000  0.4136500000000 1.0
C      1  0.4547220000000  0.5611750000000  0.5793700000000 1.0
C      1  0.5446000000000  0.4663540000000  0.4114310000000 1.0
C      1  0.4723750000000  0.5865890000000  0.5650400000000 1.0
C      1  0.5377150000000  0.4562640000000  0.5009570000000 1.0
C      1  0.4476510000000  0.4643060000000  0.4008720000000 1.0
C      1  0.4262690000000  0.5670630000000  0.4541260000000 1.0
C      1  0.5662660000000  0.5654400000000  0.5013060000000 1.0
C      1  0.5324930000000  0.4895820000000  0.4727170000000 1.0
C      1  0.4318810000000  0.5660700000000  0.5321750000000 1.0
C      1  0.4876530000000  0.3822540000000  0.5011390000000 1.0
C      1  0.5260270000000  0.5311940000000  0.4936010000000 1.0
C      1  0.4475000000000  0.5309440000000  0.4677800000000 1.0
C      1  0.4925240000000  0.4366360000000  0.5318690000000 1.0
C      1  0.5385310000000  0.5535600000000  0.4732030000000 1.0
C      1  0.5684070000000  0.4342730000000  0.5534990000000 1.0
C      1  0.5216910000000  0.5022120000000  0.5028080000000 1.0
C      1  0.4665770000000  0.4204370000000  0.5471750000000 1.0
C      1  0.4499940000000  0.4971860000000  0.5466930000000 1.0
C      1  0.5032940000000  0.5574500000000  0.4513730000000 1.0
C      1  0.5820230000000  0.4262760000000  0.4688830000000 1.0
C      1  0.5555180000000  0.4887230000000  0.5842390000000 1.0
C      1  0.4335060000000  0.5562820000000  0.4953530000000 1.0
C      1  0.5134250000000  0.4492470000000  0.5546190000000 1.0
C      1  0.5928770000000  0.5187820000000  0.5378020000000 1.0
C      1  0.5073660000000  0.5931020000000  0.5472330000000 1.0
C      1  0.4882410000000  0.4394050000000  0.5738970000000 1.0
C      1  0.4246190000000  0.5012190000000  0.5570120000000 1.0
C      1  0.5607560000000  0.4288950000000  0.4421160000000 1.0
C      1  0.4370740000000  0.4578660000000  0.5196270000000 1.0
C      1  0.5629400000000  0.5348420000000  0.4757750000000 1.0
C      1  0.5258770000000  0.5944400000000  0.4950660000000 1.0
C      1  0.4905480000000  0.5880630000000  0.5115440000000 1.0
C      1  0.4057250000000  0.4593740000000  0.5441340000000 1.0
C      1  0.5007120000000  0.5468340000000  0.4836180000000 1.0
C      1  0.5056120000000  0.4171880000000  0.5075730000000 1.0
C      1  0.4055110000000  0.5552480000000  0.4785650000000 1.0
C      1  0.6059910000000  0.4874850000000  0.5068720000000 1.0
C      1  0.4386900000000  0.4349000000000  0.4987840000000 1.0
C      1  0.5954860000000  0.5415880000000  0.5144920000000 1.0
C      1  0.3942280000000  0.4981730000000  0.5137930000000 1.0
C      1  0.4855860000000  0.4061070000000  0.4821050000000 1.0
C      1  0.4704280000000  0.5544670000000  0.4158240000000 1.0
C      1  0.5312490000000  0.4264230000000  0.4539320000000 1.0
C      1  0.4716950000000  0.5450950000000  0.4566000000000 1.0
C      1  0.4717890000000  0.5366220000000  0.5945410000000 1.0
C      1  0.4689340000000  0.4742040000000  0.3928120000000 1.0
C      1  0.5359140000000  0.3857850000000  0.5814480000000 1.0
C      1  0.4397560000000  0.5998050000000  0.4937480000000 1.0
C      1  0.4748840000000  0.5751860000000  0.4727600000000 1.0
C      1  0.4852790000000  0.4693780000000  0.5257560000000 1.0
C      1  0.5711100000000  0.4603520000000  0.5748560000000 1.0
C      1  0.4964310000000  0.5481010000000  0.4034750000000 1.0
C      1  0.5577060000000  0.5080760000000  0.4864620000000 1.0
C      1  0.4959250000000  0.4090660000000  0.5605070000000 1.0
C      1  0.4613190000000  0.5436250000000  0.5410160000000 1.0
C      1  0.4941680000000  0.6157910000000  0.4474390000000 1.0
C      1  0.4112860000000  0.4617420000000  0.4488410000000 1.0
C      1  0.4340250000000  0.5498690000000  0.5584460000000 1.0
C      1  0.5996190000000  0.5136790000000  0.4953140000000 1.0
C      1  0.5535260000000  0.5889230000000  0.4835190000000 1.0
C      1  0.5247700000000  0.4074470000000  0.5715070000000 1.0
C      1  0.4641350000000  0.4784670000000  0.4827090000000 1.0
C      1  0.5041430000000  0.5830240000000  0.5769360000000 1.0
C      1  0.4348330000000  0.4110500000000  0.5462230000000 1.0
C      1  0.5185020000000  0.4872890000000  0.4094040000000 1.0
C      1  0.4923070000000  0.4997620000000  0.5196420000000 1.0
C      1  0.5412300000000  0.5747600000000  0.4487850000000 1.0
C      1  0.5669440000000  0.5139310000000  0.5183410000000 1.0
C      1  0.4272530000000  0.4085990000000  0.5148380000000 1.0
C      1  0.5090970000000  0.5084480000000  0.4654950000000 1.0
C      1  0.4586220000000  0.4697480000000  0.5408980000000 1.0
C      1  0.4880260000000  0.5839000000000  0.4363200000000 1.0
C      1  0.4152970000000  0.5281760000000  0.5469910000000 1.0
C      1  0.4787600000000  0.5159650000000  0.4416460000000 1.0
C      1  0.5852130000000  0.4421860000000  0.5246910000000 1.0
C      1  0.5120710000000  0.4570270000000  0.4865250000000 1.0
C      1  0.4996280000000  0.5938650000000  0.4732540000000 1.0
C      1  0.5726140000000  0.5707980000000  0.4617890000000 1.0
C      1  0.4880410000000  0.4841550000000  0.4340550000000 1.0
C      1  0.5414510000000  0.4400320000000  0.4177920000000 1.0
C      1  0.4062520000000  0.4701650000000  0.4814970000000 1.0
C      1  0.4548350000000  0.4625370000000  0.4582110000000 1.0
C      1  0.4098200000000  0.5195240000000  0.4551010000000 1.0
C      1  0.5695510000000  0.4879970000000  0.4503660000000 1.0
C      1  0.6067810000000  0.4672260000000  0.4869570000000 1.0
C      1  0.5855590000000  0.4516720000000  0.4465060000000 1.0
END
