TITL C-2778429-3646-942 0.000832756300659273 125000 -533.374851064522 0 0 94 (C1) n - 1
REM
REM in /home/nfs/bkarasulu/CARBON/AIRSS/Generating-Clusters/REBO/Only-C1/SD-CG/HFTN-CG
REM
REM
REM
REM
REM
REM ./C.cell (11c1c37f851c82e70ff6c80c92926a4b)
REM
REM compiler GCC version 9.2.1 20190827 (Red Hat 9.2.1-1)
REM options -cpp -mtune=generic -march=x86-64 -g -O0 -fpre-include=/usr/include/finclude/math-vector-fortran.h
REM seed 1395164102 920555586 -1483617297 -1753380230 -1218135162 -1048000427 711395122 585327753 -1528290420 -1582357788 1682901318 1359718444 1366506832 1288476463 1384493581 1871129385 2121755714 342659026 629582671 -1585116410 269728401 1353366185 -1422485515 1118960856 591145363 -1061211091 -561966116 630840698 1215035293 -122001234 1115410687 -1011199544 -1108555762
REM
CELL 1.54180   50.00000   50.00000   50.00000   90.00000   90.00000   90.00000
LATT -1
SFAC C  
C      1  0.5078220000000  0.5295580000000  0.5059770000000 1.0
C      1  0.5307820000000  0.4326570000000  0.5599160000000 1.0
C      1  0.5226310000000  0.5262870000000  0.5568440000000 1.0
C      1  0.5378160000000  0.4454230000000  0.4281890000000 1.0
C      1  0.5063350000000  0.5627810000000  0.4627920000000 1.0
C      1  0.5602350000000  0.5359260000000  0.5479960000000 1.0
C      1  0.5145420000000  0.5779050000000  0.5575220000000 1.0
C      1  0.4318090000000  0.5286420000000  0.5387160000000 1.0
C      1  0.4769770000000  0.5215910000000  0.5065650000000 1.0
C      1  0.4631750000000  0.4939740000000  0.5070950000000 1.0
C      1  0.4806880000000  0.5706900000000  0.4764410000000 1.0
C      1  0.5782680000000  0.4836880000000  0.5050160000000 1.0
C      1  0.4849770000000  0.5451700000000  0.4340370000000 1.0
C      1  0.5259120000000  0.4806540000000  0.4728060000000 1.0
C      1  0.4993860000000  0.4444290000000  0.5558200000000 1.0
C      1  0.4554100000000  0.5785490000000  0.5064210000000 1.0
C      1  0.5483080000000  0.4956780000000  0.4934290000000 1.0
C      1  0.5412530000000  0.4469170000000  0.4854560000000 1.0
C      1  0.5378340000000  0.5680810000000  0.4727860000000 1.0
C      1  0.5129220000000  0.4935740000000  0.5578340000000 1.0
C      1  0.4669200000000  0.5322590000000  0.5942380000000 1.0
C      1  0.4471600000000  0.5263240000000  0.4565570000000 1.0
C      1  0.4847570000000  0.4890130000000  0.5410610000000 1.0
C      1  0.5172070000000  0.4234970000000  0.5073730000000 1.0
C      1  0.4670500000000  0.4414640000000  0.5483300000000 1.0
C      1  0.4204730000000  0.4995670000000  0.4861200000000 1.0
C      1  0.4580230000000  0.5278530000000  0.5688280000000 1.0
C      1  0.4578670000000  0.5690250000000  0.4606050000000 1.0
C      1  0.4700130000000  0.5172060000000  0.5388210000000 1.0
C      1  0.5625490000000  0.4677180000000  0.4806600000000 1.0
C      1  0.4348790000000  0.5042780000000  0.5617010000000 1.0
C      1  0.5274330000000  0.4256330000000  0.4439420000000 1.0
C      1  0.4617590000000  0.5361020000000  0.4828850000000 1.0
C      1  0.5358210000000  0.4753230000000  0.5253960000000 1.0
C      1  0.4628870000000  0.4883850000000  0.5661850000000 1.0
C      1  0.5672160000000  0.4684820000000  0.5549050000000 1.0
C      1  0.4407780000000  0.4578780000000  0.4770160000000 1.0
C      1  0.5210030000000  0.4990220000000  0.4169800000000 1.0
C      1  0.4846070000000  0.4708620000000  0.5131910000000 1.0
C      1  0.5352980000000  0.5517950000000  0.4430150000000 1.0
C      1  0.5056700000000  0.4813630000000  0.4491700000000 1.0
C      1  0.5299680000000  0.5080560000000  0.5173340000000 1.0
C      1  0.5560310000000  0.5115840000000  0.5366830000000 1.0
C      1  0.5407820000000  0.5056880000000  0.5731390000000 1.0
C      1  0.5175450000000  0.5338210000000  0.4755720000000 1.0
C      1  0.6071360000000  0.4893340000000  0.4979500000000 1.0
C      1  0.5353400000000  0.5794980000000  0.5014990000000 1.0
C      1  0.4763950000000  0.4465490000000  0.4906550000000 1.0
C      1  0.4250430000000  0.5268410000000  0.5059380000000 1.0
C      1  0.5505950000000  0.5379200000000  0.4772410000000 1.0
C      1  0.5015240000000  0.4688340000000  0.5746930000000 1.0
C      1  0.4802060000000  0.4668210000000  0.4320090000000 1.0
C      1  0.4517300000000  0.4826380000000  0.4420740000000 1.0
C      1  0.5739580000000  0.5058770000000  0.4476820000000 1.0
C      1  0.5533030000000  0.4229030000000  0.5005720000000 1.0
C      1  0.5350340000000  0.4755420000000  0.4342850000000 1.0
C      1  0.4802810000000  0.5963390000000  0.4978440000000 1.0
C      1  0.4415040000000  0.5551650000000  0.4965410000000 1.0
C      1  0.5294550000000  0.5255220000000  0.4220420000000 1.0
C      1  0.4611540000000  0.5283470000000  0.4317430000000 1.0
C      1  0.4290330000000  0.4445110000000  0.5124380000000 1.0
C      1  0.5722650000000  0.4881470000000  0.5352770000000 1.0
C      1  0.5710310000000  0.5285490000000  0.4574070000000 1.0
C      1  0.4189830000000  0.4716600000000  0.4944530000000 1.0
C      1  0.4935870000000  0.4919270000000  0.4126740000000 1.0
C      1  0.5128360000000  0.4615580000000  0.4962590000000 1.0
C      1  0.4413190000000  0.4508100000000  0.5380010000000 1.0
C      1  0.4659120000000  0.4774470000000  0.4789440000000 1.0
C      1  0.4813000000000  0.3973040000000  0.4896280000000 1.0
C      1  0.4713950000000  0.5701340000000  0.5329430000000 1.0
C      1  0.4798030000000  0.4968650000000  0.4579520000000 1.0
C      1  0.4663620000000  0.5023480000000  0.4203160000000 1.0
C      1  0.4543600000000  0.5505440000000  0.5459750000000 1.0
C      1  0.5385290000000  0.4187630000000  0.5338650000000 1.0
C      1  0.5021300000000  0.4257610000000  0.4561540000000 1.0
C      1  0.5472830000000  0.5616600000000  0.5203490000000 1.0
C      1  0.4911750000000  0.5840320000000  0.5517870000000 1.0
C      1  0.4956420000000  0.4219080000000  0.4864370000000 1.0
C      1  0.4334980000000  0.5016970000000  0.4609530000000 1.0
C      1  0.4322650000000  0.4765220000000  0.5445870000000 1.0
C      1  0.5531610000000  0.4481750000000  0.5234510000000 1.0
C      1  0.5571540000000  0.4832950000000  0.4538410000000 1.0
C      1  0.4374200000000  0.4992270000000  0.5222450000000 1.0
C      1  0.4866870000000  0.5276990000000  0.4624370000000 1.0
C      1  0.5503090000000  0.4508370000000  0.5673060000000 1.0
C      1  0.5597450000000  0.5406210000000  0.5073240000000 1.0
C      1  0.5338430000000  0.5561260000000  0.5492370000000 1.0
C      1  0.4823100000000  0.4372580000000  0.4407920000000 1.0
C      1  0.4902440000000  0.5589880000000  0.5073950000000 1.0
C      1  0.5089460000000  0.5867880000000  0.5067940000000 1.0
C      1  0.4772060000000  0.4757120000000  0.5860790000000 1.0
C      1  0.4475290000000  0.4307860000000  0.4915900000000 1.0
C      1  0.5094900000000  0.5503420000000  0.4227800000000 1.0
C      1  0.5138140000000  0.4495010000000  0.5282010000000 1.0
END
