TITL C-2778429-3646-939 0.000225533256098814 125000 -531.816333183631 0 0 92 (C1) n - 1
REM
REM in /home/nfs/bkarasulu/CARBON/AIRSS/Generating-Clusters/REBO/Only-C1/SD-CG/HFTN-CG
REM
REM
REM
REM
REM
REM ./C.cell (11c1c37f851c82e70ff6c80c92926a4b)
REM
REM compiler GCC version 9.2.1 20190827 (Red Hat 9.2.1-1)
REM options -cpp -mtune=generic -march=x86-64 -g -O0 -fpre-include=/usr/include/finclude/math-vector-fortran.h
REM seed -674943548 924088086 1151056278 346697479 -1760372552 866736042 -1588525775 1605917839 1791272302 -508223038 778134615 -776483586 363452249 1060012016 -1347983509 -2048314188 -1720960797 -1247345234 691886938 -560189789 956788506 -290403328 -543371262 135020239 987776333 1851194135 1488866342 -1411029484 1327609454 610148304 -1395710408 1751895588 -1753109977
REM
CELL 1.54180   50.00000   50.00000   50.00000   90.00000   90.00000   90.00000
LATT -1
SFAC C  
C      1  0.4278170000000  0.4995490000000  0.4596260000000 1.0
C      1  0.5216400000000  0.4418120000000  0.4788590000000 1.0
C      1  0.4749430000000  0.4772300000000  0.5380600000000 1.0
C      1  0.5332700000000  0.4921220000000  0.4201550000000 1.0
C      1  0.5097850000000  0.4651450000000  0.5644830000000 1.0
C      1  0.5350490000000  0.4575180000000  0.5548570000000 1.0
C      1  0.4545910000000  0.5654480000000  0.5513370000000 1.0
C      1  0.4418700000000  0.4485380000000  0.4380970000000 1.0
C      1  0.5416110000000  0.5128730000000  0.4374900000000 1.0
C      1  0.5419700000000  0.5158840000000  0.5089630000000 1.0
C      1  0.4757200000000  0.4309980000000  0.5387030000000 1.0
C      1  0.5616210000000  0.5556500000000  0.4570840000000 1.0
C      1  0.5197080000000  0.4482650000000  0.4384000000000 1.0
C      1  0.4242840000000  0.4450510000000  0.4848020000000 1.0
C      1  0.5856220000000  0.5330050000000  0.5273420000000 1.0
C      1  0.5547990000000  0.5575230000000  0.4965620000000 1.0
C      1  0.4557350000000  0.4765690000000  0.4265840000000 1.0
C      1  0.4252950000000  0.4427980000000  0.4579290000000 1.0
C      1  0.4121560000000  0.5476900000000  0.4883270000000 1.0
C      1  0.4877340000000  0.4244860000000  0.5117110000000 1.0
C      1  0.4858420000000  0.4939870000000  0.5175150000000 1.0
C      1  0.5873310000000  0.5282650000000  0.4930310000000 1.0
C      1  0.4670760000000  0.5335500000000  0.4912070000000 1.0
C      1  0.5763100000000  0.5318060000000  0.5564450000000 1.0
C      1  0.4720770000000  0.5459720000000  0.5601020000000 1.0
C      1  0.5136050000000  0.5668660000000  0.5353070000000 1.0
C      1  0.4693840000000  0.5596090000000  0.4712820000000 1.0
C      1  0.4862170000000  0.5227080000000  0.5753180000000 1.0
C      1  0.5757530000000  0.5320220000000  0.4670580000000 1.0
C      1  0.4770170000000  0.4483250000000  0.4897940000000 1.0
C      1  0.5028180000000  0.5476250000000  0.5022670000000 1.0
C      1  0.4657830000000  0.5849600000000  0.5282800000000 1.0
C      1  0.4459430000000  0.4905940000000  0.5030860000000 1.0
C      1  0.4235140000000  0.4891380000000  0.4821090000000 1.0
C      1  0.3900790000000  0.5434600000000  0.4741330000000 1.0
C      1  0.5531540000000  0.5147010000000  0.5657410000000 1.0
C      1  0.5778990000000  0.4792410000000  0.5095810000000 1.0
C      1  0.5508260000000  0.4577010000000  0.4753140000000 1.0
C      1  0.5685740000000  0.4312680000000  0.5198160000000 1.0
C      1  0.4935990000000  0.5408980000000  0.5405360000000 1.0
C      1  0.4273740000000  0.5373500000000  0.5143850000000 1.0
C      1  0.5294500000000  0.5066780000000  0.4873640000000 1.0
C      1  0.4909760000000  0.5777850000000  0.5142600000000 1.0
C      1  0.4567650000000  0.4849960000000  0.6023330000000 1.0
C      1  0.5155240000000  0.5775940000000  0.4711000000000 1.0
C      1  0.5027880000000  0.5195370000000  0.4765530000000 1.0
C      1  0.5247810000000  0.5318590000000  0.4540320000000 1.0
C      1  0.4403400000000  0.5629420000000  0.4869680000000 1.0
C      1  0.4550160000000  0.4995100000000  0.4457830000000 1.0
C      1  0.5430910000000  0.4504300000000  0.5289150000000 1.0
C      1  0.4491170000000  0.5205120000000  0.5070100000000 1.0
C      1  0.4810130000000  0.5489560000000  0.4439800000000 1.0
C      1  0.5434780000000  0.4866460000000  0.4674840000000 1.0
C      1  0.5691730000000  0.4555130000000  0.4990930000000 1.0
C      1  0.4926000000000  0.4039210000000  0.4866550000000 1.0
C      1  0.5085710000000  0.5551600000000  0.4390250000000 1.0
C      1  0.4752250000000  0.5225900000000  0.4369190000000 1.0
C      1  0.4753160000000  0.4502690000000  0.4355460000000 1.0
C      1  0.5166050000000  0.4691110000000  0.4195270000000 1.0
C      1  0.5374360000000  0.5693180000000  0.4484110000000 1.0
C      1  0.5708240000000  0.5080580000000  0.5126410000000 1.0
C      1  0.4671480000000  0.4954680000000  0.5756140000000 1.0
C      1  0.4484020000000  0.4341710000000  0.5329170000000 1.0
C      1  0.4937390000000  0.5198190000000  0.5195680000000 1.0
C      1  0.5292080000000  0.5497310000000  0.4821420000000 1.0
C      1  0.5727510000000  0.5592460000000  0.5134230000000 1.0
C      1  0.4306250000000  0.5188640000000  0.5486630000000 1.0
C      1  0.5256280000000  0.4534710000000  0.5081370000000 1.0
C      1  0.5011780000000  0.4921440000000  0.5737650000000 1.0
C      1  0.5659200000000  0.5077480000000  0.4544850000000 1.0
C      1  0.4898410000000  0.5798780000000  0.4826360000000 1.0
C      1  0.4935190000000  0.4452390000000  0.4601520000000 1.0
C      1  0.5454060000000  0.4428060000000  0.4470270000000 1.0
C      1  0.5917580000000  0.4210830000000  0.5302400000000 1.0
C      1  0.4956380000000  0.5013900000000  0.4299390000000 1.0
C      1  0.4813960000000  0.4968790000000  0.4669090000000 1.0
C      1  0.5184220000000  0.4147400000000  0.5150490000000 1.0
C      1  0.4860320000000  0.4743000000000  0.4137870000000 1.0
C      1  0.4443510000000  0.4965340000000  0.5540320000000 1.0
C      1  0.4464140000000  0.4507060000000  0.5050180000000 1.0
C      1  0.5119300000000  0.4118460000000  0.4720080000000 1.0
C      1  0.5304750000000  0.5458140000000  0.5550360000000 1.0
C      1  0.4873770000000  0.4545850000000  0.5502650000000 1.0
C      1  0.5198740000000  0.5200560000000  0.5705710000000 1.0
C      1  0.4395230000000  0.5668680000000  0.5208290000000 1.0
C      1  0.5426950000000  0.4126630000000  0.5159750000000 1.0
C      1  0.5588490000000  0.5541280000000  0.5637290000000 1.0
C      1  0.4480830000000  0.4762390000000  0.6246760000000 1.0
C      1  0.5289950000000  0.5386170000000  0.5222840000000 1.0
C      1  0.4443160000000  0.4738020000000  0.5302240000000 1.0
C      1  0.4739790000000  0.4808020000000  0.4910350000000 1.0
C      1  0.5130490000000  0.4907780000000  0.4545890000000 1.0
END
