TITL C-2778435-5768-201 0.002233494081459 125000 -161.799192020501 0 0 28 (C1) n - 1
REM
REM in /home/nfs/bkarasulu/CARBON/AIRSS/Generating-Clusters/REBO/Only-C1/SD-CG/HFTN-CG
REM
REM
REM
REM
REM
REM ./C.cell (11c1c37f851c82e70ff6c80c92926a4b)
REM
REM compiler GCC version 9.2.1 20190827 (Red Hat 9.2.1-1)
REM options -cpp -mtune=generic -march=x86-64 -g -O0 -fpre-include=/usr/include/finclude/math-vector-fortran.h
REM seed -1244255222 -260130224 -765904234 1346552841 1594772253 1585689015 -1087874447 -1161850834 1348899424 1252472153 -1297552427 1912360688 -88834125 -928282213 1305064513 350242 1962831062 -1406348954 -1655405746 662122951 -1392183108 2137454287 785973447 -322416457 703169496 -1891946507 -1556172583 1616612608 176174941 989155441 -386209357 260182026 723879036
REM
CELL 1.54180   50.00000   50.00000   50.00000   90.00000   90.00000   90.00000
LATT -1
SFAC C  
C      1  0.5003180000000  0.5471040000000  0.5143650000000 1.0
C      1  0.5018280000000  0.5140070000000  0.4754800000000 1.0
C      1  0.5457150000000  0.5640910000000  0.5039840000000 1.0
C      1  0.4797120000000  0.4804040000000  0.5452260000000 1.0
C      1  0.5031020000000  0.4462870000000  0.4572930000000 1.0
C      1  0.4746830000000  0.5060620000000  0.4702470000000 1.0
C      1  0.4716020000000  0.5068000000000  0.5355880000000 1.0
C      1  0.5099820000000  0.5381350000000  0.4874140000000 1.0
C      1  0.5520620000000  0.5282930000000  0.4664270000000 1.0
C      1  0.4704760000000  0.4844620000000  0.4525500000000 1.0
C      1  0.5077760000000  0.4544270000000  0.5053920000000 1.0
C      1  0.4918240000000  0.4622450000000  0.5272570000000 1.0
C      1  0.4491740000000  0.5084780000000  0.5171100000000 1.0
C      1  0.4770640000000  0.4743080000000  0.5723730000000 1.0
C      1  0.4745810000000  0.4685920000000  0.5978280000000 1.0
C      1  0.5050560000000  0.5554570000000  0.5470490000000 1.0
C      1  0.5264560000000  0.4738220000000  0.4961220000000 1.0
C      1  0.5007520000000  0.4364820000000  0.4842730000000 1.0
C      1  0.5448380000000  0.4785530000000  0.4495120000000 1.0
C      1  0.5210880000000  0.4934660000000  0.4780190000000 1.0
C      1  0.5529780000000  0.5036030000000  0.4553570000000 1.0
C      1  0.4236560000000  0.5047640000000  0.5257960000000 1.0
C      1  0.4803300000000  0.4597310000000  0.4468810000000 1.0
C      1  0.5282700000000  0.4571670000000  0.4496840000000 1.0
C      1  0.4556430000000  0.5121240000000  0.4899970000000 1.0
C      1  0.4869570000000  0.5295570000000  0.5402800000000 1.0
C      1  0.5375260000000  0.5457710000000  0.4831270000000 1.0
C      1  0.5265520000000  0.5658100000000  0.5253680000000 1.0
END
