TITL C-2778430-5657-1178 0.000237423792188467 125000 -209.290924459748 0 0 37 (C1) n - 1
REM
REM in /home/nfs/bkarasulu/CARBON/AIRSS/Generating-Clusters/REBO/Only-C1/SD-CG/HFTN-CG
REM
REM
REM
REM
REM
REM ./C.cell (11c1c37f851c82e70ff6c80c92926a4b)
REM
REM compiler GCC version 9.2.1 20190827 (Red Hat 9.2.1-1)
REM options -cpp -mtune=generic -march=x86-64 -g -O0 -fpre-include=/usr/include/finclude/math-vector-fortran.h
REM seed -261246781 -1838627041 -509371313 1350210559 2063898195 -956880933 1783683573 -694213674 -195571582 -2061741054 934134746 -613097936 -1342753221 681884737 -82934572 -331848976 1460366265 1046929375 -1816346285 -579586357 436993779 -1995181968 1888969717 -1356554167 974542413 -1062970891 -1284461946 997872733 -11901111 -809520047 -746359878 -1283324419 -723380614
REM
CELL 1.54180   50.00000   50.00000   50.00000   90.00000   90.00000   90.00000
LATT -1
SFAC C  
C      1  0.5070420000000  0.5256220000000  0.4847400000000 1.0
C      1  0.5202860000000  0.5058440000000  0.5560440000000 1.0
C      1  0.5336630000000  0.5279700000000  0.5439250000000 1.0
C      1  0.4704350000000  0.4505870000000  0.5379190000000 1.0
C      1  0.4744310000000  0.5392650000000  0.5355850000000 1.0
C      1  0.4979250000000  0.4403580000000  0.4988290000000 1.0
C      1  0.5034300000000  0.5627790000000  0.5213080000000 1.0
C      1  0.5122640000000  0.4647910000000  0.5028150000000 1.0
C      1  0.5266750000000  0.5065480000000  0.4853250000000 1.0
C      1  0.5024690000000  0.4871250000000  0.5445550000000 1.0
C      1  0.4562220000000  0.4954640000000  0.5496820000000 1.0
C      1  0.4858450000000  0.4945540000000  0.4711850000000 1.0
C      1  0.5992750000000  0.5225270000000  0.4663700000000 1.0
C      1  0.4755700000000  0.5323440000000  0.4787460000000 1.0
C      1  0.4764660000000  0.4752580000000  0.5516050000000 1.0
C      1  0.4316720000000  0.5247810000000  0.5158220000000 1.0
C      1  0.5332360000000  0.4330450000000  0.4674350000000 1.0
C      1  0.5538870000000  0.5229200000000  0.5248290000000 1.0
C      1  0.4067400000000  0.5354220000000  0.4743120000000 1.0
C      1  0.4768750000000  0.5010960000000  0.5036240000000 1.0
C      1  0.5535910000000  0.5125680000000  0.4546050000000 1.0
C      1  0.5733570000000  0.5185560000000  0.4737820000000 1.0
C      1  0.4566160000000  0.4834840000000  0.4826530000000 1.0
C      1  0.5193490000000  0.5523320000000  0.5408970000000 1.0
C      1  0.4602070000000  0.5164450000000  0.5262760000000 1.0
C      1  0.4711370000000  0.4425160000000  0.5102250000000 1.0
C      1  0.5024430000000  0.4876440000000  0.5156440000000 1.0
C      1  0.4283790000000  0.5262090000000  0.4876450000000 1.0
C      1  0.5109200000000  0.4231420000000  0.4804220000000 1.0
C      1  0.5293510000000  0.5050010000000  0.4454690000000 1.0
C      1  0.5429650000000  0.4584990000000  0.4694630000000 1.0
C      1  0.4520370000000  0.4550330000000  0.4926160000000 1.0
C      1  0.5390560000000  0.4837270000000  0.4781920000000 1.0
C      1  0.5656140000000  0.5203280000000  0.5008150000000 1.0
C      1  0.5043820000000  0.4982150000000  0.4531970000000 1.0
C      1  0.4936140000000  0.5518110000000  0.4977360000000 1.0
C      1  0.4525710000000  0.5161890000000  0.4757080000000 1.0
END
