TITL C-2778431-5191-1216 -0.000886701847187994 125000 -916.735024977008 0 0 157 (C1) n - 1
REM
REM in /home/nfs/bkarasulu/CARBON/AIRSS/Generating-Clusters/REBO/Only-C1/SD-CG/HFTN-CG
REM
REM
REM
REM
REM
REM ./C.cell (11c1c37f851c82e70ff6c80c92926a4b)
REM
REM compiler GCC version 9.2.1 20190827 (Red Hat 9.2.1-1)
REM options -cpp -mtune=generic -march=x86-64 -g -O0 -fpre-include=/usr/include/finclude/math-vector-fortran.h
REM seed 499688709 742726908 -995468603 1277503547 252335052 -2081125329 1076125077 1930229535 858128838 994924076 891327626 1984770028 -2088193254 -202310458 544819006 -836292038 1474414274 523935244 375253001 1379997178 -582259703 -219955448 -630324560 1239179655 1455586322 -1652821310 15702866 975825253 1829104256 -2046032247 -690855961 825994117 -764967468
REM
CELL 1.54180   50.00000   50.00000   50.00000   90.00000   90.00000   90.00000
LATT -1
SFAC C  
C      1  0.4380510000000  0.4750910000000  0.5536060000000 1.0
C      1  0.5496090000000  0.4839500000000  0.5987260000000 1.0
C      1  0.5466140000000  0.5553590000000  0.5721850000000 1.0
C      1  0.5455170000000  0.4979250000000  0.4456600000000 1.0
C      1  0.5167410000000  0.5196600000000  0.5539290000000 1.0
C      1  0.4655290000000  0.5867720000000  0.4614400000000 1.0
C      1  0.4502440000000  0.4736850000000  0.4609550000000 1.0
C      1  0.4352610000000  0.5036360000000  0.4144440000000 1.0
C      1  0.4879440000000  0.5027860000000  0.4335550000000 1.0
C      1  0.5021670000000  0.5747030000000  0.4510990000000 1.0
C      1  0.4579120000000  0.4319870000000  0.4426970000000 1.0
C      1  0.4910430000000  0.4344570000000  0.5973910000000 1.0
C      1  0.4507920000000  0.5751680000000  0.5798520000000 1.0
C      1  0.5646580000000  0.4558230000000  0.4235940000000 1.0
C      1  0.4883870000000  0.5170690000000  0.4783410000000 1.0
C      1  0.4288650000000  0.5536990000000  0.4715360000000 1.0
C      1  0.4915450000000  0.5134140000000  0.6144480000000 1.0
C      1  0.4533170000000  0.4000550000000  0.5115300000000 1.0
C      1  0.4927680000000  0.4803880000000  0.6224920000000 1.0
C      1  0.5259580000000  0.3946260000000  0.4990010000000 1.0
C      1  0.4119380000000  0.4807100000000  0.5127520000000 1.0
C      1  0.4084280000000  0.5589160000000  0.5572470000000 1.0
C      1  0.5045350000000  0.5899010000000  0.4815930000000 1.0
C      1  0.4264500000000  0.4849510000000  0.4394330000000 1.0
C      1  0.4920710000000  0.5328840000000  0.4051430000000 1.0
C      1  0.4351130000000  0.4462980000000  0.5717240000000 1.0
C      1  0.5162910000000  0.4433970000000  0.5002070000000 1.0
C      1  0.4583830000000  0.4944630000000  0.4009500000000 1.0
C      1  0.5558450000000  0.4829800000000  0.4182470000000 1.0
C      1  0.6124710000000  0.4950220000000  0.4416310000000 1.0
C      1  0.5210300000000  0.4674530000000  0.5609970000000 1.0
C      1  0.4426640000000  0.5032560000000  0.4710480000000 1.0
C      1  0.5017560000000  0.4700270000000  0.4696970000000 1.0
C      1  0.4904170000000  0.4560200000000  0.6130550000000 1.0
C      1  0.4176930000000  0.4366400000000  0.4817040000000 1.0
C      1  0.5175110000000  0.4195770000000  0.4286740000000 1.0
C      1  0.4018010000000  0.4633480000000  0.4947820000000 1.0
C      1  0.5315650000000  0.4158770000000  0.4562620000000 1.0
C      1  0.4576600000000  0.5797270000000  0.5032230000000 1.0
C      1  0.6096260000000  0.4685580000000  0.4358110000000 1.0
C      1  0.4942840000000  0.4654510000000  0.5484010000000 1.0
C      1  0.5656230000000  0.4087000000000  0.5459080000000 1.0
C      1  0.6010820000000  0.4976140000000  0.5043760000000 1.0
C      1  0.6090300000000  0.4733720000000  0.4969350000000 1.0
C      1  0.5620550000000  0.5416500000000  0.5500070000000 1.0
C      1  0.4016710000000  0.5380980000000  0.4641770000000 1.0
C      1  0.5969420000000  0.5136120000000  0.4538240000000 1.0
C      1  0.4114940000000  0.5406260000000  0.5238500000000 1.0
C      1  0.5244920000000  0.3683270000000  0.4883610000000 1.0
C      1  0.5826110000000  0.5563020000000  0.5089600000000 1.0
C      1  0.5467970000000  0.5409410000000  0.5266400000000 1.0
C      1  0.4458830000000  0.5226890000000  0.5700090000000 1.0
C      1  0.4872670000000  0.4195050000000  0.5710340000000 1.0
C      1  0.4463660000000  0.4591260000000  0.4313130000000 1.0
C      1  0.4833580000000  0.5625040000000  0.5078760000000 1.0
C      1  0.5045900000000  0.5770930000000  0.5301980000000 1.0
C      1  0.5123060000000  0.3966400000000  0.5260110000000 1.0
C      1  0.5359350000000  0.5998420000000  0.4844820000000 1.0
C      1  0.5399450000000  0.4495940000000  0.5446050000000 1.0
C      1  0.5647460000000  0.5688890000000  0.4624600000000 1.0
C      1  0.4803540000000  0.4933650000000  0.5439380000000 1.0
C      1  0.4324530000000  0.5628810000000  0.5003470000000 1.0
C      1  0.4730110000000  0.5387510000000  0.5268660000000 1.0
C      1  0.4566980000000  0.5520990000000  0.4278510000000 1.0
C      1  0.5895920000000  0.5268570000000  0.5175960000000 1.0
C      1  0.4900100000000  0.5396820000000  0.5541620000000 1.0
C      1  0.4932070000000  0.4467970000000  0.5206160000000 1.0
C      1  0.5431630000000  0.4232390000000  0.5547520000000 1.0
C      1  0.4539230000000  0.4287460000000  0.5268960000000 1.0
C      1  0.4902810000000  0.4408280000000  0.4644510000000 1.0
C      1  0.4966520000000  0.5413460000000  0.4560130000000 1.0
C      1  0.5164760000000  0.4089190000000  0.5569520000000 1.0
C      1  0.4017070000000  0.5260930000000  0.5511050000000 1.0
C      1  0.5394440000000  0.5004730000000  0.3753870000000 1.0
C      1  0.4655650000000  0.4555170000000  0.4784210000000 1.0
C      1  0.5057320000000  0.4846790000000  0.4416250000000 1.0
C      1  0.4638960000000  0.4550230000000  0.5462310000000 1.0
C      1  0.5554060000000  0.4057380000000  0.4975290000000 1.0
C      1  0.4916490000000  0.4208390000000  0.5371300000000 1.0
C      1  0.4858460000000  0.5637690000000  0.4233390000000 1.0
C      1  0.5193450000000  0.5592350000000  0.4834900000000 1.0
C      1  0.4465460000000  0.4367200000000  0.4974570000000 1.0
C      1  0.5879060000000  0.4505810000000  0.4394390000000 1.0
C      1  0.4750640000000  0.5579550000000  0.4751690000000 1.0
C      1  0.5676040000000  0.5750540000000  0.5250570000000 1.0
C      1  0.6018100000000  0.4499750000000  0.4850940000000 1.0
C      1  0.5219450000000  0.5550200000000  0.5152520000000 1.0
C      1  0.5692230000000  0.5039150000000  0.5039830000000 1.0
C      1  0.4693640000000  0.5087050000000  0.5681340000000 1.0
C      1  0.4282750000000  0.5860750000000  0.5624690000000 1.0
C      1  0.5346330000000  0.5838420000000  0.4560890000000 1.0
C      1  0.4936810000000  0.5697020000000  0.5576880000000 1.0
C      1  0.5857170000000  0.5258440000000  0.5482390000000 1.0
C      1  0.4004340000000  0.4983200000000  0.5313140000000 1.0
C      1  0.4145910000000  0.5743290000000  0.5270940000000 1.0
C      1  0.5389920000000  0.4610750000000  0.5157440000000 1.0
C      1  0.4331110000000  0.5321520000000  0.4221910000000 1.0
C      1  0.5226600000000  0.5264840000000  0.6096600000000 1.0
C      1  0.4438430000000  0.4772650000000  0.5201050000000 1.0
C      1  0.4205980000000  0.5170350000000  0.4490380000000 1.0
C      1  0.5508830000000  0.5796320000000  0.5543430000000 1.0
C      1  0.4898500000000  0.4331330000000  0.4324010000000 1.0
C      1  0.5479620000000  0.4977960000000  0.4792200000000 1.0
C      1  0.5392560000000  0.4399510000000  0.4253610000000 1.0
C      1  0.4918440000000  0.5236680000000  0.5845930000000 1.0
C      1  0.4691980000000  0.5081070000000  0.5189350000000 1.0
C      1  0.5337640000000  0.4461150000000  0.4715040000000 1.0
C      1  0.5134350000000  0.5360010000000  0.4305580000000 1.0
C      1  0.5130170000000  0.4684140000000  0.4010740000000 1.0
C      1  0.5485720000000  0.5959550000000  0.5085560000000 1.0
C      1  0.4342690000000  0.6005840000000  0.5363990000000 1.0
C      1  0.5360620000000  0.4844250000000  0.3970650000000 1.0
C      1  0.5084090000000  0.4165590000000  0.4803260000000 1.0
C      1  0.4653070000000  0.4686980000000  0.4096190000000 1.0
C      1  0.5157540000000  0.5007080000000  0.6347130000000 1.0
C      1  0.5024530000000  0.4896100000000  0.5176560000000 1.0
C      1  0.4449100000000  0.5695240000000  0.4496810000000 1.0
C      1  0.4171680000000  0.4968400000000  0.5587150000000 1.0
C      1  0.5381340000000  0.5500200000000  0.4586670000000 1.0
C      1  0.4855800000000  0.4886160000000  0.4885700000000 1.0
C      1  0.4832000000000  0.6096990000000  0.4995470000000 1.0
C      1  0.5420520000000  0.5269290000000  0.4376170000000 1.0
C      1  0.5604100000000  0.4941920000000  0.5741740000000 1.0
C      1  0.4706530000000  0.4664700000000  0.5086100000000 1.0
C      1  0.4779440000000  0.5810830000000  0.5763590000000 1.0
C      1  0.5596220000000  0.4247540000000  0.4730340000000 1.0
C      1  0.5482770000000  0.4916280000000  0.5226590000000 1.0
C      1  0.4899940000000  0.4563440000000  0.4113360000000 1.0
C      1  0.4774670000000  0.5138650000000  0.3940400000000 1.0
C      1  0.4355870000000  0.5486810000000  0.5738090000000 1.0
C      1  0.5322810000000  0.5913940000000  0.5334430000000 1.0
C      1  0.5152640000000  0.5620500000000  0.4080350000000 1.0
C      1  0.4725270000000  0.6114500000000  0.4715440000000 1.0
C      1  0.5245720000000  0.4814550000000  0.4922510000000 1.0
C      1  0.3855330000000  0.4449560000000  0.4749460000000 1.0
C      1  0.5853670000000  0.4384300000000  0.4651830000000 1.0
C      1  0.5069490000000  0.5322360000000  0.4970850000000 1.0
C      1  0.4548530000000  0.5333050000000  0.4630750000000 1.0
C      1  0.4586670000000  0.3997480000000  0.4845070000000 1.0
C      1  0.5854180000000  0.5044900000000  0.5663690000000 1.0
C      1  0.4437020000000  0.4212220000000  0.4668550000000 1.0
C      1  0.5371900000000  0.4945770000000  0.5528090000000 1.0
C      1  0.5336770000000  0.4659500000000  0.4465860000000 1.0
C      1  0.5827390000000  0.5627840000000  0.4813330000000 1.0
C      1  0.4413410000000  0.5341460000000  0.5147460000000 1.0
C      1  0.5242140000000  0.5155640000000  0.5213640000000 1.0
C      1  0.5228490000000  0.5384190000000  0.5803470000000 1.0
C      1  0.4689220000000  0.5212280000000  0.4356100000000 1.0
C      1  0.4419050000000  0.5044640000000  0.5010650000000 1.0
C      1  0.5735940000000  0.5165200000000  0.4667830000000 1.0
C      1  0.5627210000000  0.5346890000000  0.4163400000000 1.0
C      1  0.4573800000000  0.4257390000000  0.5603870000000 1.0
C      1  0.4573660000000  0.6048880000000  0.5193300000000 1.0
C      1  0.5438760000000  0.5029680000000  0.6189180000000 1.0
C      1  0.5706770000000  0.4031920000000  0.5196220000000 1.0
C      1  0.5281660000000  0.4656210000000  0.5917590000000 1.0
C      1  0.4841660000000  0.3947530000000  0.4765680000000 1.0
END
