TITL C-2778435-5768-476 -0.000986457603069984 125000 -402.996511793659 0 0 70 (C1) n - 1
REM
REM in /home/nfs/bkarasulu/CARBON/AIRSS/Generating-Clusters/REBO/Only-C1/SD-CG/HFTN-CG
REM
REM
REM
REM
REM
REM ./C.cell (11c1c37f851c82e70ff6c80c92926a4b)
REM
REM compiler GCC version 9.2.1 20190827 (Red Hat 9.2.1-1)
REM options -cpp -mtune=generic -march=x86-64 -g -O0 -fpre-include=/usr/include/finclude/math-vector-fortran.h
REM seed -1713845678 -1620440361 2034811866 2007066205 -527321366 -576539974 -1214279705 -1592410021 -893468184 -90766940 440613138 828036977 -1603317183 -1849409401 1621917845 -1719174842 1132457043 410118774 -2068787207 1665709114 -1951381905 -2083692039 -1768229406 572435409 876390748 1777134640 528223521 1498052459 -575663102 -1644273825 -1056106992 937600255 -1844815737
REM
CELL 1.54180   50.00000   50.00000   50.00000   90.00000   90.00000   90.00000
LATT -1
SFAC C  
C      1  0.5234650000000  0.4680110000000  0.5356390000000 1.0
C      1  0.5402090000000  0.5364240000000  0.5128440000000 1.0
C      1  0.5138730000000  0.5221970000000  0.4488990000000 1.0
C      1  0.4385950000000  0.4708080000000  0.5388140000000 1.0
C      1  0.5116610000000  0.5242780000000  0.5175390000000 1.0
C      1  0.4938550000000  0.5419220000000  0.5369210000000 1.0
C      1  0.5039090000000  0.5788410000000  0.5254850000000 1.0
C      1  0.4706530000000  0.4600400000000  0.5345360000000 1.0
C      1  0.5228490000000  0.5679420000000  0.5444830000000 1.0
C      1  0.5399550000000  0.4555600000000  0.4398300000000 1.0
C      1  0.4218340000000  0.4979870000000  0.5258480000000 1.0
C      1  0.5032750000000  0.4804860000000  0.4383850000000 1.0
C      1  0.5111030000000  0.5454580000000  0.5655540000000 1.0
C      1  0.5068230000000  0.4492090000000  0.4333240000000 1.0
C      1  0.4936080000000  0.4870660000000  0.4892090000000 1.0
C      1  0.4922400000000  0.4395260000000  0.4916690000000 1.0
C      1  0.4950490000000  0.5192510000000  0.4936200000000 1.0
C      1  0.4836080000000  0.4642850000000  0.5660100000000 1.0
C      1  0.4378770000000  0.5164510000000  0.4598380000000 1.0
C      1  0.4489000000000  0.4840540000000  0.5098660000000 1.0
C      1  0.5066700000000  0.4961830000000  0.4631060000000 1.0
C      1  0.4908600000000  0.5488490000000  0.4123780000000 1.0
C      1  0.5653910000000  0.5064690000000  0.5455120000000 1.0
C      1  0.4671560000000  0.5523890000000  0.5320020000000 1.0
C      1  0.4850610000000  0.4650520000000  0.5040040000000 1.0
C      1  0.4666530000000  0.4799000000000  0.4224470000000 1.0
C      1  0.5027030000000  0.4484910000000  0.5356030000000 1.0
C      1  0.4500280000000  0.5481360000000  0.5546330000000 1.0
C      1  0.4865530000000  0.4681240000000  0.5930180000000 1.0
C      1  0.4924710000000  0.5691620000000  0.5022930000000 1.0
C      1  0.5009280000000  0.5240950000000  0.5900040000000 1.0
C      1  0.5498630000000  0.4610030000000  0.5186030000000 1.0
C      1  0.5489520000000  0.4776920000000  0.4205090000000 1.0
C      1  0.4458210000000  0.4897140000000  0.4800750000000 1.0
C      1  0.4084170000000  0.5236320000000  0.4550490000000 1.0
C      1  0.5530590000000  0.4946690000000  0.5748840000000 1.0
C      1  0.4458580000000  0.4896260000000  0.4404770000000 1.0
C      1  0.5545360000000  0.4623740000000  0.4681300000000 1.0
C      1  0.5438860000000  0.5251270000000  0.4422410000000 1.0
C      1  0.4355390000000  0.5215120000000  0.5098610000000 1.0
C      1  0.5429330000000  0.4507700000000  0.4913720000000 1.0
C      1  0.5136060000000  0.4972370000000  0.5353290000000 1.0
C      1  0.5526830000000  0.4698850000000  0.5515720000000 1.0
C      1  0.5364450000000  0.5166700000000  0.5473780000000 1.0
C      1  0.4634280000000  0.5154350000000  0.4902930000000 1.0
C      1  0.5223360000000  0.4307990000000  0.4552150000000 1.0
C      1  0.4759210000000  0.5108930000000  0.5735530000000 1.0
C      1  0.4844330000000  0.5489350000000  0.4857010000000 1.0
C      1  0.5197610000000  0.4355660000000  0.4834510000000 1.0
C      1  0.5496070000000  0.5024220000000  0.4212130000000 1.0
C      1  0.4897530000000  0.4985340000000  0.4175550000000 1.0
C      1  0.4968640000000  0.5258540000000  0.4251340000000 1.0
C      1  0.5689970000000  0.4864000000000  0.4707250000000 1.0
C      1  0.5508140000000  0.5508890000000  0.4331420000000 1.0
C      1  0.4421390000000  0.4655060000000  0.4601130000000 1.0
C      1  0.4587680000000  0.4984260000000  0.5397170000000 1.0
C      1  0.4491820000000  0.5219410000000  0.5621290000000 1.0
C      1  0.4531810000000  0.5432040000000  0.4742610000000 1.0
C      1  0.4514660000000  0.5487540000000  0.5080820000000 1.0
C      1  0.5704940000000  0.4857770000000  0.5235680000000 1.0
C      1  0.4866540000000  0.4949350000000  0.6003110000000 1.0
C      1  0.4878190000000  0.4925880000000  0.5496810000000 1.0
C      1  0.5751440000000  0.4994230000000  0.4984420000000 1.0
C      1  0.4597720000000  0.4440050000000  0.4532220000000 1.0
C      1  0.5457760000000  0.5575620000000  0.5310170000000 1.0
C      1  0.5595440000000  0.5267330000000  0.4950010000000 1.0
C      1  0.5596130000000  0.5159650000000  0.4661160000000 1.0
C      1  0.4755000000000  0.4528660000000  0.4306120000000 1.0
C      1  0.4722180000000  0.4291430000000  0.4740350000000 1.0
C      1  0.5314030000000  0.5208900000000  0.5789160000000 1.0
END
