TITL C-2778426-5645-1064 -0.00202617079096025 125000 -1099.91102203532 0 0 185 (C1) n - 1
REM
REM in /home/nfs/bkarasulu/CARBON/AIRSS/Generating-Clusters/REBO/Only-C1/SD-CG/HFTN-CG
REM
REM
REM
REM
REM
REM ./C.cell (11c1c37f851c82e70ff6c80c92926a4b)
REM
REM compiler GCC version 9.2.1 20190827 (Red Hat 9.2.1-1)
REM options -cpp -mtune=generic -march=x86-64 -g -O0 -fpre-include=/usr/include/finclude/math-vector-fortran.h
REM seed -1117395196 -450763583 638956602 736046516 -925141694 -1003284313 -1346809168 -82885250 -929125451 -1858375928 1777878192 -280431890 1225678928 -1985132361 -1516493151 1114946554 402440132 462820823 1575799675 -2007118187 -1059663686 205889856 1435443246 -66531055 -445136909 -605038700 -902201145 -870069629 977430594 511856073 -1575700159 1690804118 -14748224
REM
CELL 1.54180   50.00000   50.00000   50.00000   90.00000   90.00000   90.00000
LATT -1
SFAC C  
C      1  0.4827340000000  0.5829890000000  0.4291720000000 1.0
C      1  0.4004170000000  0.4348980000000  0.5097990000000 1.0
C      1  0.5368720000000  0.5416350000000  0.4409370000000 1.0
C      1  0.5311380000000  0.4593910000000  0.5671140000000 1.0
C      1  0.5435060000000  0.4418360000000  0.5884690000000 1.0
C      1  0.5907030000000  0.5449230000000  0.5223570000000 1.0
C      1  0.5453250000000  0.4898940000000  0.4998330000000 1.0
C      1  0.5865530000000  0.5568440000000  0.4738190000000 1.0
C      1  0.4076750000000  0.4710540000000  0.4551650000000 1.0
C      1  0.4665670000000  0.5457880000000  0.4642760000000 1.0
C      1  0.5241700000000  0.5300760000000  0.4662990000000 1.0
C      1  0.4617590000000  0.5949690000000  0.4717380000000 1.0
C      1  0.3842780000000  0.5226970000000  0.5064640000000 1.0
C      1  0.4999730000000  0.5653340000000  0.5229060000000 1.0
C      1  0.3918450000000  0.5074060000000  0.4836800000000 1.0
C      1  0.5027880000000  0.4526110000000  0.5573050000000 1.0
C      1  0.5430680000000  0.4847340000000  0.5584870000000 1.0
C      1  0.5278270000000  0.5427820000000  0.6038300000000 1.0
C      1  0.4519890000000  0.5618950000000  0.5409770000000 1.0
C      1  0.4313180000000  0.4759860000000  0.4766080000000 1.0
C      1  0.5135270000000  0.5616480000000  0.5823540000000 1.0
C      1  0.5353960000000  0.5160200000000  0.4217210000000 1.0
C      1  0.5787390000000  0.5148620000000  0.4428300000000 1.0
C      1  0.4351020000000  0.5810080000000  0.5188850000000 1.0
C      1  0.5362560000000  0.5438470000000  0.5147160000000 1.0
C      1  0.5742830000000  0.4829900000000  0.4731280000000 1.0
C      1  0.4923970000000  0.5144510000000  0.5312190000000 1.0
C      1  0.5203370000000  0.5132500000000  0.5993890000000 1.0
C      1  0.5200480000000  0.5037670000000  0.4855340000000 1.0
C      1  0.5639510000000  0.4233290000000  0.4342240000000 1.0
C      1  0.5725700000000  0.4746440000000  0.4201480000000 1.0
C      1  0.4776390000000  0.4229300000000  0.4447200000000 1.0
C      1  0.5018210000000  0.6002790000000  0.4409780000000 1.0
C      1  0.5535590000000  0.5366640000000  0.5604580000000 1.0
C      1  0.5226820000000  0.3967170000000  0.5212400000000 1.0
C      1  0.4444020000000  0.5179970000000  0.5924120000000 1.0
C      1  0.4711580000000  0.4975500000000  0.5708550000000 1.0
C      1  0.4336440000000  0.3970450000000  0.5070240000000 1.0
C      1  0.5300710000000  0.4605320000000  0.4774280000000 1.0
C      1  0.4789730000000  0.5290790000000  0.4301410000000 1.0
C      1  0.5124590000000  0.4062110000000  0.4357220000000 1.0
C      1  0.5940150000000  0.5205170000000  0.5458730000000 1.0
C      1  0.5292080000000  0.5935600000000  0.4357490000000 1.0
C      1  0.4741210000000  0.4798230000000  0.4589420000000 1.0
C      1  0.5355130000000  0.5811360000000  0.5651400000000 1.0
C      1  0.4665710000000  0.5486960000000  0.4963520000000 1.0
C      1  0.4305150000000  0.5385400000000  0.5323200000000 1.0
C      1  0.4645200000000  0.3906180000000  0.5160610000000 1.0
C      1  0.6054610000000  0.4386550000000  0.5148650000000 1.0
C      1  0.4624860000000  0.5443820000000  0.3977000000000 1.0
C      1  0.5200570000000  0.4718520000000  0.5256320000000 1.0
C      1  0.4790440000000  0.4810430000000  0.5987880000000 1.0
C      1  0.5745240000000  0.5676750000000  0.5298160000000 1.0
C      1  0.4140770000000  0.4115830000000  0.5504650000000 1.0
C      1  0.4647090000000  0.4715020000000  0.5078310000000 1.0
C      1  0.4961270000000  0.3936780000000  0.5295270000000 1.0
C      1  0.5480940000000  0.5989480000000  0.4565240000000 1.0
C      1  0.5296860000000  0.5306890000000  0.5427800000000 1.0
C      1  0.5914510000000  0.4771520000000  0.4444210000000 1.0
C      1  0.4953090000000  0.4573050000000  0.5963140000000 1.0
C      1  0.4076130000000  0.4790090000000  0.5274950000000 1.0
C      1  0.5965920000000  0.5407910000000  0.4942410000000 1.0
C      1  0.4326840000000  0.5085810000000  0.4523840000000 1.0
C      1  0.5552140000000  0.5316420000000  0.5932690000000 1.0
C      1  0.4885250000000  0.5298780000000  0.5042950000000 1.0
C      1  0.4658960000000  0.5745470000000  0.4494820000000 1.0
C      1  0.4487470000000  0.5454290000000  0.4286570000000 1.0
C      1  0.4070270000000  0.5481510000000  0.5553530000000 1.0
C      1  0.6038460000000  0.5054070000000  0.4588830000000 1.0
C      1  0.5703110000000  0.4056700000000  0.4781950000000 1.0
C      1  0.4179540000000  0.4177020000000  0.4935370000000 1.0
C      1  0.5382270000000  0.4106930000000  0.5432290000000 1.0
C      1  0.4411070000000  0.5204020000000  0.4074850000000 1.0
C      1  0.4247060000000  0.5036400000000  0.5716620000000 1.0
C      1  0.4352410000000  0.5565670000000  0.5674140000000 1.0
C      1  0.4711950000000  0.5202160000000  0.5538070000000 1.0
C      1  0.5233280000000  0.4599230000000  0.6058650000000 1.0
C      1  0.5898060000000  0.4527030000000  0.4659080000000 1.0
C      1  0.4996730000000  0.5103070000000  0.4586260000000 1.0
C      1  0.4959410000000  0.4016220000000  0.4648780000000 1.0
C      1  0.5145660000000  0.5425380000000  0.4936850000000 1.0
C      1  0.5675750000000  0.5429020000000  0.4518710000000 1.0
C      1  0.4648250000000  0.5125300000000  0.4571220000000 1.0
C      1  0.5456540000000  0.4510460000000  0.5314870000000 1.0
C      1  0.4505200000000  0.4909580000000  0.6043570000000 1.0
C      1  0.4945380000000  0.4587430000000  0.4081050000000 1.0
C      1  0.6066850000000  0.5145650000000  0.4857990000000 1.0
C      1  0.5968040000000  0.4426000000000  0.5408010000000 1.0
C      1  0.4546390000000  0.4590660000000  0.4677480000000 1.0
C      1  0.4408170000000  0.4921430000000  0.5454510000000 1.0
C      1  0.5734020000000  0.5322230000000  0.4142060000000 1.0
C      1  0.5470350000000  0.5997060000000  0.5388490000000 1.0
C      1  0.6086360000000  0.4923190000000  0.5386210000000 1.0
C      1  0.4544310000000  0.5448760000000  0.5863120000000 1.0
C      1  0.4384600000000  0.5707840000000  0.4777830000000 1.0
C      1  0.4356350000000  0.5062440000000  0.4921630000000 1.0
C      1  0.4657700000000  0.5783700000000  0.5073730000000 1.0
C      1  0.4476500000000  0.4391160000000  0.4422060000000 1.0
C      1  0.4796720000000  0.5627360000000  0.5862920000000 1.0
C      1  0.4903750000000  0.4823730000000  0.5253190000000 1.0
C      1  0.5093530000000  0.6056080000000  0.4909130000000 1.0
C      1  0.5758220000000  0.5815200000000  0.4532290000000 1.0
C      1  0.4684000000000  0.4923650000000  0.3892780000000 1.0
C      1  0.4329720000000  0.4710600000000  0.5930670000000 1.0
C      1  0.4612740000000  0.3966690000000  0.5478100000000 1.0
C      1  0.4332370000000  0.4768380000000  0.5091870000000 1.0
C      1  0.5649380000000  0.4271090000000  0.5767430000000 1.0
C      1  0.5436520000000  0.4037640000000  0.4378110000000 1.0
C      1  0.4087260000000  0.5200980000000  0.4642400000000 1.0
C      1  0.4054320000000  0.5458420000000  0.4530320000000 1.0
C      1  0.3922410000000  0.4544710000000  0.5550140000000 1.0
C      1  0.5290170000000  0.4550130000000  0.4278990000000 1.0
C      1  0.5388040000000  0.5732920000000  0.4166520000000 1.0
C      1  0.4560300000000  0.4701870000000  0.4001640000000 1.0
C      1  0.4314550000000  0.4267540000000  0.4699450000000 1.0
C      1  0.5158510000000  0.4336370000000  0.5349480000000 1.0
C      1  0.4297140000000  0.5584800000000  0.4491940000000 1.0
C      1  0.5026610000000  0.4340850000000  0.4256160000000 1.0
C      1  0.3917190000000  0.4787700000000  0.4802930000000 1.0
C      1  0.5581190000000  0.5111460000000  0.4765920000000 1.0
C      1  0.4595640000000  0.6001170000000  0.5321980000000 1.0
C      1  0.5088360000000  0.4564320000000  0.5011130000000 1.0
C      1  0.5307710000000  0.5735030000000  0.5255860000000 1.0
C      1  0.6046330000000  0.4675160000000  0.5514050000000 1.0
C      1  0.4802730000000  0.5509610000000  0.5421050000000 1.0
C      1  0.4177480000000  0.4743490000000  0.4280130000000 1.0
C      1  0.5601070000000  0.5267630000000  0.5041180000000 1.0
C      1  0.4834200000000  0.4349110000000  0.5735130000000 1.0
C      1  0.5231960000000  0.5011680000000  0.5379930000000 1.0
C      1  0.4880070000000  0.4057210000000  0.5588560000000 1.0
C      1  0.5586560000000  0.4603390000000  0.4895660000000 1.0
C      1  0.4622240000000  0.4204250000000  0.4737840000000 1.0
C      1  0.4366840000000  0.5377130000000  0.4893500000000 1.0
C      1  0.5675820000000  0.4274340000000  0.5427680000000 1.0
C      1  0.5793460000000  0.5195530000000  0.5723430000000 1.0
C      1  0.5083740000000  0.5111860000000  0.5736150000000 1.0
C      1  0.4940400000000  0.5777950000000  0.4935570000000 1.0
C      1  0.5539530000000  0.4992220000000  0.5829340000000 1.0
C      1  0.5685020000000  0.4144190000000  0.5110390000000 1.0
C      1  0.4041140000000  0.4824850000000  0.5572410000000 1.0
C      1  0.5566880000000  0.4491290000000  0.4210790000000 1.0
C      1  0.5339540000000  0.4872530000000  0.6077570000000 1.0
C      1  0.5265000000000  0.5551480000000  0.3980350000000 1.0
C      1  0.4531550000000  0.4392240000000  0.5643570000000 1.0
C      1  0.3961020000000  0.4629890000000  0.5039090000000 1.0
C      1  0.4666180000000  0.6042340000000  0.5573380000000 1.0
C      1  0.5592730000000  0.5649040000000  0.5537120000000 1.0
C      1  0.5022430000000  0.5363690000000  0.3914250000000 1.0
C      1  0.5816870000000  0.4398120000000  0.4948390000000 1.0
C      1  0.5629420000000  0.5001710000000  0.4094580000000 1.0
C      1  0.4889500000000  0.5611550000000  0.4091930000000 1.0
C      1  0.4995280000000  0.4823060000000  0.4121440000000 1.0
C      1  0.4276850000000  0.5016500000000  0.4239520000000 1.0
C      1  0.6044750000000  0.4967210000000  0.5081140000000 1.0
C      1  0.4714020000000  0.4443590000000  0.4938590000000 1.0
C      1  0.4901290000000  0.6078540000000  0.4675960000000 1.0
C      1  0.4841010000000  0.4974910000000  0.4960550000000 1.0
C      1  0.4412820000000  0.4148360000000  0.5558750000000 1.0
C      1  0.5664940000000  0.5636320000000  0.4255460000000 1.0
C      1  0.5289660000000  0.3973280000000  0.4674430000000 1.0
C      1  0.4388110000000  0.4566930000000  0.4190460000000 1.0
C      1  0.5488690000000  0.4988790000000  0.4467790000000 1.0
C      1  0.5645640000000  0.5891680000000  0.5111430000000 1.0
C      1  0.4991020000000  0.4831260000000  0.5642930000000 1.0
C      1  0.4170330000000  0.5618560000000  0.5028460000000 1.0
C      1  0.5792970000000  0.4242330000000  0.4580800000000 1.0
C      1  0.5306690000000  0.4739610000000  0.4494740000000 1.0
C      1  0.4989170000000  0.4739540000000  0.4750950000000 1.0
C      1  0.5640800000000  0.5912720000000  0.4841060000000 1.0
C      1  0.4413350000000  0.5121490000000  0.5249790000000 1.0
C      1  0.4971120000000  0.4290690000000  0.5100350000000 1.0
C      1  0.4403150000000  0.4650420000000  0.5654850000000 1.0
C      1  0.4725500000000  0.5899310000000  0.5795680000000 1.0
C      1  0.5055200000000  0.5085170000000  0.4252180000000 1.0
C      1  0.3977560000000  0.4311720000000  0.5386960000000 1.0
C      1  0.5277080000000  0.6046120000000  0.5117090000000 1.0
C      1  0.5579810000000  0.4827930000000  0.5296110000000 1.0
C      1  0.5756360000000  0.5069770000000  0.5218240000000 1.0
C      1  0.5419530000000  0.3987640000000  0.4961220000000 1.0
C      1  0.4822880000000  0.4059190000000  0.4942820000000 1.0
C      1  0.3985960000000  0.5448740000000  0.5224380000000 1.0
C      1  0.5041330000000  0.5506190000000  0.4385010000000 1.0
C      1  0.4967480000000  0.5587260000000  0.4692890000000 1.0
C      1  0.4862530000000  0.5133370000000  0.3874050000000 1.0
C      1  0.5048170000000  0.5404470000000  0.5598870000000 1.0
END
