TITL C-2778424-3986-270 -0.00214453900617094 125000 -675.290079788392 0 0 119 (C1) n - 1
REM
REM in /home/nfs/bkarasulu/CARBON/AIRSS/Generating-Clusters/REBO/Only-C1/SD-CG/HFTN-CG
REM
REM
REM
REM
REM
REM ./C.cell (11c1c37f851c82e70ff6c80c92926a4b)
REM
REM compiler GCC version 9.2.1 20190827 (Red Hat 9.2.1-1)
REM options -cpp -mtune=generic -march=x86-64 -g -O0 -fpre-include=/usr/include/finclude/math-vector-fortran.h
REM seed 1697171632 1823223551 -1986405652 303920452 -935418237 -17455485 1129231782 1497080583 1587157086 -317383151 -1735276700 1225741194 -1355647468 -1733724709 2049633112 -1558668985 -1923605070 -1744476508 -1447846634 -191753682 -749136777 -1569745006 789831806 -652611723 -1565827882 -1819952212 289088346 1432455620 1373919074 926261231 -1956509133 -596615223 -1618972074
REM
CELL 1.54180   50.00000   50.00000   50.00000   90.00000   90.00000   90.00000
LATT -1
SFAC C  
C      1  0.4386390000000  0.5270350000000  0.4412760000000 1.0
C      1  0.4039270000000  0.4936230000000  0.5293000000000 1.0
C      1  0.5279480000000  0.5047120000000  0.5003770000000 1.0
C      1  0.5563370000000  0.4560720000000  0.5526620000000 1.0
C      1  0.5376470000000  0.5032200000000  0.4675810000000 1.0
C      1  0.5582420000000  0.5254220000000  0.5149770000000 1.0
C      1  0.5346830000000  0.5839630000000  0.4582400000000 1.0
C      1  0.4364010000000  0.4634630000000  0.4765060000000 1.0
C      1  0.4895320000000  0.4474270000000  0.5015750000000 1.0
C      1  0.4923710000000  0.3953440000000  0.5128160000000 1.0
C      1  0.5291330000000  0.4712890000000  0.4787250000000 1.0
C      1  0.4889180000000  0.5815730000000  0.4466200000000 1.0
C      1  0.5219230000000  0.4801170000000  0.5473670000000 1.0
C      1  0.5856290000000  0.5331900000000  0.4749730000000 1.0
C      1  0.4592980000000  0.4148150000000  0.5386710000000 1.0
C      1  0.4122070000000  0.4760270000000  0.4813020000000 1.0
C      1  0.4930400000000  0.4669720000000  0.4312360000000 1.0
C      1  0.5949460000000  0.5010410000000  0.4706880000000 1.0
C      1  0.4909810000000  0.5793030000000  0.5199650000000 1.0
C      1  0.5169720000000  0.5878530000000  0.5226710000000 1.0
C      1  0.4686440000000  0.5180130000000  0.5027160000000 1.0
C      1  0.5155960000000  0.4604440000000  0.5743430000000 1.0
C      1  0.5615090000000  0.5636850000000  0.5041340000000 1.0
C      1  0.4831990000000  0.4875030000000  0.5418270000000 1.0
C      1  0.5144430000000  0.5185870000000  0.5857070000000 1.0
C      1  0.4571220000000  0.5112810000000  0.5774910000000 1.0
C      1  0.5679260000000  0.4488140000000  0.4810040000000 1.0
C      1  0.4681940000000  0.4522590000000  0.4342420000000 1.0
C      1  0.5709550000000  0.4726550000000  0.5689770000000 1.0
C      1  0.4955820000000  0.5214940000000  0.4836110000000 1.0
C      1  0.4639800000000  0.4165880000000  0.4700380000000 1.0
C      1  0.5480470000000  0.5251490000000  0.5798380000000 1.0
C      1  0.4434920000000  0.4809820000000  0.5747570000000 1.0
C      1  0.4625440000000  0.4909690000000  0.5074690000000 1.0
C      1  0.4129790000000  0.5067860000000  0.4810650000000 1.0
C      1  0.4160480000000  0.5326400000000  0.4608380000000 1.0
C      1  0.5276950000000  0.4909880000000  0.5784070000000 1.0
C      1  0.4864330000000  0.4176760000000  0.4900150000000 1.0
C      1  0.4357330000000  0.5175470000000  0.5326460000000 1.0
C      1  0.4706970000000  0.5483700000000  0.5836410000000 1.0
C      1  0.5051550000000  0.5505500000000  0.5635270000000 1.0
C      1  0.5128080000000  0.4422390000000  0.4556300000000 1.0
C      1  0.5502660000000  0.4634090000000  0.5233950000000 1.0
C      1  0.5084320000000  0.4994840000000  0.5274440000000 1.0
C      1  0.4129320000000  0.5181910000000  0.5107360000000 1.0
C      1  0.4772770000000  0.5642930000000  0.4715660000000 1.0
C      1  0.5342970000000  0.4354380000000  0.5658100000000 1.0
C      1  0.4399810000000  0.4443140000000  0.4505930000000 1.0
C      1  0.4995680000000  0.4186860000000  0.4407510000000 1.0
C      1  0.4855050000000  0.5454370000000  0.5139510000000 1.0
C      1  0.4599000000000  0.5228300000000  0.4233530000000 1.0
C      1  0.5560790000000  0.4692680000000  0.4575650000000 1.0
C      1  0.5904170000000  0.4755130000000  0.5199050000000 1.0
C      1  0.4845470000000  0.5502670000000  0.5462120000000 1.0
C      1  0.4905180000000  0.4606000000000  0.4718150000000 1.0
C      1  0.5315640000000  0.5458610000000  0.5623210000000 1.0
C      1  0.4408310000000  0.4322510000000  0.4831460000000 1.0
C      1  0.4722070000000  0.5130540000000  0.4598900000000 1.0
C      1  0.5423650000000  0.4329730000000  0.4668800000000 1.0
C      1  0.5373680000000  0.4061920000000  0.4786820000000 1.0
C      1  0.4868470000000  0.5239860000000  0.5871120000000 1.0
C      1  0.5601300000000  0.5150190000000  0.4367430000000 1.0
C      1  0.5225890000000  0.4558390000000  0.5040200000000 1.0
C      1  0.4622670000000  0.4945310000000  0.4144170000000 1.0
C      1  0.4364720000000  0.5788070000000  0.4585820000000 1.0
C      1  0.5416860000000  0.5425570000000  0.4905860000000 1.0
C      1  0.5158840000000  0.4886470000000  0.4455620000000 1.0
C      1  0.5639870000000  0.5010130000000  0.4840380000000 1.0
C      1  0.4152400000000  0.4737530000000  0.5385860000000 1.0
C      1  0.5718740000000  0.5391110000000  0.5597510000000 1.0
C      1  0.4634950000000  0.4634010000000  0.5167360000000 1.0
C      1  0.4899290000000  0.5292810000000  0.4355570000000 1.0
C      1  0.4122160000000  0.5448800000000  0.4925590000000 1.0
C      1  0.5142180000000  0.4515150000000  0.5354520000000 1.0
C      1  0.5192080000000  0.5294390000000  0.5208580000000 1.0
C      1  0.5875050000000  0.5481120000000  0.5006690000000 1.0
C      1  0.5629740000000  0.5366800000000  0.4558850000000 1.0
C      1  0.4855050000000  0.4057140000000  0.5378340000000 1.0
C      1  0.4581310000000  0.5740040000000  0.5278280000000 1.0
C      1  0.4721610000000  0.4219140000000  0.4433130000000 1.0
C      1  0.5563800000000  0.4921010000000  0.5150930000000 1.0
C      1  0.5098870000000  0.5154070000000  0.4166560000000 1.0
C      1  0.4555670000000  0.5601280000000  0.5559990000000 1.0
C      1  0.4394350000000  0.5333810000000  0.5596200000000 1.0
C      1  0.5136470000000  0.5796010000000  0.4783570000000 1.0
C      1  0.5619940000000  0.5952900000000  0.5433930000000 1.0
C      1  0.5562160000000  0.4346360000000  0.5073200000000 1.0
C      1  0.4621930000000  0.4567110000000  0.5695190000000 1.0
C      1  0.4382180000000  0.5602620000000  0.4790710000000 1.0
C      1  0.5143990000000  0.3988840000000  0.4902300000000 1.0
C      1  0.4353310000000  0.4980840000000  0.4567660000000 1.0
C      1  0.4331460000000  0.5694820000000  0.5101100000000 1.0
C      1  0.5836870000000  0.4749630000000  0.4897980000000 1.0
C      1  0.4600310000000  0.5382060000000  0.4767320000000 1.0
C      1  0.5802750000000  0.5402220000000  0.5332270000000 1.0
C      1  0.4634610000000  0.4810260000000  0.4672950000000 1.0
C      1  0.5024590000000  0.5526840000000  0.4510050000000 1.0
C      1  0.5410970000000  0.5477390000000  0.5343130000000 1.0
C      1  0.4872380000000  0.4660110000000  0.5610390000000 1.0
C      1  0.4676760000000  0.5837850000000  0.4963560000000 1.0
C      1  0.4472520000000  0.4349520000000  0.5134650000000 1.0
C      1  0.5377510000000  0.4266920000000  0.5325800000000 1.0
C      1  0.4293070000000  0.4244360000000  0.5402600000000 1.0
C      1  0.5011700000000  0.4908240000000  0.4749550000000 1.0
C      1  0.5465660000000  0.5786260000000  0.5273030000000 1.0
C      1  0.4430780000000  0.4619030000000  0.5439200000000 1.0
C      1  0.5081130000000  0.4209580000000  0.5491410000000 1.0
C      1  0.4937180000000  0.4897610000000  0.4067100000000 1.0
C      1  0.5365990000000  0.5153450000000  0.4208870000000 1.0
C      1  0.4430940000000  0.4741720000000  0.4338170000000 1.0
C      1  0.5735900000000  0.4915260000000  0.4466170000000 1.0
C      1  0.5228100000000  0.4738120000000  0.4155960000000 1.0
C      1  0.5098720000000  0.5501070000000  0.4901410000000 1.0
C      1  0.5360580000000  0.4551110000000  0.4382140000000 1.0
C      1  0.4597220000000  0.5026010000000  0.5455360000000 1.0
C      1  0.5467920000000  0.6035910000000  0.4440710000000 1.0
C      1  0.5349440000000  0.5517910000000  0.4592030000000 1.0
C      1  0.5587840000000  0.4934350000000  0.5813960000000 1.0
C      1  0.4945180000000  0.5978110000000  0.4847320000000 1.0
END
