TITL C-2778423-5760-1041 -0.00079099777431864 125000 -576.470538782071 0 0 100 (C1) n - 1
REM
REM in /home/nfs/bkarasulu/CARBON/AIRSS/Generating-Clusters/REBO/Only-C1/SD-CG/HFTN-CG
REM
REM
REM
REM
REM
REM ./C.cell (11c1c37f851c82e70ff6c80c92926a4b)
REM
REM compiler GCC version 9.2.1 20190827 (Red Hat 9.2.1-1)
REM options -cpp -mtune=generic -march=x86-64 -g -O0 -fpre-include=/usr/include/finclude/math-vector-fortran.h
REM seed -1885994260 1141847461 119785970 -1891424230 -153490126 -1440362412 -1089415579 -641921984 -1125962374 -194145933 -1795323110 -1616048175 1873974222 717634371 -1581973458 -1823454053 2056794676 -1932788532 1619287411 1930740731 1616054114 -1501792658 -303461169 2021997726 1391558294 115545870 2118015750 2107438584 -93381972 -823245032 -1926530923 -864383993 574824485
REM
CELL 1.54180   50.00000   50.00000   50.00000   90.00000   90.00000   90.00000
LATT -1
SFAC C  
C      1  0.4754360000000  0.4454100000000  0.5328030000000 1.0
C      1  0.4113680000000  0.5060830000000  0.5236450000000 1.0
C      1  0.5769090000000  0.4417600000000  0.4983600000000 1.0
C      1  0.5307320000000  0.4394910000000  0.5213440000000 1.0
C      1  0.5381460000000  0.5267050000000  0.5256850000000 1.0
C      1  0.5542420000000  0.4308940000000  0.4888450000000 1.0
C      1  0.5784130000000  0.5182500000000  0.4623900000000 1.0
C      1  0.5240510000000  0.5028820000000  0.4111460000000 1.0
C      1  0.5892260000000  0.5362030000000  0.4848410000000 1.0
C      1  0.4221900000000  0.5211600000000  0.4969920000000 1.0
C      1  0.4983340000000  0.5078910000000  0.4313130000000 1.0
C      1  0.5499270000000  0.4822270000000  0.5000540000000 1.0
C      1  0.4579760000000  0.5531630000000  0.5161150000000 1.0
C      1  0.5240560000000  0.5659040000000  0.4618070000000 1.0
C      1  0.5182160000000  0.4836610000000  0.4454340000000 1.0
C      1  0.5033330000000  0.5168610000000  0.4952210000000 1.0
C      1  0.4127190000000  0.4825760000000  0.4990780000000 1.0
C      1  0.5107580000000  0.5467060000000  0.5993870000000 1.0
C      1  0.5168590000000  0.4943850000000  0.5722080000000 1.0
C      1  0.5188380000000  0.5804880000000  0.5072560000000 1.0
C      1  0.5007690000000  0.4567660000000  0.5225030000000 1.0
C      1  0.4899260000000  0.5673860000000  0.5077080000000 1.0
C      1  0.5507730000000  0.4812670000000  0.4350930000000 1.0
C      1  0.5188770000000  0.5112710000000  0.4654160000000 1.0
C      1  0.4827640000000  0.4519800000000  0.4853300000000 1.0
C      1  0.5254750000000  0.4414160000000  0.4737590000000 1.0
C      1  0.5376880000000  0.5663280000000  0.4883570000000 1.0
C      1  0.4966560000000  0.5021430000000  0.5481290000000 1.0
C      1  0.5119100000000  0.4291980000000  0.5548440000000 1.0
C      1  0.5819100000000  0.5352820000000  0.5181450000000 1.0
C      1  0.4660660000000  0.4575770000000  0.5589990000000 1.0
C      1  0.4790420000000  0.4319930000000  0.4116700000000 1.0
C      1  0.5525640000000  0.5281170000000  0.5749700000000 1.0
C      1  0.4803540000000  0.5283690000000  0.5493980000000 1.0
C      1  0.5016230000000  0.5610480000000  0.5452690000000 1.0
C      1  0.4520470000000  0.4427390000000  0.5097210000000 1.0
C      1  0.5523950000000  0.4651730000000  0.5275390000000 1.0
C      1  0.4721410000000  0.4157480000000  0.5174370000000 1.0
C      1  0.5051430000000  0.4171710000000  0.5250860000000 1.0
C      1  0.4887550000000  0.4660110000000  0.5739730000000 1.0
C      1  0.4406320000000  0.4705720000000  0.5036670000000 1.0
C      1  0.5122400000000  0.4562380000000  0.5608150000000 1.0
C      1  0.4720900000000  0.5170670000000  0.5868400000000 1.0
C      1  0.5008110000000  0.5740140000000  0.4391160000000 1.0
C      1  0.5186170000000  0.5800380000000  0.5357550000000 1.0
C      1  0.5467570000000  0.4436290000000  0.4476540000000 1.0
C      1  0.4535570000000  0.4608790000000  0.4431460000000 1.0
C      1  0.5657200000000  0.5114470000000  0.4385130000000 1.0
C      1  0.5358040000000  0.4469330000000  0.4212030000000 1.0
C      1  0.4730960000000  0.5721960000000  0.4505800000000 1.0
C      1  0.5367000000000  0.5424580000000  0.5926200000000 1.0
C      1  0.4331130000000  0.5187520000000  0.4264920000000 1.0
C      1  0.4504570000000  0.5224550000000  0.5640670000000 1.0
C      1  0.4316070000000  0.5461720000000  0.4555300000000 1.0
C      1  0.4644360000000  0.4225740000000  0.4851320000000 1.0
C      1  0.4483110000000  0.5514190000000  0.5448850000000 1.0
C      1  0.5245550000000  0.4643690000000  0.4988990000000 1.0
C      1  0.5328550000000  0.4742710000000  0.4078210000000 1.0
C      1  0.4199560000000  0.4881510000000  0.5496440000000 1.0
C      1  0.4627260000000  0.5799530000000  0.4963460000000 1.0
C      1  0.4845100000000  0.5427170000000  0.5904810000000 1.0
C      1  0.5363270000000  0.5180290000000  0.4361320000000 1.0
C      1  0.4532990000000  0.5259440000000  0.5018190000000 1.0
C      1  0.5607590000000  0.4884950000000  0.5477550000000 1.0
C      1  0.4607550000000  0.4963340000000  0.5107530000000 1.0
C      1  0.4880950000000  0.4937870000000  0.5862370000000 1.0
C      1  0.4945450000000  0.5377600000000  0.5207270000000 1.0
C      1  0.4239200000000  0.5275340000000  0.5453340000000 1.0
C      1  0.5730140000000  0.4800640000000  0.4776600000000 1.0
C      1  0.5623530000000  0.5283560000000  0.5452430000000 1.0
C      1  0.4770500000000  0.4497470000000  0.4327340000000 1.0
C      1  0.4757670000000  0.5266230000000  0.4797350000000 1.0
C      1  0.5041880000000  0.4559800000000  0.4508860000000 1.0
C      1  0.5471230000000  0.5350490000000  0.4984630000000 1.0
C      1  0.4946910000000  0.5416900000000  0.4302160000000 1.0
C      1  0.4595100000000  0.4870310000000  0.4570670000000 1.0
C      1  0.4744210000000  0.5132680000000  0.4496130000000 1.0
C      1  0.4351340000000  0.5060660000000  0.4493850000000 1.0
C      1  0.4264210000000  0.4540920000000  0.4504760000000 1.0
C      1  0.4146040000000  0.5411050000000  0.4731020000000 1.0
C      1  0.5031200000000  0.4254880000000  0.4941690000000 1.0
C      1  0.4752850000000  0.5586260000000  0.5645600000000 1.0
C      1  0.4670470000000  0.4767110000000  0.4848200000000 1.0
C      1  0.4898280000000  0.4271610000000  0.4628100000000 1.0
C      1  0.5849230000000  0.5054220000000  0.5341630000000 1.0
C      1  0.5676730000000  0.4641520000000  0.4549520000000 1.0
C      1  0.5238910000000  0.4753940000000  0.5373060000000 1.0
C      1  0.5441490000000  0.5003480000000  0.5672120000000 1.0
C      1  0.6007590000000  0.4840250000000  0.5188870000000 1.0
C      1  0.5167710000000  0.5047770000000  0.5238980000000 1.0
C      1  0.4623870000000  0.5441610000000  0.4536610000000 1.0
C      1  0.4630140000000  0.5891190000000  0.4709550000000 1.0
C      1  0.4144760000000  0.5012620000000  0.4707750000000 1.0
C      1  0.5938560000000  0.4605540000000  0.5075750000000 1.0
C      1  0.4106410000000  0.4678920000000  0.4683330000000 1.0
C      1  0.5693830000000  0.5602750000000  0.4983860000000 1.0
C      1  0.5106770000000  0.5399030000000  0.4564720000000 1.0
C      1  0.4459380000000  0.4793140000000  0.5552840000000 1.0
C      1  0.4680710000000  0.4921550000000  0.5392420000000 1.0
C      1  0.5589770000000  0.5103210000000  0.4867280000000 1.0
END
