TITL C-2778437-8639-73 0.00244024025698873 125000 -926.613413333238 0 0 159 (C1) n - 1
REM
REM in /home/nfs/bkarasulu/CARBON/AIRSS/Generating-Clusters/REBO/Only-C1/SD-CG/HFTN-CG
REM
REM
REM
REM
REM
REM ./C.cell (11c1c37f851c82e70ff6c80c92926a4b)
REM
REM compiler GCC version 9.2.1 20190827 (Red Hat 9.2.1-1)
REM options -cpp -mtune=generic -march=x86-64 -g -O0 -fpre-include=/usr/include/finclude/math-vector-fortran.h
REM seed 1756672499 -204350800 -831743580 -698630937 1414842459 379552263 -241348538 1589888331 -638873640 1156291344 1446267247 701349288 -430359839 -2128932483 -1516382340 1447578600 1870417568 1760356704 -227481626 945431094 756711227 -562739177 1442443512 -1848495838 1687990059 -2092808333 1710908065 1419490530 1030204007 -300747208 -1318035199 1770669634 -2127005628
REM
CELL 1.54180   50.00000   50.00000   50.00000   90.00000   90.00000   90.00000
LATT -1
SFAC C  
C      1  0.5384460000000  0.4918290000000  0.3841010000000 1.0
C      1  0.5352160000000  0.5835670000000  0.4704990000000 1.0
C      1  0.5447700000000  0.5154670000000  0.5208640000000 1.0
C      1  0.5496360000000  0.4725960000000  0.4008660000000 1.0
C      1  0.4310310000000  0.4706340000000  0.4242060000000 1.0
C      1  0.4813360000000  0.5955350000000  0.4703970000000 1.0
C      1  0.5080980000000  0.5928080000000  0.4658570000000 1.0
C      1  0.4756690000000  0.5388330000000  0.6061760000000 1.0
C      1  0.3927100000000  0.5193530000000  0.4273870000000 1.0
C      1  0.6125360000000  0.5089920000000  0.4944890000000 1.0
C      1  0.4067640000000  0.5670710000000  0.5561450000000 1.0
C      1  0.5107330000000  0.4736810000000  0.5601150000000 1.0
C      1  0.4222920000000  0.4601180000000  0.4728070000000 1.0
C      1  0.5018080000000  0.4277490000000  0.5966030000000 1.0
C      1  0.4650360000000  0.4044000000000  0.5038950000000 1.0
C      1  0.6046670000000  0.5002350000000  0.4625700000000 1.0
C      1  0.5155730000000  0.6016660000000  0.5171320000000 1.0
C      1  0.4193800000000  0.5071310000000  0.5184970000000 1.0
C      1  0.5635570000000  0.5035230000000  0.5458860000000 1.0
C      1  0.4637450000000  0.5139060000000  0.5643660000000 1.0
C      1  0.4767650000000  0.4727080000000  0.5932720000000 1.0
C      1  0.5172880000000  0.5023240000000  0.5122640000000 1.0
C      1  0.4391810000000  0.4258640000000  0.5109260000000 1.0
C      1  0.5677050000000  0.4857620000000  0.4244210000000 1.0
C      1  0.5503710000000  0.5393970000000  0.5847580000000 1.0
C      1  0.5622560000000  0.5147690000000  0.4941000000000 1.0
C      1  0.4831580000000  0.5348310000000  0.5743000000000 1.0
C      1  0.4047960000000  0.5221070000000  0.5415610000000 1.0
C      1  0.5523190000000  0.5652920000000  0.4547120000000 1.0
C      1  0.4611610000000  0.3959060000000  0.4749580000000 1.0
C      1  0.4242830000000  0.4548020000000  0.5228820000000 1.0
C      1  0.4848570000000  0.4928740000000  0.5059840000000 1.0
C      1  0.4936280000000  0.4111840000000  0.4097360000000 1.0
C      1  0.5809050000000  0.4281800000000  0.5029570000000 1.0
C      1  0.4914250000000  0.5606830000000  0.5318760000000 1.0
C      1  0.5177260000000  0.4053140000000  0.4919180000000 1.0
C      1  0.5543850000000  0.4743650000000  0.5345630000000 1.0
C      1  0.4304330000000  0.5535180000000  0.5390230000000 1.0
C      1  0.4747510000000  0.4275140000000  0.5552220000000 1.0
C      1  0.4288620000000  0.5569270000000  0.5796980000000 1.0
C      1  0.4736990000000  0.4978870000000  0.4737980000000 1.0
C      1  0.5303860000000  0.4486530000000  0.4079080000000 1.0
C      1  0.5632060000000  0.5484370000000  0.5620540000000 1.0
C      1  0.4163140000000  0.5311740000000  0.5707750000000 1.0
C      1  0.4894540000000  0.5527430000000  0.3911500000000 1.0
C      1  0.5905470000000  0.4643200000000  0.4954130000000 1.0
C      1  0.4890210000000  0.5589090000000  0.4565950000000 1.0
C      1  0.5023850000000  0.5563230000000  0.4830640000000 1.0
C      1  0.4813660000000  0.6041350000000  0.5192560000000 1.0
C      1  0.5178330000000  0.4734520000000  0.4248660000000 1.0
C      1  0.4623690000000  0.4356380000000  0.4378710000000 1.0
C      1  0.4449810000000  0.4965510000000  0.5151230000000 1.0
C      1  0.5223980000000  0.5179320000000  0.4535030000000 1.0
C      1  0.4433320000000  0.4334780000000  0.5424950000000 1.0
C      1  0.4588450000000  0.5725960000000  0.4607910000000 1.0
C      1  0.5946520000000  0.4715640000000  0.5663740000000 1.0
C      1  0.3995690000000  0.5011880000000  0.4960390000000 1.0
C      1  0.5290900000000  0.5575630000000  0.5002650000000 1.0
C      1  0.4462500000000  0.5120680000000  0.4632600000000 1.0
C      1  0.4112140000000  0.4718400000000  0.4991320000000 1.0
C      1  0.4596060000000  0.4631080000000  0.5454920000000 1.0
C      1  0.4164290000000  0.5144560000000  0.4374370000000 1.0
C      1  0.5771960000000  0.4525660000000  0.4596610000000 1.0
C      1  0.4599230000000  0.5708120000000  0.5221170000000 1.0
C      1  0.4422860000000  0.5341660000000  0.4375260000000 1.0
C      1  0.4334750000000  0.4551410000000  0.5745940000000 1.0
C      1  0.5020050000000  0.5371550000000  0.4082960000000 1.0
C      1  0.5225430000000  0.5715430000000  0.5314370000000 1.0
C      1  0.4003780000000  0.5558940000000  0.5243330000000 1.0
C      1  0.4601020000000  0.5085130000000  0.4156550000000 1.0
C      1  0.5897730000000  0.5423800000000  0.5567900000000 1.0
C      1  0.5193390000000  0.4226630000000  0.4166270000000 1.0
C      1  0.4789930000000  0.4734730000000  0.4126380000000 1.0
C      1  0.4834980000000  0.4544450000000  0.4323580000000 1.0
C      1  0.4904590000000  0.5297920000000  0.4927880000000 1.0
C      1  0.4373310000000  0.4491260000000  0.4443330000000 1.0
C      1  0.4289390000000  0.4296970000000  0.4808720000000 1.0
C      1  0.5205960000000  0.5133400000000  0.3971600000000 1.0
C      1  0.4956020000000  0.4941180000000  0.5782630000000 1.0
C      1  0.4925190000000  0.4486660000000  0.6065600000000 1.0
C      1  0.4341690000000  0.4993770000000  0.6020140000000 1.0
C      1  0.4632300000000  0.4502240000000  0.5763430000000 1.0
C      1  0.5189580000000  0.5733140000000  0.4188690000000 1.0
C      1  0.5772390000000  0.5516350000000  0.4638690000000 1.0
C      1  0.5515360000000  0.5121810000000  0.4649990000000 1.0
C      1  0.5005930000000  0.4786660000000  0.4725080000000 1.0
C      1  0.5490850000000  0.4175270000000  0.4974210000000 1.0
C      1  0.4510320000000  0.4728770000000  0.4993230000000 1.0
C      1  0.5820660000000  0.4442010000000  0.5288220000000 1.0
C      1  0.5010050000000  0.4636110000000  0.5001810000000 1.0
C      1  0.5395400000000  0.5302470000000  0.4197060000000 1.0
C      1  0.5721080000000  0.4866360000000  0.5106880000000 1.0
C      1  0.5286660000000  0.4511660000000  0.5146480000000 1.0
C      1  0.4986210000000  0.4980760000000  0.4156030000000 1.0
C      1  0.6095260000000  0.4719500000000  0.4801450000000 1.0
C      1  0.4390300000000  0.5676080000000  0.4364770000000 1.0
C      1  0.5127510000000  0.4003220000000  0.5418630000000 1.0
C      1  0.5044090000000  0.5604960000000  0.5696610000000 1.0
C      1  0.4819310000000  0.3949930000000  0.4556860000000 1.0
C      1  0.5222510000000  0.4781770000000  0.5305970000000 1.0
C      1  0.5154430000000  0.4368730000000  0.4887900000000 1.0
C      1  0.5232980000000  0.5786730000000  0.5793270000000 1.0
C      1  0.4655480000000  0.4554570000000  0.5148750000000 1.0
C      1  0.5932650000000  0.5114120000000  0.5449860000000 1.0
C      1  0.4564320000000  0.5603590000000  0.5889030000000 1.0
C      1  0.5460760000000  0.4887460000000  0.5709240000000 1.0
C      1  0.4920740000000  0.5302470000000  0.5251680000000 1.0
C      1  0.3948210000000  0.5324140000000  0.4999170000000 1.0
C      1  0.4507240000000  0.4815260000000  0.4073090000000 1.0
C      1  0.5284340000000  0.4403610000000  0.4607640000000 1.0
C      1  0.4919280000000  0.5712110000000  0.4264960000000 1.0
C      1  0.4559790000000  0.4961850000000  0.5875400000000 1.0
C      1  0.4264070000000  0.5014880000000  0.5573550000000 1.0
C      1  0.5580010000000  0.4383540000000  0.4719620000000 1.0
C      1  0.5019590000000  0.4185460000000  0.5673110000000 1.0
C      1  0.4147090000000  0.5581110000000  0.4939940000000 1.0
C      1  0.5430370000000  0.5885740000000  0.5016500000000 1.0
C      1  0.4747940000000  0.5737110000000  0.5703300000000 1.0
C      1  0.5399930000000  0.5564720000000  0.4293240000000 1.0
C      1  0.5017960000000  0.5175060000000  0.6009040000000 1.0
C      1  0.5712420000000  0.5115790000000  0.4440830000000 1.0
C      1  0.5866120000000  0.4752550000000  0.4477510000000 1.0
C      1  0.6056960000000  0.5363190000000  0.5032140000000 1.0
C      1  0.5367870000000  0.4978270000000  0.4300870000000 1.0
C      1  0.4775070000000  0.4283500000000  0.5227560000000 1.0
C      1  0.6077620000000  0.5385140000000  0.5311850000000 1.0
C      1  0.4590700000000  0.5911850000000  0.4959150000000 1.0
C      1  0.5241500000000  0.4156590000000  0.4441060000000 1.0
C      1  0.4662330000000  0.5550090000000  0.4240400000000 1.0
C      1  0.4572360000000  0.5316940000000  0.4868880000000 1.0
C      1  0.5504350000000  0.4333080000000  0.5278000000000 1.0
C      1  0.4706580000000  0.4981420000000  0.5349020000000 1.0
C      1  0.4369110000000  0.4082940000000  0.4656710000000 1.0
C      1  0.4442960000000  0.5268000000000  0.5426800000000 1.0
C      1  0.4998500000000  0.5098030000000  0.5482550000000 1.0
C      1  0.5114220000000  0.5080350000000  0.4803550000000 1.0
C      1  0.5319460000000  0.4261570000000  0.5530080000000 1.0
C      1  0.5608220000000  0.5609870000000  0.5109880000000 1.0
C      1  0.4739780000000  0.4093100000000  0.4313280000000 1.0
C      1  0.4277450000000  0.4734110000000  0.5511320000000 1.0
C      1  0.4974120000000  0.4025230000000  0.5148760000000 1.0
C      1  0.5082830000000  0.4609800000000  0.4509950000000 1.0
C      1  0.4800210000000  0.5091280000000  0.4422020000000 1.0
C      1  0.6044620000000  0.4919600000000  0.5205470000000 1.0
C      1  0.5436500000000  0.5456620000000  0.5364660000000 1.0
C      1  0.5758180000000  0.4829570000000  0.5823250000000 1.0
C      1  0.5392050000000  0.4570090000000  0.5596980000000 1.0
C      1  0.5301080000000  0.5138300000000  0.5823950000000 1.0
C      1  0.4611360000000  0.5383900000000  0.5185570000000 1.0
C      1  0.4434940000000  0.5618950000000  0.4868530000000 1.0
C      1  0.5777250000000  0.5431550000000  0.4935240000000 1.0
C      1  0.4994640000000  0.5341260000000  0.4391620000000 1.0
C      1  0.4261560000000  0.4866190000000  0.4526440000000 1.0
C      1  0.4952720000000  0.5780690000000  0.5034210000000 1.0
C      1  0.5192900000000  0.5343220000000  0.5574220000000 1.0
C      1  0.5964060000000  0.4657350000000  0.5388080000000 1.0
C      1  0.5098710000000  0.3978640000000  0.4620780000000 1.0
C      1  0.4690740000000  0.5897140000000  0.5476040000000 1.0
C      1  0.5931670000000  0.5299950000000  0.4503670000000 1.0
END
