TITL C-2778434-4341-977 0.00257967466903953 125000 -728.88470693359 0 0 124 (C1) n - 1
REM
REM in /home/nfs/bkarasulu/CARBON/AIRSS/Generating-Clusters/REBO/Only-C1/SD-CG/HFTN-CG
REM
REM
REM
REM
REM
REM ./C.cell (11c1c37f851c82e70ff6c80c92926a4b)
REM
REM compiler GCC version 9.2.1 20190827 (Red Hat 9.2.1-1)
REM options -cpp -mtune=generic -march=x86-64 -g -O0 -fpre-include=/usr/include/finclude/math-vector-fortran.h
REM seed -226643123 -252667765 981925219 1186312468 -604798025 669324681 -1912673585 1625450857 -523880084 1596202616 -446952449 -1597994314 -969305261 1709327191 -1560438641 653751416 708840727 -168819489 -1350643886 -2038011297 -1876138112 -1280558150 -1668076511 -2136654754 879784454 782580652 394163044 -473944540 627582119 -517427312 -584486707 1088447925 -1073814439
REM
CELL 1.54180   50.00000   50.00000   50.00000   90.00000   90.00000   90.00000
LATT -1
SFAC C  
C      1  0.4533200000000  0.4714880000000  0.4941100000000 1.0
C      1  0.5506670000000  0.4933180000000  0.5359380000000 1.0
C      1  0.4668460000000  0.5144480000000  0.3999750000000 1.0
C      1  0.4630170000000  0.4740150000000  0.5582980000000 1.0
C      1  0.5349450000000  0.5987890000000  0.5550790000000 1.0
C      1  0.5272180000000  0.4567580000000  0.4992840000000 1.0
C      1  0.5598360000000  0.5614800000000  0.5507560000000 1.0
C      1  0.4776430000000  0.4580290000000  0.4629880000000 1.0
C      1  0.5793140000000  0.5243450000000  0.5054020000000 1.0
C      1  0.5127340000000  0.4129830000000  0.4874660000000 1.0
C      1  0.5342010000000  0.5187550000000  0.4838400000000 1.0
C      1  0.5025660000000  0.4114920000000  0.5397790000000 1.0
C      1  0.5615010000000  0.5147700000000  0.4640950000000 1.0
C      1  0.5602990000000  0.5698620000000  0.5013750000000 1.0
C      1  0.5247700000000  0.4877780000000  0.5063800000000 1.0
C      1  0.4337160000000  0.5548040000000  0.4845410000000 1.0
C      1  0.5102010000000  0.5878200000000  0.4899110000000 1.0
C      1  0.4899610000000  0.4049220000000  0.5088460000000 1.0
C      1  0.4549650000000  0.4554840000000  0.4302500000000 1.0
C      1  0.4142990000000  0.5201520000000  0.5247520000000 1.0
C      1  0.5764310000000  0.5502100000000  0.5242150000000 1.0
C      1  0.4594710000000  0.5755310000000  0.5485100000000 1.0
C      1  0.4837750000000  0.5843300000000  0.5323220000000 1.0
C      1  0.5680680000000  0.4489940000000  0.5140530000000 1.0
C      1  0.5745570000000  0.4580500000000  0.4891730000000 1.0
C      1  0.4395160000000  0.4755590000000  0.4673870000000 1.0
C      1  0.4568300000000  0.4844160000000  0.4243850000000 1.0
C      1  0.4707780000000  0.4981440000000  0.6033810000000 1.0
C      1  0.4825610000000  0.5055610000000  0.5729120000000 1.0
C      1  0.4798990000000  0.4879600000000  0.4692180000000 1.0
C      1  0.5649020000000  0.5180390000000  0.4331610000000 1.0
C      1  0.4525290000000  0.5359550000000  0.4422220000000 1.0
C      1  0.4553550000000  0.4482170000000  0.5452770000000 1.0
C      1  0.5326060000000  0.5366830000000  0.4475820000000 1.0
C      1  0.4638950000000  0.4272240000000  0.4692080000000 1.0
C      1  0.4883010000000  0.5482040000000  0.4549960000000 1.0
C      1  0.5200190000000  0.4932390000000  0.5892850000000 1.0
C      1  0.4798150000000  0.4800050000000  0.5117670000000 1.0
C      1  0.4630530000000  0.4221560000000  0.4996600000000 1.0
C      1  0.5311280000000  0.4860990000000  0.4579280000000 1.0
C      1  0.5337350000000  0.5824020000000  0.5065850000000 1.0
C      1  0.4401920000000  0.4980310000000  0.4443720000000 1.0
C      1  0.5190050000000  0.4932320000000  0.5387330000000 1.0
C      1  0.5234620000000  0.5837280000000  0.5339610000000 1.0
C      1  0.4838600000000  0.4442190000000  0.4313780000000 1.0
C      1  0.5689850000000  0.5070730000000  0.5684700000000 1.0
C      1  0.4583390000000  0.5770690000000  0.4868170000000 1.0
C      1  0.4441150000000  0.4965090000000  0.5126650000000 1.0
C      1  0.5029230000000  0.5430000000000  0.4802660000000 1.0
C      1  0.4769200000000  0.4389750000000  0.5235000000000 1.0
C      1  0.5152970000000  0.4629850000000  0.4510080000000 1.0
C      1  0.5624760000000  0.4645130000000  0.5422920000000 1.0
C      1  0.5806530000000  0.5333990000000  0.4780320000000 1.0
C      1  0.4768240000000  0.5454640000000  0.5262340000000 1.0
C      1  0.4620490000000  0.5100220000000  0.4880590000000 1.0
C      1  0.5039520000000  0.4175300000000  0.4359680000000 1.0
C      1  0.5640660000000  0.4904580000000  0.4218810000000 1.0
C      1  0.4236480000000  0.4798010000000  0.5582430000000 1.0
C      1  0.5062670000000  0.4635720000000  0.5798150000000 1.0
C      1  0.4745880000000  0.5757740000000  0.4601300000000 1.0
C      1  0.5803180000000  0.4826050000000  0.5617390000000 1.0
C      1  0.4868860000000  0.4898630000000  0.4092260000000 1.0
C      1  0.5141510000000  0.5385410000000  0.5607270000000 1.0
C      1  0.5196770000000  0.5296530000000  0.4104850000000 1.0
C      1  0.5131140000000  0.5249570000000  0.5899160000000 1.0
C      1  0.5016880000000  0.5475630000000  0.4252010000000 1.0
C      1  0.4158860000000  0.4868690000000  0.5257840000000 1.0
C      1  0.4514160000000  0.5658950000000  0.5181830000000 1.0
C      1  0.5740490000000  0.4724600000000  0.4413010000000 1.0
C      1  0.5494160000000  0.4326940000000  0.4584980000000 1.0
C      1  0.5122850000000  0.4653360000000  0.5471580000000 1.0
C      1  0.5741320000000  0.4478310000000  0.4593470000000 1.0
C      1  0.4268140000000  0.4558280000000  0.5337530000000 1.0
C      1  0.4768370000000  0.4689160000000  0.5875440000000 1.0
C      1  0.5623080000000  0.5236510000000  0.5413520000000 1.0
C      1  0.5049320000000  0.5837710000000  0.4619810000000 1.0
C      1  0.5324730000000  0.4533400000000  0.4163640000000 1.0
C      1  0.5031000000000  0.5599740000000  0.5423600000000 1.0
C      1  0.5009090000000  0.4583550000000  0.5192520000000 1.0
C      1  0.5020050000000  0.5119730000000  0.5539820000000 1.0
C      1  0.4612180000000  0.5272370000000  0.5472330000000 1.0
C      1  0.4720080000000  0.5211180000000  0.4291270000000 1.0
C      1  0.4404820000000  0.4447850000000  0.4564100000000 1.0
C      1  0.4426600000000  0.4733640000000  0.5857570000000 1.0
C      1  0.5204620000000  0.5684190000000  0.4434000000000 1.0
C      1  0.5492520000000  0.5412390000000  0.4162550000000 1.0
C      1  0.5191500000000  0.5099620000000  0.4481440000000 1.0
C      1  0.5378980000000  0.5448840000000  0.5301970000000 1.0
C      1  0.4708890000000  0.5493820000000  0.5919780000000 1.0
C      1  0.4169190000000  0.5082300000000  0.4676720000000 1.0
C      1  0.5475730000000  0.5048990000000  0.5867970000000 1.0
C      1  0.5036410000000  0.5039510000000  0.4877420000000 1.0
C      1  0.4231170000000  0.5509770000000  0.5163890000000 1.0
C      1  0.4434620000000  0.5282540000000  0.4700320000000 1.0
C      1  0.4775830000000  0.4260530000000  0.5551380000000 1.0
C      1  0.4766660000000  0.4074220000000  0.4524970000000 1.0
C      1  0.4107800000000  0.5300690000000  0.4923680000000 1.0
C      1  0.4390180000000  0.4442950000000  0.5056750000000 1.0
C      1  0.5171050000000  0.5014270000000  0.4077810000000 1.0
C      1  0.5551710000000  0.5044660000000  0.5062400000000 1.0
C      1  0.5614810000000  0.4834540000000  0.4714000000000 1.0
C      1  0.5390000000000  0.4825140000000  0.4106920000000 1.0
C      1  0.4488030000000  0.5055700000000  0.5782210000000 1.0
C      1  0.5469450000000  0.4313420000000  0.5268290000000 1.0
C      1  0.5369070000000  0.4340530000000  0.4849560000000 1.0
C      1  0.5561930000000  0.5847460000000  0.5655700000000 1.0
C      1  0.4315420000000  0.5124970000000  0.5515750000000 1.0
C      1  0.5260580000000  0.5432540000000  0.5045480000000 1.0
C      1  0.4912180000000  0.5071690000000  0.4454400000000 1.0
C      1  0.4064830000000  0.4777780000000  0.4757130000000 1.0
C      1  0.5374360000000  0.4454490000000  0.5543670000000 1.0
C      1  0.4165620000000  0.4462730000000  0.4806810000000 1.0
C      1  0.5631190000000  0.5506050000000  0.4464720000000 1.0
C      1  0.4655000000000  0.4963340000000  0.5379640000000 1.0
C      1  0.4620000000000  0.5530030000000  0.5656500000000 1.0
C      1  0.5338410000000  0.4305940000000  0.4340090000000 1.0
C      1  0.4846320000000  0.5882700000000  0.5045260000000 1.0
C      1  0.5706800000000  0.5614980000000  0.4754810000000 1.0
C      1  0.5089370000000  0.4315460000000  0.5671990000000 1.0
C      1  0.5262330000000  0.4142870000000  0.5179900000000 1.0
C      1  0.4847800000000  0.5281850000000  0.5025280000000 1.0
C      1  0.5027870000000  0.4349290000000  0.4649360000000 1.0
C      1  0.4915410000000  0.5364940000000  0.6048360000000 1.0
C      1  0.5030040000000  0.4658270000000  0.4193200000000 1.0
END
