TITL C-2778437-8639-1465 0.00375266886402741 125000 -255.438945601536 0 0 46 (C1) n - 1
REM
REM in /home/nfs/bkarasulu/CARBON/AIRSS/Generating-Clusters/REBO/Only-C1/SD-CG/HFTN-CG
REM
REM
REM
REM
REM
REM ./C.cell (11c1c37f851c82e70ff6c80c92926a4b)
REM
REM compiler GCC version 9.2.1 20190827 (Red Hat 9.2.1-1)
REM options -cpp -mtune=generic -march=x86-64 -g -O0 -fpre-include=/usr/include/finclude/math-vector-fortran.h
REM seed -574388457 1355146303 -265433079 -903504394 -1458655080 701584504 1669132287 1604295597 1942255245 -985054016 1212845228 -396152201 -2040883921 -229050554 -538604690 74083826 526161199 -672652786 -2119028666 1259319007 -1313810353 -1933363247 -924897018 -1006970451 1729856818 1416297864 -701933199 803286618 -1151923696 668324532 -1821158934 -1525373197 565968178
REM
CELL 1.54180   50.00000   50.00000   50.00000   90.00000   90.00000   90.00000
LATT -1
SFAC C  
C      1  0.4848610000000  0.5038150000000  0.4980350000000 1.0
C      1  0.4869910000000  0.5171780000000  0.4464930000000 1.0
C      1  0.5510940000000  0.5700630000000  0.5571320000000 1.0
C      1  0.5394440000000  0.4507950000000  0.5561000000000 1.0
C      1  0.4847250000000  0.4633000000000  0.4513860000000 1.0
C      1  0.4859180000000  0.4670010000000  0.4200750000000 1.0
C      1  0.5192770000000  0.5300850000000  0.5086580000000 1.0
C      1  0.4798580000000  0.4582610000000  0.3953550000000 1.0
C      1  0.5162600000000  0.5676700000000  0.5219790000000 1.0
C      1  0.4271600000000  0.4732250000000  0.5111580000000 1.0
C      1  0.4550940000000  0.4423780000000  0.4832060000000 1.0
C      1  0.5378990000000  0.5576910000000  0.5363150000000 1.0
C      1  0.5121390000000  0.5384640000000  0.4548220000000 1.0
C      1  0.5246350000000  0.4847720000000  0.5386810000000 1.0
C      1  0.4281010000000  0.5487260000000  0.5128630000000 1.0
C      1  0.5234550000000  0.4730560000000  0.5080760000000 1.0
C      1  0.4992400000000  0.4906580000000  0.4392700000000 1.0
C      1  0.5594330000000  0.4748410000000  0.5452220000000 1.0
C      1  0.5152710000000  0.5831670000000  0.4970250000000 1.0
C      1  0.4709230000000  0.5034250000000  0.5619870000000 1.0
C      1  0.4534680000000  0.5140200000000  0.5440060000000 1.0
C      1  0.4975510000000  0.4889150000000  0.5482850000000 1.0
C      1  0.4405960000000  0.4948780000000  0.5220580000000 1.0
C      1  0.4820050000000  0.5550220000000  0.4509390000000 1.0
C      1  0.5034180000000  0.5655120000000  0.4733920000000 1.0
C      1  0.4709770000000  0.5301220000000  0.4953650000000 1.0
C      1  0.4329820000000  0.4509730000000  0.4966530000000 1.0
C      1  0.4919590000000  0.4708300000000  0.4986030000000 1.0
C      1  0.4954900000000  0.5489450000000  0.5020060000000 1.0
C      1  0.4878600000000  0.4813650000000  0.5786400000000 1.0
C      1  0.5490570000000  0.4797620000000  0.4335790000000 1.0
C      1  0.4790720000000  0.4555350000000  0.4766500000000 1.0
C      1  0.4766720000000  0.4862940000000  0.5247570000000 1.0
C      1  0.5446890000000  0.4542870000000  0.5226520000000 1.0
C      1  0.5506790000000  0.5056510000000  0.5421660000000 1.0
C      1  0.5023170000000  0.4603070000000  0.5897490000000 1.0
C      1  0.5487120000000  0.5254070000000  0.4920640000000 1.0
C      1  0.5305080000000  0.5153190000000  0.4657860000000 1.0
C      1  0.4645440000000  0.5322300000000  0.4648670000000 1.0
C      1  0.4478490000000  0.5296200000000  0.5150470000000 1.0
C      1  0.5171040000000  0.5012290000000  0.4926100000000 1.0
C      1  0.5477380000000  0.5300130000000  0.5258320000000 1.0
C      1  0.4739570000000  0.4497480000000  0.3712820000000 1.0
C      1  0.5233410000000  0.4481990000000  0.5769520000000 1.0
C      1  0.5563360000000  0.4341620000000  0.5077860000000 1.0
C      1  0.5293420000000  0.4930830000000  0.4444370000000 1.0
END
