TITL C-2778424-3986-1167 0.00850295269281478 125000 -1125.68293261534 0 0 194 (C1) n - 1
REM
REM in /home/nfs/bkarasulu/CARBON/AIRSS/Generating-Clusters/REBO/Only-C1/SD-CG/HFTN-CG
REM
REM
REM
REM
REM
REM ./C.cell (11c1c37f851c82e70ff6c80c92926a4b)
REM
REM compiler GCC version 9.2.1 20190827 (Red Hat 9.2.1-1)
REM options -cpp -mtune=generic -march=x86-64 -g -O0 -fpre-include=/usr/include/finclude/math-vector-fortran.h
REM seed -1498920018 -714523917 -1290878654 -1218025212 669404012 -312408749 -1680411850 648717514 -1629607676 1197822761 1553167089 473809926 -1264735908 -1538580414 1212256777 -1291193240 -2127253603 1663470972 -1454804574 -1175815055 2132290646 1664308640 -1463753965 -1316672449 53531801 -884597449 1883245552 111398492 343034762 1691645190 -1367522078 1123244536 1839128635
REM
CELL 1.54180   50.00000   50.00000   50.00000   90.00000   90.00000   90.00000
LATT -1
SFAC C  
C      1  0.5611420000000  0.5793660000000  0.5364660000000 1.0
C      1  0.4700260000000  0.5017940000000  0.4643390000000 1.0
C      1  0.5878230000000  0.5189590000000  0.4480340000000 1.0
C      1  0.5452710000000  0.4828570000000  0.5304430000000 1.0
C      1  0.4054560000000  0.4676260000000  0.5074250000000 1.0
C      1  0.6166040000000  0.5083330000000  0.6029150000000 1.0
C      1  0.4653810000000  0.5174030000000  0.5123900000000 1.0
C      1  0.3874340000000  0.5108920000000  0.4954530000000 1.0
C      1  0.4316610000000  0.5658770000000  0.5511270000000 1.0
C      1  0.5120190000000  0.5361380000000  0.4591390000000 1.0
C      1  0.4532150000000  0.4817830000000  0.5949200000000 1.0
C      1  0.5370740000000  0.4482730000000  0.4145680000000 1.0
C      1  0.4955530000000  0.4585710000000  0.4393590000000 1.0
C      1  0.4281510000000  0.5126540000000  0.5259530000000 1.0
C      1  0.5260980000000  0.5651880000000  0.5239090000000 1.0
C      1  0.5004390000000  0.4589970000000  0.5927190000000 1.0
C      1  0.4301150000000  0.5392050000000  0.4292410000000 1.0
C      1  0.4615970000000  0.4244650000000  0.5511900000000 1.0
C      1  0.5575640000000  0.5436200000000  0.4712960000000 1.0
C      1  0.4971980000000  0.5131920000000  0.4771790000000 1.0
C      1  0.4536220000000  0.5623070000000  0.4305720000000 1.0
C      1  0.4789110000000  0.4214680000000  0.5021910000000 1.0
C      1  0.5453370000000  0.3982820000000  0.5114620000000 1.0
C      1  0.4563700000000  0.4969720000000  0.4921580000000 1.0
C      1  0.4564820000000  0.4672050000000  0.4057270000000 1.0
C      1  0.5778760000000  0.5606360000000  0.5675830000000 1.0
C      1  0.4555720000000  0.5750150000000  0.5738900000000 1.0
C      1  0.5426570000000  0.4853180000000  0.5648890000000 1.0
C      1  0.4254640000000  0.5161440000000  0.4738700000000 1.0
C      1  0.5555970000000  0.5164210000000  0.5114420000000 1.0
C      1  0.5683670000000  0.5524390000000  0.5281790000000 1.0
C      1  0.5517740000000  0.4556820000000  0.5955680000000 1.0
C      1  0.5300270000000  0.5337710000000  0.5194880000000 1.0
C      1  0.5109430000000  0.4861420000000  0.4514490000000 1.0
C      1  0.5805550000000  0.4486170000000  0.4383060000000 1.0
C      1  0.5070700000000  0.4471280000000  0.4031870000000 1.0
C      1  0.5172920000000  0.5236600000000  0.6122810000000 1.0
C      1  0.4893350000000  0.5382260000000  0.4365020000000 1.0
C      1  0.5626310000000  0.4183600000000  0.4907390000000 1.0
C      1  0.4146530000000  0.4254350000000  0.4882430000000 1.0
C      1  0.5231590000000  0.4494800000000  0.4668190000000 1.0
C      1  0.4913310000000  0.4584810000000  0.4725030000000 1.0
C      1  0.5742750000000  0.4874140000000  0.4685110000000 1.0
C      1  0.6042670000000  0.5218690000000  0.5021250000000 1.0
C      1  0.5769680000000  0.5443850000000  0.4364230000000 1.0
C      1  0.5618180000000  0.4387950000000  0.5707470000000 1.0
C      1  0.4535940000000  0.3888870000000  0.4965700000000 1.0
C      1  0.5242860000000  0.4397320000000  0.5850240000000 1.0
C      1  0.5606420000000  0.4705340000000  0.5025450000000 1.0
C      1  0.4314810000000  0.4796170000000  0.5039270000000 1.0
C      1  0.5359280000000  0.5138860000000  0.5536040000000 1.0
C      1  0.4703280000000  0.4684230000000  0.4970950000000 1.0
C      1  0.4590800000000  0.5363160000000  0.4105990000000 1.0
C      1  0.5434890000000  0.5622560000000  0.4951260000000 1.0
C      1  0.5708120000000  0.5792370000000  0.4822770000000 1.0
C      1  0.4661650000000  0.6129450000000  0.5251660000000 1.0
C      1  0.4587360000000  0.4231050000000  0.4274450000000 1.0
C      1  0.5434450000000  0.4738240000000  0.4318370000000 1.0
C      1  0.5458730000000  0.4472830000000  0.5122520000000 1.0
C      1  0.5231560000000  0.5592500000000  0.5567120000000 1.0
C      1  0.4523750000000  0.5923370000000  0.5455890000000 1.0
C      1  0.4579530000000  0.3947940000000  0.4367390000000 1.0
C      1  0.4748690000000  0.5385220000000  0.4787270000000 1.0
C      1  0.4880410000000  0.3977580000000  0.4372500000000 1.0
C      1  0.5242990000000  0.4947410000000  0.6147980000000 1.0
C      1  0.4633250000000  0.5167670000000  0.4372440000000 1.0
C      1  0.5164000000000  0.5296810000000  0.4184230000000 1.0
C      1  0.4463230000000  0.4866760000000  0.5294480000000 1.0
C      1  0.3929600000000  0.4763210000000  0.4618550000000 1.0
C      1  0.4716500000000  0.4909550000000  0.4036410000000 1.0
C      1  0.4870800000000  0.3838980000000  0.4922180000000 1.0
C      1  0.5623910000000  0.5162010000000  0.4787850000000 1.0
C      1  0.4501370000000  0.3935380000000  0.4650420000000 1.0
C      1  0.5471260000000  0.5986280000000  0.5194270000000 1.0
C      1  0.5861890000000  0.4759670000000  0.4414250000000 1.0
C      1  0.4363250000000  0.4616690000000  0.5737660000000 1.0
C      1  0.4928730000000  0.6043250000000  0.5071710000000 1.0
C      1  0.4173690000000  0.4660480000000  0.5476670000000 1.0
C      1  0.5038620000000  0.5079840000000  0.3873200000000 1.0
C      1  0.3948770000000  0.5279320000000  0.4683200000000 1.0
C      1  0.5075640000000  0.6025160000000  0.5552360000000 1.0
C      1  0.5958470000000  0.5191400000000  0.5927370000000 1.0
C      1  0.5485080000000  0.4869950000000  0.5962350000000 1.0
C      1  0.4834960000000  0.5830460000000  0.5452610000000 1.0
C      1  0.4326700000000  0.4128630000000  0.5087480000000 1.0
C      1  0.4418560000000  0.4323270000000  0.5764450000000 1.0
C      1  0.5641990000000  0.5080720000000  0.4259750000000 1.0
C      1  0.4817470000000  0.5293840000000  0.5552800000000 1.0
C      1  0.4274400000000  0.4710260000000  0.4152150000000 1.0
C      1  0.4436900000000  0.4889630000000  0.4376140000000 1.0
C      1  0.4672840000000  0.5829150000000  0.4992040000000 1.0
C      1  0.5288180000000  0.5965380000000  0.4724180000000 1.0
C      1  0.5986830000000  0.5445010000000  0.5208200000000 1.0
C      1  0.5640000000000  0.5285060000000  0.5484980000000 1.0
C      1  0.5245860000000  0.3988620000000  0.4650810000000 1.0
C      1  0.4886350000000  0.5959620000000  0.4315490000000 1.0
C      1  0.4259970000000  0.5559770000000  0.4586630000000 1.0
C      1  0.4906240000000  0.5042360000000  0.5262330000000 1.0
C      1  0.4892650000000  0.4298970000000  0.5684470000000 1.0
C      1  0.4903050000000  0.5348680000000  0.3969880000000 1.0
C      1  0.4529750000000  0.5195670000000  0.5644280000000 1.0
C      1  0.5150260000000  0.4878320000000  0.4851870000000 1.0
C      1  0.4728580000000  0.5733860000000  0.4459250000000 1.0
C      1  0.5087060000000  0.4214070000000  0.5314360000000 1.0
C      1  0.5276330000000  0.4239450000000  0.4446890000000 1.0
C      1  0.4441190000000  0.5399290000000  0.5211380000000 1.0
C      1  0.4199250000000  0.5145930000000  0.5647930000000 1.0
C      1  0.3876500000000  0.4827620000000  0.4913860000000 1.0
C      1  0.4974630000000  0.4857360000000  0.4197540000000 1.0
C      1  0.4967150000000  0.5382530000000  0.5258640000000 1.0
C      1  0.5190590000000  0.4788790000000  0.3965400000000 1.0
C      1  0.4821280000000  0.4652770000000  0.5289460000000 1.0
C      1  0.4228180000000  0.4428780000000  0.5231620000000 1.0
C      1  0.4915410000000  0.5283850000000  0.5940100000000 1.0
C      1  0.4122470000000  0.5169250000000  0.4419310000000 1.0
C      1  0.4868180000000  0.5666140000000  0.5189310000000 1.0
C      1  0.4103650000000  0.4939690000000  0.5452050000000 1.0
C      1  0.4609960000000  0.4222200000000  0.4765230000000 1.0
C      1  0.5150890000000  0.4124380000000  0.5709580000000 1.0
C      1  0.5561340000000  0.4270500000000  0.4296390000000 1.0
C      1  0.4125130000000  0.4568660000000  0.4420400000000 1.0
C      1  0.5230220000000  0.5932560000000  0.5775520000000 1.0
C      1  0.4628930000000  0.5089450000000  0.3842400000000 1.0
C      1  0.5509670000000  0.4873750000000  0.4022800000000 1.0
C      1  0.5252880000000  0.3968610000000  0.5456930000000 1.0
C      1  0.4265120000000  0.4862540000000  0.4649580000000 1.0
C      1  0.4555320000000  0.4808000000000  0.5550610000000 1.0
C      1  0.5207000000000  0.5033160000000  0.5256210000000 1.0
C      1  0.5881490000000  0.4298540000000  0.5037950000000 1.0
C      1  0.5795330000000  0.5666810000000  0.4565600000000 1.0
C      1  0.4821140000000  0.6096160000000  0.4598400000000 1.0
C      1  0.5855870000000  0.4414840000000  0.5300610000000 1.0
C      1  0.5345850000000  0.5807280000000  0.4444540000000 1.0
C      1  0.5525670000000  0.6008700000000  0.4916750000000 1.0
C      1  0.5069200000000  0.4342420000000  0.5004370000000 1.0
C      1  0.3952020000000  0.5402650000000  0.5061190000000 1.0
C      1  0.5244860000000  0.4489300000000  0.5328820000000 1.0
C      1  0.5030710000000  0.6117510000000  0.4787880000000 1.0
C      1  0.5496310000000  0.5777500000000  0.5670840000000 1.0
C      1  0.5901360000000  0.4747970000000  0.4920590000000 1.0
C      1  0.4906810000000  0.4631040000000  0.5612860000000 1.0
C      1  0.4126390000000  0.5515670000000  0.5268220000000 1.0
C      1  0.5076570000000  0.5834950000000  0.5984910000000 1.0
C      1  0.5719690000000  0.4245100000000  0.5489380000000 1.0
C      1  0.5450080000000  0.5206510000000  0.5924730000000 1.0
C      1  0.4958270000000  0.5637930000000  0.4148530000000 1.0
C      1  0.6014250000000  0.5221700000000  0.4729710000000 1.0
C      1  0.5034230000000  0.4757130000000  0.6136940000000 1.0
C      1  0.5516050000000  0.4660050000000  0.4597370000000 1.0
C      1  0.5154530000000  0.5966480000000  0.5254340000000 1.0
C      1  0.5305550000000  0.5046420000000  0.4316190000000 1.0
C      1  0.4849110000000  0.5633820000000  0.4691600000000 1.0
C      1  0.4486350000000  0.4456620000000  0.4927520000000 1.0
C      1  0.4752970000000  0.4460040000000  0.4154420000000 1.0
C      1  0.5357310000000  0.4561440000000  0.5590790000000 1.0
C      1  0.4713790000000  0.4087120000000  0.5258150000000 1.0
C      1  0.5427340000000  0.4937140000000  0.4920420000000 1.0
C      1  0.4625170000000  0.4703590000000  0.4579790000000 1.0
C      1  0.5568900000000  0.4019700000000  0.5400170000000 1.0
C      1  0.5117890000000  0.3919370000000  0.5141650000000 1.0
C      1  0.4665430000000  0.4237510000000  0.5907500000000 1.0
C      1  0.5710940000000  0.5320280000000  0.5806010000000 1.0
C      1  0.5390050000000  0.5505750000000  0.4473420000000 1.0
C      1  0.6004790000000  0.5594310000000  0.5504580000000 1.0
C      1  0.4980690000000  0.3882670000000  0.4644710000000 1.0
C      1  0.4646470000000  0.5075300000000  0.5920020000000 1.0
C      1  0.5171550000000  0.5866210000000  0.4228560000000 1.0
C      1  0.4414140000000  0.5656690000000  0.5009220000000 1.0
C      1  0.5906930000000  0.4710720000000  0.5317900000000 1.0
C      1  0.5186000000000  0.5312950000000  0.5736170000000 1.0
C      1  0.4910880000000  0.5582450000000  0.5634040000000 1.0
C      1  0.6023360000000  0.4472290000000  0.4876190000000 1.0
C      1  0.5489540000000  0.5379040000000  0.4199040000000 1.0
C      1  0.4161680000000  0.5805840000000  0.4881310000000 1.0
C      1  0.4833330000000  0.4950790000000  0.5562240000000 1.0
C      1  0.4589680000000  0.5991770000000  0.4729450000000 1.0
C      1  0.6018750000000  0.4904150000000  0.4239530000000 1.0
C      1  0.4345310000000  0.5887180000000  0.4637820000000 1.0
C      1  0.5086150000000  0.4664930000000  0.5076180000000 1.0
C      1  0.5622140000000  0.4336180000000  0.4626380000000 1.0
C      1  0.4599280000000  0.4403430000000  0.4518850000000 1.0
C      1  0.6041390000000  0.4947280000000  0.5117340000000 1.0
C      1  0.3967260000000  0.5582870000000  0.4773210000000 1.0
C      1  0.4040990000000  0.4891660000000  0.4321960000000 1.0
C      1  0.4811980000000  0.5669390000000  0.5926520000000 1.0
C      1  0.5159310000000  0.5655260000000  0.4761750000000 1.0
C      1  0.5305850000000  0.4230330000000  0.4843560000000 1.0
C      1  0.4334240000000  0.5440140000000  0.5752340000000 1.0
C      1  0.4449000000000  0.5387940000000  0.4812510000000 1.0
C      1  0.5729340000000  0.4999090000000  0.5356410000000 1.0
C      1  0.4557930000000  0.4453940000000  0.5260970000000 1.0
C      1  0.4236350000000  0.4539300000000  0.4741030000000 1.0
C      1  0.5042260000000  0.4204180000000  0.4245840000000 1.0
C      1  0.4600730000000  0.5414780000000  0.5967260000000 1.0
END
