TITL C-2778435-5768-203 -5.67709281850217e-05 125000 -271.777268391018 0 0 50 (C1) n - 1
REM
REM in /home/nfs/bkarasulu/CARBON/AIRSS/Generating-Clusters/REBO/Only-C1/SD-CG/HFTN-CG
REM
REM
REM
REM
REM
REM ./C.cell (11c1c37f851c82e70ff6c80c92926a4b)
REM
REM compiler GCC version 9.2.1 20190827 (Red Hat 9.2.1-1)
REM options -cpp -mtune=generic -march=x86-64 -g -O0 -fpre-include=/usr/include/finclude/math-vector-fortran.h
REM seed 1718125339 -1799188133 -799072896 -335805204 -1224344006 1599049037 1402985285 584874522 1406795786 -1708018631 27568021 345470497 -338007971 1922477565 -90578342 60675172 -1516808368 -834521448 -2115534417 1130742792 -1999650282 -984258394 108528364 -472385155 -1243207161 -50428394 -209547858 430494300 -550263529 -363997645 -406099723 450354418 132989854
REM
CELL 1.54180   50.00000   50.00000   50.00000   90.00000   90.00000   90.00000
LATT -1
SFAC C  
C      1  0.4672740000000  0.4813200000000  0.5472080000000 1.0
C      1  0.4993500000000  0.5387160000000  0.4543100000000 1.0
C      1  0.5133690000000  0.5123080000000  0.4482170000000 1.0
C      1  0.5597250000000  0.5074460000000  0.4711590000000 1.0
C      1  0.5029520000000  0.5151680000000  0.5803280000000 1.0
C      1  0.4725220000000  0.5331310000000  0.5394290000000 1.0
C      1  0.5170740000000  0.4986810000000  0.4855890000000 1.0
C      1  0.5093330000000  0.4362360000000  0.4515890000000 1.0
C      1  0.5651940000000  0.5076610000000  0.4976190000000 1.0
C      1  0.4866800000000  0.5687050000000  0.4915300000000 1.0
C      1  0.4458350000000  0.5266190000000  0.4589940000000 1.0
C      1  0.4465520000000  0.4795650000000  0.4861870000000 1.0
C      1  0.5049970000000  0.4393840000000  0.5398310000000 1.0
C      1  0.5165060000000  0.4984410000000  0.5564870000000 1.0
C      1  0.4511860000000  0.5076150000000  0.5321020000000 1.0
C      1  0.4438540000000  0.4585290000000  0.4598290000000 1.0
C      1  0.4793340000000  0.5079870000000  0.4944790000000 1.0
C      1  0.5446750000000  0.5137340000000  0.4481430000000 1.0
C      1  0.4827110000000  0.4576680000000  0.5576260000000 1.0
C      1  0.4924880000000  0.4420380000000  0.4773680000000 1.0
C      1  0.4788080000000  0.5427750000000  0.4748530000000 1.0
C      1  0.5003540000000  0.4649940000000  0.4991680000000 1.0
C      1  0.5459210000000  0.5465000000000  0.4710330000000 1.0
C      1  0.4498350000000  0.4765280000000  0.5183190000000 1.0
C      1  0.5570880000000  0.5214250000000  0.4245530000000 1.0
C      1  0.5775100000000  0.5191070000000  0.5442020000000 1.0
C      1  0.5143780000000  0.5637510000000  0.4535300000000 1.0
C      1  0.5378190000000  0.4898330000000  0.5340360000000 1.0
C      1  0.5286240000000  0.4764950000000  0.5048380000000 1.0
C      1  0.4738160000000  0.4674650000000  0.4696210000000 1.0
C      1  0.5150470000000  0.4546730000000  0.4319590000000 1.0
C      1  0.4800500000000  0.4827140000000  0.5075590000000 1.0
C      1  0.5100050000000  0.4809780000000  0.4352650000000 1.0
C      1  0.4996620000000  0.5438070000000  0.5237610000000 1.0
C      1  0.4957370000000  0.4876850000000  0.4637650000000 1.0
C      1  0.5148210000000  0.4669960000000  0.5573740000000 1.0
C      1  0.4945850000000  0.4187010000000  0.5208330000000 1.0
C      1  0.4885970000000  0.4182140000000  0.4966510000000 1.0
C      1  0.4697750000000  0.4427690000000  0.5805050000000 1.0
C      1  0.5076280000000  0.5804950000000  0.4754010000000 1.0
C      1  0.5232980000000  0.5554360000000  0.5381500000000 1.0
C      1  0.5330560000000  0.4561410000000  0.5310470000000 1.0
C      1  0.5039510000000  0.5260590000000  0.5010720000000 1.0
C      1  0.4392820000000  0.5259060000000  0.5087760000000 1.0
C      1  0.5284660000000  0.5303960000000  0.4806680000000 1.0
C      1  0.4564540000000  0.5437030000000  0.4971220000000 1.0
C      1  0.4717700000000  0.5616470000000  0.5205520000000 1.0
C      1  0.4566410000000  0.5092030000000  0.4769150000000 1.0
C      1  0.5615620000000  0.5065500000000  0.5255220000000 1.0
C      1  0.4838530000000  0.5081030000000  0.5549240000000 1.0
END
