TITL C-2778435-5768-833 -0.00130039436779342 125000 -1169.85424888196 0 0 200 (C1) n - 1
REM
REM in /home/nfs/bkarasulu/CARBON/AIRSS/Generating-Clusters/REBO/Only-C1/SD-CG/HFTN-CG
REM
REM
REM
REM
REM
REM ./C.cell (11c1c37f851c82e70ff6c80c92926a4b)
REM
REM compiler GCC version 9.2.1 20190827 (Red Hat 9.2.1-1)
REM options -cpp -mtune=generic -march=x86-64 -g -O0 -fpre-include=/usr/include/finclude/math-vector-fortran.h
REM seed 1618626208 -354377752 74119662 1683290074 -1893827202 -670800885 -440291852 145146741 -607173532 -539663620 1772858723 -149191330 1111095458 -25259612 796940976 1746273809 -1912747991 -1800500158 1904988622 -1473191427 659924632 -396749869 -1094801323 834718189 -1836109098 -1948100886 713034306 -1272744623 1864282565 -1797496585 1399547498 -956720041 1554966195
REM
CELL 1.54180   50.00000   50.00000   50.00000   90.00000   90.00000   90.00000
LATT -1
SFAC C  
C      1  0.4973440000000  0.5036190000000  0.6099630000000 1.0
C      1  0.4471000000000  0.4169970000000  0.5532280000000 1.0
C      1  0.4932180000000  0.5355960000000  0.4046480000000 1.0
C      1  0.4740490000000  0.5382600000000  0.5644370000000 1.0
C      1  0.5242510000000  0.6087520000000  0.5277960000000 1.0
C      1  0.5050820000000  0.5001430000000  0.5596150000000 1.0
C      1  0.4051280000000  0.4839550000000  0.5502460000000 1.0
C      1  0.6126120000000  0.5015540000000  0.5289050000000 1.0
C      1  0.4791330000000  0.5012890000000  0.4215080000000 1.0
C      1  0.4823270000000  0.5753740000000  0.5054290000000 1.0
C      1  0.4998200000000  0.4615290000000  0.4842560000000 1.0
C      1  0.5221190000000  0.3930940000000  0.5294340000000 1.0
C      1  0.5370590000000  0.4992050000000  0.5510710000000 1.0
C      1  0.4299690000000  0.5020980000000  0.5912740000000 1.0
C      1  0.4891240000000  0.4697900000000  0.5214010000000 1.0
C      1  0.4160820000000  0.5208780000000  0.4799050000000 1.0
C      1  0.5319140000000  0.5281670000000  0.3980510000000 1.0
C      1  0.5052730000000  0.4188030000000  0.4309410000000 1.0
C      1  0.5321670000000  0.5589640000000  0.4723810000000 1.0
C      1  0.5219450000000  0.4808290000000  0.6055830000000 1.0
C      1  0.3993340000000  0.4773670000000  0.4797920000000 1.0
C      1  0.5384390000000  0.5374030000000  0.5931730000000 1.0
C      1  0.5005150000000  0.5405370000000  0.4563210000000 1.0
C      1  0.5392550000000  0.4220430000000  0.4334410000000 1.0
C      1  0.5574700000000  0.5238470000000  0.4095660000000 1.0
C      1  0.5299220000000  0.5427030000000  0.4449060000000 1.0
C      1  0.4257390000000  0.4198740000000  0.5331170000000 1.0
C      1  0.5017310000000  0.4752650000000  0.4170540000000 1.0
C      1  0.5641100000000  0.4788200000000  0.4873710000000 1.0
C      1  0.5889160000000  0.4442940000000  0.5379450000000 1.0
C      1  0.4798950000000  0.5324720000000  0.6157460000000 1.0
C      1  0.5437470000000  0.4221380000000  0.5614030000000 1.0
C      1  0.5295440000000  0.4309320000000  0.4975600000000 1.0
C      1  0.5634940000000  0.5500060000000  0.4814080000000 1.0
C      1  0.5906090000000  0.4180590000000  0.5183260000000 1.0
C      1  0.3907280000000  0.5185410000000  0.5027780000000 1.0
C      1  0.4173940000000  0.4482860000000  0.5063690000000 1.0
C      1  0.4589270000000  0.4364590000000  0.5784760000000 1.0
C      1  0.4195920000000  0.5220120000000  0.4315470000000 1.0
C      1  0.5363810000000  0.5676050000000  0.5774490000000 1.0
C      1  0.4768230000000  0.5808020000000  0.5934360000000 1.0
C      1  0.4661660000000  0.4006750000000  0.4707400000000 1.0
C      1  0.5882350000000  0.5706840000000  0.5324090000000 1.0
C      1  0.4669340000000  0.4009450000000  0.5424430000000 1.0
C      1  0.4298550000000  0.4763680000000  0.5608500000000 1.0
C      1  0.4559560000000  0.6040150000000  0.4752050000000 1.0
C      1  0.4838120000000  0.5759620000000  0.4401580000000 1.0
C      1  0.5667010000000  0.5911710000000  0.4906580000000 1.0
C      1  0.5487000000000  0.5396810000000  0.5379330000000 1.0
C      1  0.5375980000000  0.4541420000000  0.4238390000000 1.0
C      1  0.4358620000000  0.4221560000000  0.4560910000000 1.0
C      1  0.5148220000000  0.5404280000000  0.5323080000000 1.0
C      1  0.5977490000000  0.4465820000000  0.4737810000000 1.0
C      1  0.5716260000000  0.5200490000000  0.5236010000000 1.0
C      1  0.4923110000000  0.4429500000000  0.4107760000000 1.0
C      1  0.5710250000000  0.5238830000000  0.4625750000000 1.0
C      1  0.5372800000000  0.4841790000000  0.4422640000000 1.0
C      1  0.4625380000000  0.4508310000000  0.5212630000000 1.0
C      1  0.4751370000000  0.4784310000000  0.4850930000000 1.0
C      1  0.5681970000000  0.4971910000000  0.4105010000000 1.0
C      1  0.5156740000000  0.5837860000000  0.4836830000000 1.0
C      1  0.5241710000000  0.4001160000000  0.4533330000000 1.0
C      1  0.4076200000000  0.5066330000000  0.5294950000000 1.0
C      1  0.5179380000000  0.4509540000000  0.4506190000000 1.0
C      1  0.5678240000000  0.4204580000000  0.4446540000000 1.0
C      1  0.4727890000000  0.4582260000000  0.4418170000000 1.0
C      1  0.4220990000000  0.5659220000000  0.4691170000000 1.0
C      1  0.5833110000000  0.4244350000000  0.4904600000000 1.0
C      1  0.4933360000000  0.5612110000000  0.4784290000000 1.0
C      1  0.4410340000000  0.5511420000000  0.4124320000000 1.0
C      1  0.5460940000000  0.5162180000000  0.4477200000000 1.0
C      1  0.5075950000000  0.6057780000000  0.5010280000000 1.0
C      1  0.4665420000000  0.5244650000000  0.5386600000000 1.0
C      1  0.5868970000000  0.4709860000000  0.5579070000000 1.0
C      1  0.5739620000000  0.5101940000000  0.4909310000000 1.0
C      1  0.4342530000000  0.5261910000000  0.5361620000000 1.0
C      1  0.4283020000000  0.5958030000000  0.4768980000000 1.0
C      1  0.4575590000000  0.5785010000000  0.4556760000000 1.0
C      1  0.5126560000000  0.4457930000000  0.3854640000000 1.0
C      1  0.5021930000000  0.3896640000000  0.5095930000000 1.0
C      1  0.4299990000000  0.5595200000000  0.5415220000000 1.0
C      1  0.4451720000000  0.5808710000000  0.5239360000000 1.0
C      1  0.4764510000000  0.6066400000000  0.4944800000000 1.0
C      1  0.4944200000000  0.4196870000000  0.5642170000000 1.0
C      1  0.4598310000000  0.4995950000000  0.5841530000000 1.0
C      1  0.5962170000000  0.5390600000000  0.5340330000000 1.0
C      1  0.5509380000000  0.4534590000000  0.4596030000000 1.0
C      1  0.4586730000000  0.4596470000000  0.6035170000000 1.0
C      1  0.4513260000000  0.5278590000000  0.4428930000000 1.0
C      1  0.4171500000000  0.4692100000000  0.4337070000000 1.0
C      1  0.3966090000000  0.5550950000000  0.4890060000000 1.0
C      1  0.4609090000000  0.5247060000000  0.4040320000000 1.0
C      1  0.4580800000000  0.4054990000000  0.4970690000000 1.0
C      1  0.5979120000000  0.5278020000000  0.4425550000000 1.0
C      1  0.5273310000000  0.4504500000000  0.5557180000000 1.0
C      1  0.5897730000000  0.5800610000000  0.5035260000000 1.0
C      1  0.4988880000000  0.4389850000000  0.5099500000000 1.0
C      1  0.4332440000000  0.5639030000000  0.4364550000000 1.0
C      1  0.5059320000000  0.5067630000000  0.3927840000000 1.0
C      1  0.6002200000000  0.4969320000000  0.5535470000000 1.0
C      1  0.5172290000000  0.4059290000000  0.5544340000000 1.0
C      1  0.4713670000000  0.5958030000000  0.5311570000000 1.0
C      1  0.5536290000000  0.5006260000000  0.5964660000000 1.0
C      1  0.4801380000000  0.4827810000000  0.5673660000000 1.0
C      1  0.5116570000000  0.5198810000000  0.5841890000000 1.0
C      1  0.4315540000000  0.4110270000000  0.5045610000000 1.0
C      1  0.5741780000000  0.4889550000000  0.5245330000000 1.0
C      1  0.5621710000000  0.5687230000000  0.5475260000000 1.0
C      1  0.4778330000000  0.4876930000000  0.3900150000000 1.0
C      1  0.4367730000000  0.5062420000000  0.4126300000000 1.0
C      1  0.5643880000000  0.5478100000000  0.5737650000000 1.0
C      1  0.5238250000000  0.5100430000000  0.4694470000000 1.0
C      1  0.4621060000000  0.5580880000000  0.6063410000000 1.0
C      1  0.5286430000000  0.5697170000000  0.5210590000000 1.0
C      1  0.4170310000000  0.4182490000000  0.4802730000000 1.0
C      1  0.4897240000000  0.4702910000000  0.6062060000000 1.0
C      1  0.5370030000000  0.4770930000000  0.5075260000000 1.0
C      1  0.5436500000000  0.5615050000000  0.4229040000000 1.0
C      1  0.5262160000000  0.4803010000000  0.4755260000000 1.0
C      1  0.5402340000000  0.5853350000000  0.4435500000000 1.0
C      1  0.4359950000000  0.5064760000000  0.4645410000000 1.0
C      1  0.5565120000000  0.4456120000000  0.4896150000000 1.0
C      1  0.4481170000000  0.4475510000000  0.4912490000000 1.0
C      1  0.4026250000000  0.4394010000000  0.5336280000000 1.0
C      1  0.4867220000000  0.4111740000000  0.4577610000000 1.0
C      1  0.4766560000000  0.4993040000000  0.5118080000000 1.0
C      1  0.5810610000000  0.4475260000000  0.4495350000000 1.0
C      1  0.5731990000000  0.5454420000000  0.4270770000000 1.0
C      1  0.5201440000000  0.5315120000000  0.4899500000000 1.0
C      1  0.6045960000000  0.5431030000000  0.4726040000000 1.0
C      1  0.4748650000000  0.5547830000000  0.5284190000000 1.0
C      1  0.4973100000000  0.4781910000000  0.4484010000000 1.0
C      1  0.4962950000000  0.5269070000000  0.5095960000000 1.0
C      1  0.3841080000000  0.5291880000000  0.4708260000000 1.0
C      1  0.5126070000000  0.5466880000000  0.5647710000000 1.0
C      1  0.6025470000000  0.4693090000000  0.4918750000000 1.0
C      1  0.4663960000000  0.5084120000000  0.4743010000000 1.0
C      1  0.4536460000000  0.4653880000000  0.5645200000000 1.0
C      1  0.4720760000000  0.5245010000000  0.5873300000000 1.0
C      1  0.4656790000000  0.5670480000000  0.5577800000000 1.0
C      1  0.4184130000000  0.5284680000000  0.5824460000000 1.0
C      1  0.4362570000000  0.4756860000000  0.6056580000000 1.0
C      1  0.5373510000000  0.4548070000000  0.3936530000000 1.0
C      1  0.4978840000000  0.4588200000000  0.5581150000000 1.0
C      1  0.4794340000000  0.5440380000000  0.4331300000000 1.0
C      1  0.4810920000000  0.4105550000000  0.5156800000000 1.0
C      1  0.6075110000000  0.5091980000000  0.4694360000000 1.0
C      1  0.3975820000000  0.5448260000000  0.5233270000000 1.0
C      1  0.5699720000000  0.4059240000000  0.4697180000000 1.0
C      1  0.5452320000000  0.4069060000000  0.5141450000000 1.0
C      1  0.4365230000000  0.5690750000000  0.5690660000000 1.0
C      1  0.4364090000000  0.4783480000000  0.4156080000000 1.0
C      1  0.5238910000000  0.4358120000000  0.5857860000000 1.0
C      1  0.6057010000000  0.5505600000000  0.5031670000000 1.0
C      1  0.5887420000000  0.4843760000000  0.4643620000000 1.0
C      1  0.4606400000000  0.4412130000000  0.4604430000000 1.0
C      1  0.5120900000000  0.3882400000000  0.4828730000000 1.0
C      1  0.4354300000000  0.5516230000000  0.5920490000000 1.0
C      1  0.5133740000000  0.5927330000000  0.4442690000000 1.0
C      1  0.5539520000000  0.4796240000000  0.3899070000000 1.0
C      1  0.5100200000000  0.5763370000000  0.5489820000000 1.0
C      1  0.4794750000000  0.4387000000000  0.5445170000000 1.0
C      1  0.4905550000000  0.4391470000000  0.5919620000000 1.0
C      1  0.5130110000000  0.4900460000000  0.5280760000000 1.0
C      1  0.3972420000000  0.4451220000000  0.4814130000000 1.0
C      1  0.4645210000000  0.4632740000000  0.4099000000000 1.0
C      1  0.5918110000000  0.4691750000000  0.5180350000000 1.0
C      1  0.5819040000000  0.5616140000000  0.4552460000000 1.0
C      1  0.5198220000000  0.5561600000000  0.4016500000000 1.0
C      1  0.5592520000000  0.4693380000000  0.5705290000000 1.0
C      1  0.5437260000000  0.3972490000000  0.4813840000000 1.0
C      1  0.4438410000000  0.4755330000000  0.4719250000000 1.0
C      1  0.4510650000000  0.5477020000000  0.4679930000000 1.0
C      1  0.5402040000000  0.4633360000000  0.5912840000000 1.0
C      1  0.5069750000000  0.4308760000000  0.4719030000000 1.0
C      1  0.4368680000000  0.4697500000000  0.5221160000000 1.0
C      1  0.5645470000000  0.4200480000000  0.5388790000000 1.0
C      1  0.3995550000000  0.4856380000000  0.4521040000000 1.0
C      1  0.3970880000000  0.5131520000000  0.4457640000000 1.0
C      1  0.4929630000000  0.6036690000000  0.4227660000000 1.0
C      1  0.5617940000000  0.5851450000000  0.4626540000000 1.0
C      1  0.5448790000000  0.4694120000000  0.5393780000000 1.0
C      1  0.5834370000000  0.5235350000000  0.5616020000000 1.0
C      1  0.4876530000000  0.5098910000000  0.4522010000000 1.0
C      1  0.4234710000000  0.5429900000000  0.5018450000000 1.0
C      1  0.5448410000000  0.5436670000000  0.5063100000000 1.0
C      1  0.5451370000000  0.5945030000000  0.5083280000000 1.0
C      1  0.5289210000000  0.4902590000000  0.4096610000000 1.0
C      1  0.5792340000000  0.4862240000000  0.4345450000000 1.0
C      1  0.4491440000000  0.5531300000000  0.5072630000000 1.0
C      1  0.5562080000000  0.5091110000000  0.5712470000000 1.0
C      1  0.4224340000000  0.4520360000000  0.4596200000000 1.0
C      1  0.4014810000000  0.5361060000000  0.5560680000000 1.0
C      1  0.4696230000000  0.5336850000000  0.4928970000000 1.0
C      1  0.4161190000000  0.4879420000000  0.5022390000000 1.0
C      1  0.6053370000000  0.5165560000000  0.5023960000000 1.0
C      1  0.4447100000000  0.5009770000000  0.5161210000000 1.0
C      1  0.3890490000000  0.4609060000000  0.5458010000000 1.0
C      1  0.4850920000000  0.5914560000000  0.5620390000000 1.0
C      1  0.5393030000000  0.5912640000000  0.5529370000000 1.0
END
