TITL C-2778422-5617-158 0.557318281928072 125000 -224.890197423897 0 0 40 (C1) n - 1
REM
REM in /home/nfs/bkarasulu/CARBON/AIRSS/Generating-Clusters/REBO/Only-C1/SD-CG/HFTN-CG
REM
REM
REM
REM
REM
REM ./C.cell (11c1c37f851c82e70ff6c80c92926a4b)
REM
REM compiler GCC version 9.2.1 20190827 (Red Hat 9.2.1-1)
REM options -cpp -mtune=generic -march=x86-64 -g -O0 -fpre-include=/usr/include/finclude/math-vector-fortran.h
REM seed 1240644699 -800354608 1483585292 1339040585 -1102067472 -2142911227 1755193592 -672214893 1293904692 951448879 -1742254303 -781317291 1997120745 -745175162 728891507 -993441437 1989423666 1239075008 982229498 1749822575 -1116213445 -896768970 -1381773291 -877189043 1526012747 1919120582 1742498287 -648600229 -1505241776 1401918352 -1286686944 -1540733553 1217625366
REM
CELL 1.54180   50.00000   50.00000   50.00000   90.00000   90.00000   90.00000
LATT -1
SFAC C  
C      1  0.5811810000000  0.5891290000000  0.5445900000000 1.0
C      1  0.5715220000000  0.4824240000000  0.4919910000000 1.0
C      1  0.4943730000000  0.4786320000000  0.4686240000000 1.0
C      1  0.4674330000000  0.5149540000000  0.4477960000000 1.0
C      1  0.4742990000000  0.4596390000000  0.4593190000000 1.0
C      1  0.4725870000000  0.4985630000000  0.5583330000000 1.0
C      1  0.5118030000000  0.4737270000000  0.5256830000000 1.0
C      1  0.4602970000000  0.4762660000000  0.5157030000000 1.0
C      1  0.4793950000000  0.5640470000000  0.5018850000000 1.0
C      1  0.4681490000000  0.4369130000000  0.4757850000000 1.0
C      1  0.4544770000000  0.5100310000000  0.5734110000000 1.0
C      1  0.4314170000000  0.4662110000000  0.5079530000000 1.0
C      1  0.4789710000000  0.4480270000000  0.5124470000000 1.0
C      1  0.4908230000000  0.4870140000000  0.5431500000000 1.0
C      1  0.5556930000000  0.5036830000000  0.4880220000000 1.0
C      1  0.4681920000000  0.5349220000000  0.5151240000000 1.0
C      1  0.5330490000000  0.5269550000000  0.4809040000000 1.0
C      1  0.5073880000000  0.4791720000000  0.4935600000000 1.0
C      1  0.4961490000000  0.5505190000000  0.4599480000000 1.0
C      1  0.5260040000000  0.5034390000000  0.5030150000000 1.0
C      1  0.5642910000000  0.5780210000000  0.5279120000000 1.0
C      1  0.5631430000000  0.4624190000000  0.5099490000000 1.0
C      1  0.4928680000000  0.5257970000000  0.5335910000000 1.0
C      1  0.5250060000000  0.4460410000000  0.5411190000000 1.0
C      1  0.4917370000000  0.4245340000000  0.4895930000000 1.0
C      1  0.5032690000000  0.5648290000000  0.4850150000000 1.0
C      1  0.5095330000000  0.4349360000000  0.5144030000000 1.0
C      1  0.4944500000000  0.5039080000000  0.4541340000000 1.0
C      1  0.5449770000000  0.4722980000000  0.5332020000000 1.0
C      1  0.5471290000000  0.5667320000000  0.5109640000000 1.0
C      1  0.4566280000000  0.5479970000000  0.4859000000000 1.0
C      1  0.4546590000000  0.4693190000000  0.4411360000000 1.0
C      1  0.5148830000000  0.5154780000000  0.5286580000000 1.0
C      1  0.4672750000000  0.5421210000000  0.4592380000000 1.0
C      1  0.5293910000000  0.5550660000000  0.4934490000000 1.0
C      1  0.5433510000000  0.4384680000000  0.5129770000000 1.0
C      1  0.4491140000000  0.4960690000000  0.4377630000000 1.0
C      1  0.4645070000000  0.5027390000000  0.5174690000000 1.0
C      1  0.4481300000000  0.4429000000000  0.4979370000000 1.0
C      1  0.5124580000000  0.5260600000000  0.4583490000000 1.0
END
