TITL C-2778423-5760-333 0.000196965787944556 125000 -878.721775429102 0 0 153 (C1) n - 1
REM
REM in /home/nfs/bkarasulu/CARBON/AIRSS/Generating-Clusters/REBO/Only-C1/SD-CG/HFTN-CG
REM
REM
REM
REM
REM
REM ./C.cell (11c1c37f851c82e70ff6c80c92926a4b)
REM
REM compiler GCC version 9.2.1 20190827 (Red Hat 9.2.1-1)
REM options -cpp -mtune=generic -march=x86-64 -g -O0 -fpre-include=/usr/include/finclude/math-vector-fortran.h
REM seed 93779582 1429634257 1980453991 -1614820754 798824925 -716342503 -1372467488 1560070871 711935746 -233668880 1179928864 -858472160 -1650223667 2045594384 -1326639977 1402463668 1491491576 -910855184 376767201 -472501914 125504936 737571167 1869476706 -232516415 434088664 1374511041 1297048619 1928290384 -1211639984 1455578201 1492722822 1974021677 1436638353
REM
CELL 1.54180   50.00000   50.00000   50.00000   90.00000   90.00000   90.00000
LATT -1
SFAC C  
C      1  0.4404140000000  0.4420800000000  0.4362980000000 1.0
C      1  0.4479810000000  0.5557440000000  0.4274010000000 1.0
C      1  0.5275530000000  0.4820890000000  0.4129120000000 1.0
C      1  0.4808800000000  0.5703400000000  0.4705090000000 1.0
C      1  0.4485830000000  0.5691040000000  0.5216350000000 1.0
C      1  0.4934210000000  0.5947810000000  0.4676090000000 1.0
C      1  0.4965570000000  0.4603110000000  0.4995120000000 1.0
C      1  0.5081840000000  0.5771440000000  0.5491980000000 1.0
C      1  0.5497810000000  0.5236640000000  0.5487870000000 1.0
C      1  0.5556650000000  0.5566120000000  0.5110750000000 1.0
C      1  0.5432360000000  0.4559650000000  0.5720170000000 1.0
C      1  0.5578170000000  0.4322240000000  0.5108390000000 1.0
C      1  0.5010050000000  0.5643340000000  0.4293980000000 1.0
C      1  0.5773770000000  0.4818450000000  0.4154650000000 1.0
C      1  0.4486230000000  0.5733960000000  0.4727000000000 1.0
C      1  0.4447310000000  0.5191150000000  0.5504010000000 1.0
C      1  0.4344210000000  0.5068070000000  0.4746900000000 1.0
C      1  0.5140770000000  0.4973490000000  0.5827200000000 1.0
C      1  0.5226780000000  0.4675240000000  0.5895600000000 1.0
C      1  0.5443760000000  0.4152950000000  0.4630410000000 1.0
C      1  0.5258830000000  0.5016530000000  0.4406890000000 1.0
C      1  0.5485950000000  0.5722280000000  0.5685840000000 1.0
C      1  0.4674830000000  0.4611610000000  0.4444180000000 1.0
C      1  0.4572870000000  0.4398750000000  0.5613940000000 1.0
C      1  0.5151940000000  0.5270810000000  0.5131560000000 1.0
C      1  0.4774930000000  0.4857700000000  0.5021210000000 1.0
C      1  0.4284390000000  0.4832470000000  0.5564420000000 1.0
C      1  0.4870110000000  0.5097970000000  0.4255650000000 1.0
C      1  0.4763470000000  0.5287830000000  0.5215540000000 1.0
C      1  0.5922780000000  0.4577940000000  0.5082550000000 1.0
C      1  0.4985870000000  0.4945260000000  0.6213990000000 1.0
C      1  0.5469720000000  0.5282030000000  0.5179040000000 1.0
C      1  0.5210830000000  0.4679020000000  0.4498890000000 1.0
C      1  0.5254950000000  0.5336620000000  0.4367180000000 1.0
C      1  0.5299330000000  0.4305840000000  0.5564150000000 1.0
C      1  0.4736920000000  0.3948990000000  0.4842100000000 1.0
C      1  0.4337890000000  0.4398020000000  0.4688250000000 1.0
C      1  0.4462080000000  0.3938370000000  0.4805250000000 1.0
C      1  0.5584520000000  0.4392800000000  0.4565690000000 1.0
C      1  0.5555070000000  0.4645980000000  0.4139510000000 1.0
C      1  0.4505420000000  0.4329180000000  0.5110480000000 1.0
C      1  0.4096000000000  0.4503150000000  0.5252030000000 1.0
C      1  0.5180200000000  0.4883240000000  0.5430800000000 1.0
C      1  0.4707160000000  0.4556560000000  0.5849460000000 1.0
C      1  0.4222750000000  0.4812130000000  0.4925750000000 1.0
C      1  0.5029760000000  0.5136340000000  0.4630940000000 1.0
C      1  0.4352040000000  0.5655400000000  0.4968690000000 1.0
C      1  0.4130890000000  0.5479710000000  0.4966720000000 1.0
C      1  0.5224200000000  0.5322490000000  0.4001510000000 1.0
C      1  0.4439980000000  0.4648540000000  0.5083910000000 1.0
C      1  0.5823720000000  0.5451200000000  0.4790620000000 1.0
C      1  0.5270980000000  0.5489550000000  0.5455570000000 1.0
C      1  0.4971780000000  0.5168770000000  0.3975000000000 1.0
C      1  0.4491160000000  0.5349880000000  0.4617860000000 1.0
C      1  0.5639630000000  0.5786670000000  0.4464190000000 1.0
C      1  0.4863350000000  0.4513900000000  0.4168620000000 1.0
C      1  0.4179650000000  0.5410980000000  0.4576020000000 1.0
C      1  0.4702560000000  0.5420590000000  0.4846530000000 1.0
C      1  0.4781020000000  0.4038570000000  0.5149720000000 1.0
C      1  0.4757310000000  0.5582150000000  0.5627360000000 1.0
C      1  0.4752170000000  0.3938150000000  0.5443980000000 1.0
C      1  0.5330460000000  0.5223710000000  0.5880080000000 1.0
C      1  0.4655620000000  0.4281910000000  0.4223400000000 1.0
C      1  0.5161780000000  0.5609900000000  0.4090800000000 1.0
C      1  0.5445050000000  0.4951270000000  0.5556250000000 1.0
C      1  0.4929150000000  0.5441890000000  0.4522410000000 1.0
C      1  0.4843870000000  0.4905000000000  0.3907870000000 1.0
C      1  0.5779270000000  0.5314780000000  0.5646110000000 1.0
C      1  0.4793680000000  0.4323040000000  0.4960550000000 1.0
C      1  0.4028320000000  0.4987380000000  0.5133190000000 1.0
C      1  0.5480980000000  0.5908340000000  0.4675720000000 1.0
C      1  0.5004320000000  0.4250010000000  0.5289610000000 1.0
C      1  0.5763120000000  0.5198610000000  0.5091440000000 1.0
C      1  0.4911100000000  0.4827120000000  0.4409210000000 1.0
C      1  0.4271900000000  0.4944680000000  0.4432550000000 1.0
C      1  0.5170450000000  0.4636870000000  0.5201530000000 1.0
C      1  0.5341700000000  0.6004630000000  0.5160470000000 1.0
C      1  0.5452150000000  0.5758380000000  0.5347690000000 1.0
C      1  0.5771500000000  0.5343770000000  0.4281830000000 1.0
C      1  0.4096430000000  0.4610180000000  0.4735230000000 1.0
C      1  0.5290670000000  0.4179410000000  0.5119230000000 1.0
C      1  0.4386260000000  0.5733480000000  0.4460750000000 1.0
C      1  0.5148440000000  0.4238240000000  0.4253680000000 1.0
C      1  0.5073060000000  0.4465180000000  0.4721740000000 1.0
C      1  0.4942950000000  0.5853590000000  0.5236690000000 1.0
C      1  0.4668890000000  0.5905520000000  0.5227970000000 1.0
C      1  0.4029910000000  0.5639790000000  0.4614880000000 1.0
C      1  0.5088860000000  0.4566980000000  0.5516920000000 1.0
C      1  0.4576610000000  0.5459160000000  0.5398540000000 1.0
C      1  0.5343810000000  0.4464470000000  0.4294470000000 1.0
C      1  0.5628890000000  0.4695320000000  0.5475490000000 1.0
C      1  0.3932330000000  0.4675200000000  0.5162670000000 1.0
C      1  0.5882260000000  0.4724850000000  0.5308260000000 1.0
C      1  0.4632210000000  0.5282300000000  0.4342250000000 1.0
C      1  0.5264490000000  0.5731570000000  0.4733150000000 1.0
C      1  0.5525170000000  0.5529980000000  0.4316410000000 1.0
C      1  0.4752340000000  0.4751390000000  0.5311170000000 1.0
C      1  0.4735040000000  0.4442460000000  0.5336080000000 1.0
C      1  0.5208180000000  0.6050000000000  0.5459780000000 1.0
C      1  0.4892360000000  0.5159290000000  0.5705840000000 1.0
C      1  0.5766130000000  0.5057370000000  0.4826350000000 1.0
C      1  0.4294550000000  0.5239820000000  0.5814180000000 1.0
C      1  0.5432420000000  0.4490180000000  0.5327250000000 1.0
C      1  0.5752810000000  0.5609830000000  0.5564540000000 1.0
C      1  0.5907440000000  0.4270190000000  0.5090680000000 1.0
C      1  0.5233070000000  0.4035540000000  0.5424520000000 1.0
C      1  0.4597080000000  0.4847470000000  0.5936240000000 1.0
C      1  0.5635080000000  0.4861230000000  0.5832630000000 1.0
C      1  0.5013120000000  0.4512680000000  0.5974080000000 1.0
C      1  0.4928320000000  0.5535980000000  0.5834560000000 1.0
C      1  0.4806970000000  0.5057140000000  0.6027490000000 1.0
C      1  0.5703250000000  0.5100770000000  0.4147110000000 1.0
C      1  0.5461060000000  0.4695560000000  0.4727330000000 1.0
C      1  0.4898920000000  0.4765350000000  0.5687060000000 1.0
C      1  0.4824990000000  0.5378280000000  0.6032870000000 1.0
C      1  0.5564770000000  0.6026710000000  0.4928030000000 1.0
C      1  0.4478760000000  0.5022230000000  0.4226970000000 1.0
C      1  0.5605120000000  0.5153530000000  0.5862470000000 1.0
C      1  0.4094020000000  0.5217360000000  0.4915340000000 1.0
C      1  0.4552370000000  0.4658400000000  0.4759410000000 1.0
C      1  0.5530640000000  0.5299070000000  0.4784150000000 1.0
C      1  0.5891750000000  0.4866950000000  0.4681580000000 1.0
C      1  0.4079710000000  0.5300990000000  0.5612700000000 1.0
C      1  0.4371490000000  0.4944630000000  0.5808980000000 1.0
C      1  0.4671760000000  0.4969520000000  0.5533080000000 1.0
C      1  0.4148790000000  0.5068400000000  0.5388800000000 1.0
C      1  0.5243400000000  0.4199760000000  0.4812470000000 1.0
C      1  0.5009240000000  0.4705350000000  0.4031650000000 1.0
C      1  0.4343530000000  0.4171690000000  0.4888210000000 1.0
C      1  0.4791110000000  0.4899120000000  0.4698610000000 1.0
C      1  0.4601080000000  0.5121920000000  0.4968920000000 1.0
C      1  0.4369090000000  0.4581660000000  0.5412200000000 1.0
C      1  0.6033690000000  0.5208200000000  0.5604800000000 1.0
C      1  0.5862750000000  0.5555570000000  0.4522100000000 1.0
C      1  0.5369220000000  0.4880600000000  0.4917760000000 1.0
C      1  0.4061680000000  0.5178680000000  0.4486480000000 1.0
C      1  0.5117150000000  0.5773620000000  0.4985620000000 1.0
C      1  0.4959960000000  0.5505900000000  0.5041720000000 1.0
C      1  0.5696530000000  0.4508430000000  0.4849520000000 1.0
C      1  0.5938420000000  0.5454160000000  0.5088330000000 1.0
C      1  0.5004240000000  0.5130520000000  0.5385000000000 1.0
C      1  0.4581860000000  0.4082940000000  0.5604430000000 1.0
C      1  0.4181150000000  0.4659550000000  0.4435290000000 1.0
C      1  0.4880870000000  0.4189190000000  0.4659640000000 1.0
C      1  0.4569930000000  0.4907050000000  0.3997120000000 1.0
C      1  0.5883990000000  0.5667690000000  0.5311030000000 1.0
C      1  0.5429600000000  0.5106560000000  0.4057260000000 1.0
C      1  0.5736690000000  0.5834080000000  0.5078570000000 1.0
C      1  0.5308300000000  0.5469190000000  0.4645300000000 1.0
C      1  0.5000460000000  0.3853900000000  0.5533960000000 1.0
C      1  0.4899760000000  0.4166800000000  0.4360500000000 1.0
C      1  0.5259210000000  0.5142380000000  0.4868990000000 1.0
C      1  0.5236440000000  0.5509490000000  0.5784940000000 1.0
END
