TITL C-2778424-3986-1211 1.08879524774442e-06 125000 -110.540299862773 0 0 21 (C1) n - 1
REM
REM in /home/nfs/bkarasulu/CARBON/AIRSS/Generating-Clusters/REBO/Only-C1/SD-CG/HFTN-CG
REM
REM
REM
REM
REM
REM ./C.cell (11c1c37f851c82e70ff6c80c92926a4b)
REM
REM compiler GCC version 9.2.1 20190827 (Red Hat 9.2.1-1)
REM options -cpp -mtune=generic -march=x86-64 -g -O0 -fpre-include=/usr/include/finclude/math-vector-fortran.h
REM seed -328195527 -283143004 -672983963 1557148673 1936536868 -571845218 -1272724372 -1422725827 1844654089 1573645891 427082231 681334772 -85764704 1366160514 758877879 -1772895894 1556745657 1273142159 2114794581 907561702 529107986 640384877 1416053064 -964672357 -1844724285 -1051336465 1090073655 1997841017 -1734433742 -1238532836 1264611965 -878473312 1286722562
REM
CELL 1.54180   50.00000   50.00000   50.00000   90.00000   90.00000   90.00000
LATT -1
SFAC C  
C      1  0.5620160000000  0.4699500000000  0.4995610000000 1.0
C      1  0.4375760000000  0.5563670000000  0.4847980000000 1.0
C      1  0.5082440000000  0.5643770000000  0.4735860000000 1.0
C      1  0.5326900000000  0.4569240000000  0.4756840000000 1.0
C      1  0.5266770000000  0.5137320000000  0.4872530000000 1.0
C      1  0.4894820000000  0.4739410000000  0.5035390000000 1.0
C      1  0.5516710000000  0.4933170000000  0.4905530000000 1.0
C      1  0.4906530000000  0.5457830000000  0.4830140000000 1.0
C      1  0.5821880000000  0.4243820000000  0.5171260000000 1.0
C      1  0.5721830000000  0.4469830000000  0.5084140000000 1.0
C      1  0.4733400000000  0.4556580000000  0.5172040000000 1.0
C      1  0.4411980000000  0.4908210000000  0.5257990000000 1.0
C      1  0.4582070000000  0.4385180000000  0.5300130000000 1.0
C      1  0.5119600000000  0.4652740000000  0.4893710000000 1.0
C      1  0.4826380000000  0.5015730000000  0.5037010000000 1.0
C      1  0.4481980000000  0.5624220000000  0.5231070000000 1.0
C      1  0.5002080000000  0.5203080000000  0.4913500000000 1.0
C      1  0.5558560000000  0.5218390000000  0.4756530000000 1.0
C      1  0.4532050000000  0.5369000000000  0.5198870000000 1.0
C      1  0.4632630000000  0.5512450000000  0.4839350000000 1.0
C      1  0.4585450000000  0.5096850000000  0.5164540000000 1.0
END
