TITL C-2778427-5640-1183 0.0224911410084457 125000 -378.657082273948 0 0 65 (C1) n - 1
REM
REM in /home/nfs/bkarasulu/CARBON/AIRSS/Generating-Clusters/REBO/Only-C1/SD-CG/HFTN-CG
REM
REM
REM
REM
REM
REM ./C.cell (11c1c37f851c82e70ff6c80c92926a4b)
REM
REM compiler GCC version 9.2.1 20190827 (Red Hat 9.2.1-1)
REM options -cpp -mtune=generic -march=x86-64 -g -O0 -fpre-include=/usr/include/finclude/math-vector-fortran.h
REM seed 329719002 -1357571025 1692802949 -1592914985 -135655829 -698107251 -1867563000 1735589801 -1195009655 666747673 -1470715131 -1709516325 857384498 -989853486 117304589 -1238892724 -1490162108 781754073 -1101192131 -2032800736 -98941544 1333153176 270768315 1949529214 -1861754925 -880033058 1589682749 1936968262 -1539808016 1124042737 1268402768 352124550 623799473
REM
CELL 1.54180   50.00000   50.00000   50.00000   90.00000   90.00000   90.00000
LATT -1
SFAC C  
C      1  0.5225650000000  0.5007950000000  0.5487060000000 1.0
C      1  0.4789040000000  0.4397060000000  0.5302830000000 1.0
C      1  0.4786080000000  0.5299820000000  0.5645740000000 1.0
C      1  0.4830520000000  0.5229950000000  0.5092280000000 1.0
C      1  0.5222000000000  0.4632140000000  0.4548250000000 1.0
C      1  0.5482520000000  0.4384180000000  0.5070680000000 1.0
C      1  0.5134250000000  0.5665470000000  0.4995750000000 1.0
C      1  0.4392030000000  0.4910020000000  0.4661120000000 1.0
C      1  0.4714890000000  0.5281690000000  0.4675180000000 1.0
C      1  0.5404820000000  0.5078670000000  0.5289930000000 1.0
C      1  0.4819390000000  0.5302870000000  0.4363300000000 1.0
C      1  0.5024120000000  0.5087310000000  0.4196760000000 1.0
C      1  0.4155020000000  0.4964800000000  0.4541990000000 1.0
C      1  0.4920970000000  0.4451220000000  0.5015760000000 1.0
C      1  0.5726510000000  0.4878940000000  0.5003970000000 1.0
C      1  0.4562530000000  0.5229880000000  0.5575060000000 1.0
C      1  0.5881070000000  0.5096630000000  0.4940540000000 1.0
C      1  0.5139240000000  0.5388240000000  0.4318180000000 1.0
C      1  0.5492410000000  0.4432460000000  0.5349160000000 1.0
C      1  0.4725070000000  0.4586980000000  0.4697020000000 1.0
C      1  0.5001750000000  0.5096630000000  0.4722550000000 1.0
C      1  0.5213260000000  0.4278820000000  0.4991830000000 1.0
C      1  0.4255910000000  0.4730220000000  0.5402220000000 1.0
C      1  0.4546270000000  0.4261430000000  0.5336650000000 1.0
C      1  0.5597210000000  0.4980960000000  0.4554630000000 1.0
C      1  0.5439900000000  0.5597120000000  0.4631940000000 1.0
C      1  0.5459420000000  0.5361910000000  0.5295730000000 1.0
C      1  0.5198670000000  0.5627370000000  0.4490690000000 1.0
C      1  0.4813290000000  0.5533030000000  0.5188080000000 1.0
C      1  0.5249700000000  0.5477370000000  0.5465460000000 1.0
C      1  0.5743240000000  0.5331350000000  0.4871090000000 1.0
C      1  0.5478380000000  0.4747780000000  0.4704210000000 1.0
C      1  0.5203110000000  0.4858140000000  0.4362260000000 1.0
C      1  0.4547420000000  0.4402790000000  0.4814790000000 1.0
C      1  0.5364360000000  0.5158400000000  0.4389320000000 1.0
C      1  0.4336210000000  0.5148930000000  0.5124740000000 1.0
C      1  0.4994060000000  0.5749440000000  0.4626950000000 1.0
C      1  0.4709840000000  0.4945200000000  0.5813740000000 1.0
C      1  0.4918760000000  0.4751570000000  0.4904930000000 1.0
C      1  0.5610650000000  0.4522620000000  0.4873040000000 1.0
C      1  0.5090930000000  0.4441550000000  0.4718130000000 1.0
C      1  0.4811180000000  0.4649550000000  0.5470800000000 1.0
C      1  0.4603510000000  0.5474430000000  0.4853700000000 1.0
C      1  0.5103280000000  0.4732450000000  0.5583920000000 1.0
C      1  0.4809580000000  0.5708940000000  0.4894740000000 1.0
C      1  0.5031020000000  0.5376090000000  0.4895720000000 1.0
C      1  0.5323360000000  0.4521300000000  0.5541690000000 1.0
C      1  0.5419850000000  0.5660800000000  0.4908750000000 1.0
C      1  0.5584920000000  0.5482460000000  0.5061230000000 1.0
C      1  0.4618290000000  0.4789080000000  0.4529620000000 1.0
C      1  0.5105310000000  0.5262810000000  0.5649450000000 1.0
C      1  0.5592030000000  0.5319500000000  0.4587520000000 1.0
C      1  0.4458230000000  0.4972280000000  0.4933130000000 1.0
C      1  0.4831960000000  0.4974700000000  0.4453560000000 1.0
C      1  0.5073510000000  0.5640660000000  0.5320970000000 1.0
C      1  0.5051860000000  0.4183110000000  0.5273030000000 1.0
C      1  0.4261720000000  0.4522150000000  0.5231620000000 1.0
C      1  0.5205840000000  0.4876930000000  0.4861860000000 1.0
C      1  0.4738150000000  0.4975490000000  0.5005550000000 1.0
C      1  0.4602460000000  0.4832260000000  0.5569770000000 1.0
C      1  0.4395870000000  0.5416860000000  0.5042950000000 1.0
C      1  0.4377780000000  0.5029080000000  0.5404830000000 1.0
C      1  0.4361070000000  0.4401290000000  0.5011500000000 1.0
C      1  0.4986110000000  0.4976290000000  0.5793450000000 1.0
C      1  0.5452630000000  0.4912540000000  0.5067110000000 1.0
END
