TITL C-2778427-5640-824 0.000361223250335026 125000 -499.113329327356 0 0 86 (C1) n - 1
REM
REM in /home/nfs/bkarasulu/CARBON/AIRSS/Generating-Clusters/REBO/Only-C1/SD-CG/HFTN-CG
REM
REM
REM
REM
REM
REM ./C.cell (11c1c37f851c82e70ff6c80c92926a4b)
REM
REM compiler GCC version 9.2.1 20190827 (Red Hat 9.2.1-1)
REM options -cpp -mtune=generic -march=x86-64 -g -O0 -fpre-include=/usr/include/finclude/math-vector-fortran.h
REM seed 2107206420 1993462655 -1855257701 250218817 -767589672 1530827156 513578969 1566834783 -1138731653 -1674696120 72752962 1523694331 -1739809198 1805036926 707579970 2141284079 2081449323 976249697 -195684684 984828222 309726373 51615684 -1726066065 -626654570 1811032989 493510454 2008819907 344036994 1975220513 -567966158 -1252678227 -795853950 813433495
REM
CELL 1.54180   50.00000   50.00000   50.00000   90.00000   90.00000   90.00000
LATT -1
SFAC C  
C      1  0.5304900000000  0.5703000000000  0.5031370000000 1.0
C      1  0.5632510000000  0.4575450000000  0.5318270000000 1.0
C      1  0.4092910000000  0.5361500000000  0.4669760000000 1.0
C      1  0.4949270000000  0.4347710000000  0.4633670000000 1.0
C      1  0.4455510000000  0.5048740000000  0.5128320000000 1.0
C      1  0.4238590000000  0.5506250000000  0.5185930000000 1.0
C      1  0.4661540000000  0.4446490000000  0.5561890000000 1.0
C      1  0.5398770000000  0.5494390000000  0.5497740000000 1.0
C      1  0.4594850000000  0.5736370000000  0.4756580000000 1.0
C      1  0.4887970000000  0.4570510000000  0.4397850000000 1.0
C      1  0.4502520000000  0.4501440000000  0.5272810000000 1.0
C      1  0.4452090000000  0.5254560000000  0.4301600000000 1.0
C      1  0.5117070000000  0.4684510000000  0.5610930000000 1.0
C      1  0.5546140000000  0.4884820000000  0.5083490000000 1.0
C      1  0.5545510000000  0.4636110000000  0.4415060000000 1.0
C      1  0.4818660000000  0.5552720000000  0.5226640000000 1.0
C      1  0.5750560000000  0.4858260000000  0.4531860000000 1.0
C      1  0.5313040000000  0.4749810000000  0.4270580000000 1.0
C      1  0.4950090000000  0.4568440000000  0.4063700000000 1.0
C      1  0.5180450000000  0.4766070000000  0.4746490000000 1.0
C      1  0.5778470000000  0.4677850000000  0.5026260000000 1.0
C      1  0.5366390000000  0.4982840000000  0.4849030000000 1.0
C      1  0.5151250000000  0.5337170000000  0.4620110000000 1.0
C      1  0.4581840000000  0.5533760000000  0.5569350000000 1.0
C      1  0.5007560000000  0.5718830000000  0.5433610000000 1.0
C      1  0.4570160000000  0.5113790000000  0.5427730000000 1.0
C      1  0.4216720000000  0.4928690000000  0.5422800000000 1.0
C      1  0.5646180000000  0.5125770000000  0.5235810000000 1.0
C      1  0.4232880000000  0.5318170000000  0.4443910000000 1.0
C      1  0.4467920000000  0.4268230000000  0.4726320000000 1.0
C      1  0.4700910000000  0.5134500000000  0.4926900000000 1.0
C      1  0.5601230000000  0.5556570000000  0.4999420000000 1.0
C      1  0.5559500000000  0.5077870000000  0.4623870000000 1.0
C      1  0.5287800000000  0.5182770000000  0.5410570000000 1.0
C      1  0.5441840000000  0.5301710000000  0.4506010000000 1.0
C      1  0.4860230000000  0.5549880000000  0.5623730000000 1.0
C      1  0.5067490000000  0.4837610000000  0.4469420000000 1.0
C      1  0.4792910000000  0.5550540000000  0.4668580000000 1.0
C      1  0.4413050000000  0.4662170000000  0.4768360000000 1.0
C      1  0.4994070000000  0.5265880000000  0.5681350000000 1.0
C      1  0.5417220000000  0.5333440000000  0.5133570000000 1.0
C      1  0.4971080000000  0.5783650000000  0.5041650000000 1.0
C      1  0.5858890000000  0.5456780000000  0.4973820000000 1.0
C      1  0.5442020000000  0.4644870000000  0.5513680000000 1.0
C      1  0.4500030000000  0.4789350000000  0.5437270000000 1.0
C      1  0.4751620000000  0.5266030000000  0.4661540000000 1.0
C      1  0.5124750000000  0.4979300000000  0.5780510000000 1.0
C      1  0.4960100000000  0.5115870000000  0.4463870000000 1.0
C      1  0.5094450000000  0.5623460000000  0.4774750000000 1.0
C      1  0.4522040000000  0.4739340000000  0.5041500000000 1.0
C      1  0.4936670000000  0.4438300000000  0.5524630000000 1.0
C      1  0.5992040000000  0.4931200000000  0.4419780000000 1.0
C      1  0.5469790000000  0.4418840000000  0.4646950000000 1.0
C      1  0.5905090000000  0.5188520000000  0.5081310000000 1.0
C      1  0.5272580000000  0.5699740000000  0.5356500000000 1.0
C      1  0.5209800000000  0.4476250000000  0.4744460000000 1.0
C      1  0.4682820000000  0.4411110000000  0.4178290000000 1.0
C      1  0.6001630000000  0.4928620000000  0.5028350000000 1.0
C      1  0.4774320000000  0.4116100000000  0.4243580000000 1.0
C      1  0.4172800000000  0.5175210000000  0.5194350000000 1.0
C      1  0.4989780000000  0.4366560000000  0.5252580000000 1.0
C      1  0.5290650000000  0.4740150000000  0.5157230000000 1.0
C      1  0.4816830000000  0.4885600000000  0.5129600000000 1.0
C      1  0.4838800000000  0.4820300000000  0.5463360000000 1.0
C      1  0.4350470000000  0.4590030000000  0.4519900000000 1.0
C      1  0.5107940000000  0.4935600000000  0.5290930000000 1.0
C      1  0.4709100000000  0.5182570000000  0.4273520000000 1.0
C      1  0.4747630000000  0.4364730000000  0.5101770000000 1.0
C      1  0.5726170000000  0.4595940000000  0.4736060000000 1.0
C      1  0.4718430000000  0.4326500000000  0.4831190000000 1.0
C      1  0.4075920000000  0.5371940000000  0.4942880000000 1.0
C      1  0.5182320000000  0.5247870000000  0.4946390000000 1.0
C      1  0.5203160000000  0.4663880000000  0.4029440000000 1.0
C      1  0.5635810000000  0.5387190000000  0.5629100000000 1.0
C      1  0.4494600000000  0.5635660000000  0.5265040000000 1.0
C      1  0.4854510000000  0.5214560000000  0.5405860000000 1.0
C      1  0.5661500000000  0.5125670000000  0.5539180000000 1.0
C      1  0.4570630000000  0.5165150000000  0.5915260000000 1.0
C      1  0.4633260000000  0.5830180000000  0.5021070000000 1.0
C      1  0.4924960000000  0.5269120000000  0.5100970000000 1.0
C      1  0.5223040000000  0.4479990000000  0.5143480000000 1.0
C      1  0.4838060000000  0.5102240000000  0.5917780000000 1.0
C      1  0.4467580000000  0.5278340000000  0.5668670000000 1.0
C      1  0.4401500000000  0.4492120000000  0.4272630000000 1.0
C      1  0.5415600000000  0.4946350000000  0.5624250000000 1.0
C      1  0.4930680000000  0.4094040000000  0.4443820000000 1.0
END
