TITL C-2778432-5617-1028 0.00700128572312036 125000 -549.26554917704 0 0 94 (C1) n - 1
REM
REM in /home/nfs/bkarasulu/CARBON/AIRSS/Generating-Clusters/REBO/Only-C1/SD-CG/HFTN-CG
REM
REM
REM
REM
REM
REM ./C.cell (11c1c37f851c82e70ff6c80c92926a4b)
REM
REM compiler GCC version 9.2.1 20190827 (Red Hat 9.2.1-1)
REM options -cpp -mtune=generic -march=x86-64 -g -O0 -fpre-include=/usr/include/finclude/math-vector-fortran.h
REM seed -1546550366 1463792525 -944250940 1240835772 1345681727 -1875111041 40871227 -12050614 -1270038419 -1268672784 1380423806 -1800110009 -266500378 1998442849 782545292 233794766 -1802060532 -867064346 952747438 1880349111 -1714945292 -1836004090 -1820038294 -579951027 2141640944 -1174303309 233933038 -350045029 538277066 -183525371 -2082841104 331041930 -2145264092
REM
CELL 1.54180   50.00000   50.00000   50.00000   90.00000   90.00000   90.00000
LATT -1
SFAC C  
C      1  0.4834270000000  0.5144860000000  0.5541900000000 1.0
C      1  0.4486510000000  0.4741770000000  0.4518180000000 1.0
C      1  0.5597750000000  0.4878270000000  0.5154050000000 1.0
C      1  0.5008370000000  0.4466950000000  0.5748330000000 1.0
C      1  0.5421000000000  0.4759520000000  0.4878580000000 1.0
C      1  0.5591920000000  0.5020980000000  0.4781820000000 1.0
C      1  0.5598520000000  0.4577350000000  0.4433780000000 1.0
C      1  0.5337160000000  0.4445490000000  0.5383150000000 1.0
C      1  0.4264570000000  0.5580890000000  0.5185470000000 1.0
C      1  0.5360350000000  0.5517270000000  0.4758390000000 1.0
C      1  0.5445520000000  0.4515920000000  0.4692660000000 1.0
C      1  0.5843410000000  0.5256040000000  0.4425970000000 1.0
C      1  0.5389430000000  0.5215290000000  0.5206400000000 1.0
C      1  0.4768020000000  0.4367350000000  0.4915100000000 1.0
C      1  0.5835500000000  0.4142250000000  0.6179940000000 1.0
C      1  0.4952760000000  0.4171230000000  0.5205780000000 1.0
C      1  0.4511650000000  0.4410120000000  0.4496620000000 1.0
C      1  0.4731460000000  0.4817470000000  0.4696400000000 1.0
C      1  0.5339380000000  0.5659740000000  0.4249990000000 1.0
C      1  0.4988560000000  0.4827240000000  0.5308820000000 1.0
C      1  0.4777110000000  0.4758230000000  0.5457020000000 1.0
C      1  0.4230770000000  0.4890520000000  0.4580740000000 1.0
C      1  0.4832460000000  0.5734940000000  0.4995120000000 1.0
C      1  0.5581120000000  0.5331980000000  0.4865660000000 1.0
C      1  0.5354650000000  0.4256580000000  0.4884190000000 1.0
C      1  0.5250480000000  0.5441590000000  0.4117570000000 1.0
C      1  0.5473230000000  0.5830380000000  0.4798670000000 1.0
C      1  0.5706610000000  0.4959320000000  0.4403640000000 1.0
C      1  0.5118040000000  0.4747510000000  0.5026530000000 1.0
C      1  0.5226550000000  0.5132060000000  0.5012010000000 1.0
C      1  0.4266940000000  0.4710600000000  0.5757750000000 1.0
C      1  0.4723660000000  0.4995520000000  0.4134930000000 1.0
C      1  0.5467230000000  0.4316530000000  0.5843500000000 1.0
C      1  0.4701090000000  0.4880930000000  0.5990200000000 1.0
C      1  0.4097670000000  0.5102150000000  0.4985550000000 1.0
C      1  0.4190960000000  0.5282340000000  0.5214880000000 1.0
C      1  0.5079130000000  0.5523340000000  0.4894050000000 1.0
C      1  0.4797180000000  0.5279060000000  0.5228530000000 1.0
C      1  0.5896190000000  0.4869490000000  0.4742580000000 1.0
C      1  0.4636970000000  0.4753440000000  0.6210010000000 1.0
C      1  0.5652840000000  0.4228690000000  0.6013070000000 1.0
C      1  0.4212920000000  0.5364370000000  0.4564080000000 1.0
C      1  0.5470310000000  0.4708100000000  0.4201080000000 1.0
C      1  0.5954220000000  0.5120480000000  0.4910910000000 1.0
C      1  0.4379690000000  0.5544830000000  0.4449330000000 1.0
C      1  0.4506940000000  0.4587760000000  0.5799540000000 1.0
C      1  0.5156400000000  0.4369470000000  0.4624060000000 1.0
C      1  0.5363210000000  0.4705420000000  0.5264370000000 1.0
C      1  0.5126080000000  0.5631340000000  0.5429810000000 1.0
C      1  0.4108670000000  0.4902100000000  0.5647430000000 1.0
C      1  0.4419990000000  0.5541200000000  0.5740600000000 1.0
C      1  0.4601620000000  0.4764640000000  0.4205100000000 1.0
C      1  0.4499770000000  0.4852810000000  0.5359440000000 1.0
C      1  0.4766250000000  0.5010470000000  0.5766830000000 1.0
C      1  0.4325740000000  0.5716010000000  0.4941320000000 1.0
C      1  0.5401580000000  0.5733790000000  0.4505980000000 1.0
C      1  0.5875810000000  0.4696670000000  0.4497770000000 1.0
C      1  0.4347230000000  0.5343950000000  0.5577870000000 1.0
C      1  0.4154410000000  0.5130940000000  0.4709260000000 1.0
C      1  0.5432680000000  0.4991510000000  0.4116390000000 1.0
C      1  0.4499240000000  0.4509800000000  0.5312990000000 1.0
C      1  0.5140120000000  0.5746970000000  0.5143490000000 1.0
C      1  0.4748190000000  0.4514700000000  0.4322630000000 1.0
C      1  0.5025870000000  0.4177500000000  0.4871840000000 1.0
C      1  0.4955960000000  0.5082280000000  0.4314250000000 1.0
C      1  0.5272710000000  0.4408590000000  0.5665800000000 1.0
C      1  0.4922850000000  0.5243840000000  0.4942420000000 1.0
C      1  0.5644640000000  0.5412830000000  0.5188970000000 1.0
C      1  0.4724400000000  0.5593090000000  0.5258950000000 1.0
C      1  0.4249690000000  0.4686500000000  0.5223780000000 1.0
C      1  0.4478920000000  0.5652540000000  0.5361090000000 1.0
C      1  0.4863960000000  0.4656230000000  0.4864210000000 1.0
C      1  0.5780160000000  0.5828560000000  0.5437180000000 1.0
C      1  0.4543090000000  0.4274840000000  0.4727490000000 1.0
C      1  0.4867690000000  0.5086270000000  0.4644550000000 1.0
C      1  0.5112670000000  0.4832160000000  0.4457980000000 1.0
C      1  0.5418440000000  0.4940680000000  0.4520160000000 1.0
C      1  0.5706750000000  0.5155790000000  0.4136360000000 1.0
C      1  0.5868670000000  0.5333930000000  0.4694920000000 1.0
C      1  0.4574900000000  0.5715900000000  0.4539830000000 1.0
C      1  0.5003390000000  0.4551980000000  0.4444480000000 1.0
C      1  0.4103050000000  0.5149660000000  0.5517320000000 1.0
C      1  0.5206730000000  0.5166600000000  0.4150450000000 1.0
C      1  0.4065450000000  0.4831920000000  0.5075460000000 1.0
C      1  0.5183840000000  0.5039700000000  0.4722530000000 1.0
C      1  0.5768440000000  0.5108250000000  0.5138360000000 1.0
C      1  0.5427120000000  0.5841250000000  0.5085290000000 1.0
C      1  0.4582930000000  0.5767800000000  0.4817530000000 1.0
C      1  0.4465220000000  0.5141860000000  0.5355020000000 1.0
C      1  0.4995650000000  0.5405400000000  0.5482130000000 1.0
C      1  0.5624140000000  0.5705270000000  0.5246020000000 1.0
C      1  0.5247960000000  0.4248900000000  0.5194710000000 1.0
C      1  0.4766670000000  0.4595470000000  0.5685180000000 1.0
C      1  0.4689940000000  0.4335910000000  0.5227920000000 1.0
END
