TITL C-2778431-5191-518 0.482582960646228 125000 -845.910068235855 0 0 145 (C1) n - 1
REM
REM in /home/nfs/bkarasulu/CARBON/AIRSS/Generating-Clusters/REBO/Only-C1/SD-CG/HFTN-CG
REM
REM
REM
REM
REM
REM ./C.cell (11c1c37f851c82e70ff6c80c92926a4b)
REM
REM compiler GCC version 9.2.1 20190827 (Red Hat 9.2.1-1)
REM options -cpp -mtune=generic -march=x86-64 -g -O0 -fpre-include=/usr/include/finclude/math-vector-fortran.h
REM seed 1298621733 1203926508 -531967865 1212436691 -1100858022 -1530122123 -1671391428 -85650540 1632122938 -632218593 1500794085 1206600711 -728684029 2002983827 -2010960187 -4280315 556020443 639202669 1590576075 -1790963892 -542614840 -866724248 -238526657 -722613426 2101843257 327680920 -268498838 -1925629515 1858700815 823586476 -371581254 2011229672 -1118139220
REM
CELL 1.54180   50.00000   50.00000   50.00000   90.00000   90.00000   90.00000
LATT -1
SFAC C  
C      1  0.5070120000000  0.4764880000000  0.4862380000000 1.0
C      1  0.4134510000000  0.5277940000000  0.5318130000000 1.0
C      1  0.4990710000000  0.5729600000000  0.5356290000000 1.0
C      1  0.5051350000000  0.5012210000000  0.5413530000000 1.0
C      1  0.5052740000000  0.5445970000000  0.5533550000000 1.0
C      1  0.5374640000000  0.4695310000000  0.5636010000000 1.0
C      1  0.5588250000000  0.4831180000000  0.4711380000000 1.0
C      1  0.5258900000000  0.4152140000000  0.5258490000000 1.0
C      1  0.4880810000000  0.5508690000000  0.5128460000000 1.0
C      1  0.4385200000000  0.5048020000000  0.5649020000000 1.0
C      1  0.4154860000000  0.4981360000000  0.5217870000000 1.0
C      1  0.4079320000000  0.4746910000000  0.4774520000000 1.0
C      1  0.4422070000000  0.5530190000000  0.5614800000000 1.0
C      1  0.4590920000000  0.4502250000000  0.4262290000000 1.0
C      1  0.4458190000000  0.5688670000000  0.4455560000000 1.0
C      1  0.5841770000000  0.4555180000000  0.4575220000000 1.0
C      1  0.5191660000000  0.4912970000000  0.5658730000000 1.0
C      1  0.5123340000000  0.5577760000000  0.6238560000000 1.0
C      1  0.5695050000000  0.4408750000000  0.5201330000000 1.0
C      1  0.5126590000000  0.5481180000000  0.4908240000000 1.0
C      1  0.5323090000000  0.5295090000000  0.5072970000000 1.0
C      1  0.4797490000000  0.4884950000000  0.5248670000000 1.0
C      1  0.5503980000000  0.5625240000000  0.4640280000000 1.0
C      1  0.4324540000000  0.5114580000000  0.4239070000000 1.0
C      1  0.4874900000000  0.4861570000000  0.4528170000000 1.0
C      1  0.4819630000000  0.4382220000000  0.5363390000000 1.0
C      1  0.5480310000000  0.5742290000000  0.5223310000000 1.0
C      1  0.5226990000000  0.5092540000000  0.5866520000000 1.0
C      1  0.4974990000000  0.5638530000000  0.4578480000000 1.0
C      1  0.4154130000000  0.5332360000000  0.4836980000000 1.0
C      1  0.5286100000000  0.4429520000000  0.5672990000000 1.0
C      1  0.6130650000000  0.5194560000000  0.5058140000000 1.0
C      1  0.5721190000000  0.4662740000000  0.4287600000000 1.0
C      1  0.5899740000000  0.5612970000000  0.4936120000000 1.0
C      1  0.5944170000000  0.4872750000000  0.4539780000000 1.0
C      1  0.5526130000000  0.5460760000000  0.5722330000000 1.0
C      1  0.5502100000000  0.4538760000000  0.4597090000000 1.0
C      1  0.5136810000000  0.5967730000000  0.4748210000000 1.0
C      1  0.5103400000000  0.4552220000000  0.4213200000000 1.0
C      1  0.5605150000000  0.5557690000000  0.5458460000000 1.0
C      1  0.4525210000000  0.5036670000000  0.5355920000000 1.0
C      1  0.5328010000000  0.5818430000000  0.4528740000000 1.0
C      1  0.5035460000000  0.6011530000000  0.5257210000000 1.0
C      1  0.4738160000000  0.4049030000000  0.5396640000000 1.0
C      1  0.5051520000000  0.5411410000000  0.6030810000000 1.0
C      1  0.5208740000000  0.4100790000000  0.4967600000000 1.0
C      1  0.4665210000000  0.5218010000000  0.6239390000000 1.0
C      1  0.5285420000000  0.5506880000000  0.4147030000000 1.0
C      1  0.4591130000000  0.4474620000000  0.4863710000000 1.0
C      1  0.5401490000000  0.4545820000000  0.4284210000000 1.0
C      1  0.4831480000000  0.5897240000000  0.4669600000000 1.0
C      1  0.4296570000000  0.5453520000000  0.4552340000000 1.0
C      1  0.4647780000000  0.5638750000000  0.4235610000000 1.0
C      1  0.4854940000000  0.4663280000000  0.4361620000000 1.0
C      1  0.4902320000000  0.5769560000000  0.4297390000000 1.0
C      1  0.4682030000000  0.4933840000000  0.3976700000000 1.0
C      1  0.4110410000000  0.5315450000000  0.4325970000000 1.0
C      1  0.4368560000000  0.5784290000000  0.5476880000000 1.0
C      1  0.4855220000000  0.4572670000000  0.5978680000000 1.0
C      1  0.4637580000000  0.5518820000000  0.5352060000000 1.0
C      1  0.4426690000000  0.5890580000000  0.4920010000000 1.0
C      1  0.4563340000000  0.5309980000000  0.4961110000000 1.0
C      1  0.5865430000000  0.4639110000000  0.5156000000000 1.0
C      1  0.4432490000000  0.4800250000000  0.5127480000000 1.0
C      1  0.5130510000000  0.5016590000000  0.4641850000000 1.0
C      1  0.4994530000000  0.4808880000000  0.4017580000000 1.0
C      1  0.5137090000000  0.5016090000000  0.5084950000000 1.0
C      1  0.4309300000000  0.5435040000000  0.5100700000000 1.0
C      1  0.5439320000000  0.5065740000000  0.4642710000000 1.0
C      1  0.5248580000000  0.5522910000000  0.5284310000000 1.0
C      1  0.4858940000000  0.5209470000000  0.5027940000000 1.0
C      1  0.5170050000000  0.4162100000000  0.4577920000000 1.0
C      1  0.4787540000000  0.4905840000000  0.4925470000000 1.0
C      1  0.5870800000000  0.4810990000000  0.4866210000000 1.0
C      1  0.5057150000000  0.3937710000000  0.4755930000000 1.0
C      1  0.3843990000000  0.5377090000000  0.5315830000000 1.0
C      1  0.5267530000000  0.4670050000000  0.5252820000000 1.0
C      1  0.4930270000000  0.3543300000000  0.5306580000000 1.0
C      1  0.5873380000000  0.4870130000000  0.5412600000000 1.0
C      1  0.4791340000000  0.5233700000000  0.5470350000000 1.0
C      1  0.5524850000000  0.4763430000000  0.3831340000000 1.0
C      1  0.4764100000000  0.5075870000000  0.5773360000000 1.0
C      1  0.5682410000000  0.4265680000000  0.5439770000000 1.0
C      1  0.5631720000000  0.5211600000000  0.5084860000000 1.0
C      1  0.5002450000000  0.5348550000000  0.4036210000000 1.0
C      1  0.4407920000000  0.5721590000000  0.5169960000000 1.0
C      1  0.4509150000000  0.5247270000000  0.4682080000000 1.0
C      1  0.5352960000000  0.4350870000000  0.4778240000000 1.0
C      1  0.4611790000000  0.4956400000000  0.4649880000000 1.0
C      1  0.5132390000000  0.4253170000000  0.4326610000000 1.0
C      1  0.5453780000000  0.5012330000000  0.3945650000000 1.0
C      1  0.5620880000000  0.5728730000000  0.4918680000000 1.0
C      1  0.5280710000000  0.5752150000000  0.4944640000000 1.0
C      1  0.4664950000000  0.4234590000000  0.4403640000000 1.0
C      1  0.4552220000000  0.5867080000000  0.4666470000000 1.0
C      1  0.5155560000000  0.5249610000000  0.4319990000000 1.0
C      1  0.5116710000000  0.6103910000000  0.5040430000000 1.0
C      1  0.5792500000000  0.4983290000000  0.4288900000000 1.0
C      1  0.4201230000000  0.4227730000000  0.5305090000000 1.0
C      1  0.5916070000000  0.5347900000000  0.4989660000000 1.0
C      1  0.4979950000000  0.4421990000000  0.5727130000000 1.0
C      1  0.4183110000000  0.4706970000000  0.5419190000000 1.0
C      1  0.4509900000000  0.4899240000000  0.5872350000000 1.0
C      1  0.5463610000000  0.4928930000000  0.5143960000000 1.0
C      1  0.4054860000000  0.5018430000000  0.4909710000000 1.0
C      1  0.4272330000000  0.4567070000000  0.4937460000000 1.0
C      1  0.5587080000000  0.4564590000000  0.4006860000000 1.0
C      1  0.5509690000000  0.5340910000000  0.4609260000000 1.0
C      1  0.4548310000000  0.5159260000000  0.4069680000000 1.0
C      1  0.5751670000000  0.5335230000000  0.5351460000000 1.0
C      1  0.5679200000000  0.5089310000000  0.6037780000000 1.0
C      1  0.4582130000000  0.4497990000000  0.5179460000000 1.0
C      1  0.5403460000000  0.5033490000000  0.6079920000000 1.0
C      1  0.4747950000000  0.4265410000000  0.4660490000000 1.0
C      1  0.5169750000000  0.5051000000000  0.4041550000000 1.0
C      1  0.4469120000000  0.4421760000000  0.5746630000000 1.0
C      1  0.4834170000000  0.5241350000000  0.6020110000000 1.0
C      1  0.4472630000000  0.4205620000000  0.5292080000000 1.0
C      1  0.6055030000000  0.4911260000000  0.5126930000000 1.0
C      1  0.4126390000000  0.5095620000000  0.4585990000000 1.0
C      1  0.4440710000000  0.4663010000000  0.5559400000000 1.0
C      1  0.4257770000000  0.5300860000000  0.5595360000000 1.0
C      1  0.4754720000000  0.4796830000000  0.5573470000000 1.0
C      1  0.5225410000000  0.5397170000000  0.5774940000000 1.0
C      1  0.5405090000000  0.4221010000000  0.5514420000000 1.0
C      1  0.4127350000000  0.4490310000000  0.5223980000000 1.0
C      1  0.4914260000000  0.4518150000000  0.4770320000000 1.0
C      1  0.4709200000000  0.4620530000000  0.3993080000000 1.0
C      1  0.5205830000000  0.5764830000000  0.4279120000000 1.0
C      1  0.5018610000000  0.4616620000000  0.5443560000000 1.0
C      1  0.4359970000000  0.4897170000000  0.4471540000000 1.0
C      1  0.5881430000000  0.4990780000000  0.6189010000000 1.0
C      1  0.4708360000000  0.4251880000000  0.5656410000000 1.0
C      1  0.5587570000000  0.5428780000000  0.4125230000000 1.0
C      1  0.5717030000000  0.5239470000000  0.5795130000000 1.0
C      1  0.4105270000000  0.4486320000000  0.4363300000000 1.0
C      1  0.4573320000000  0.4632250000000  0.5939960000000 1.0
C      1  0.5080020000000  0.5343960000000  0.4616970000000 1.0
C      1  0.5649850000000  0.5149460000000  0.4109670000000 1.0
C      1  0.5398730000000  0.4423410000000  0.5095790000000 1.0
C      1  0.4701390000000  0.5398750000000  0.4081710000000 1.0
C      1  0.5834620000000  0.5144590000000  0.5546450000000 1.0
C      1  0.4333420000000  0.4618580000000  0.4365820000000 1.0
C      1  0.5572480000000  0.4753080000000  0.5400850000000 1.0
C      1  0.4840880000000  0.3778630000000  0.5348490000000 1.0
END
