TITL C-2778424-3986-93 -0.00246587071526969 125000 -847.578501759489 0 0 146 (C1) n - 1
REM
REM in /home/nfs/bkarasulu/CARBON/AIRSS/Generating-Clusters/REBO/Only-C1/SD-CG/HFTN-CG
REM
REM
REM
REM
REM
REM ./C.cell (11c1c37f851c82e70ff6c80c92926a4b)
REM
REM compiler GCC version 9.2.1 20190827 (Red Hat 9.2.1-1)
REM options -cpp -mtune=generic -march=x86-64 -g -O0 -fpre-include=/usr/include/finclude/math-vector-fortran.h
REM seed -1544427020 659229477 1534817550 622922503 465810450 281956312 936949578 1473399249 -132852809 -739792305 1570204968 -656044069 -790887246 1160433447 -1904891300 -1756377913 1868941108 -1632668429 1320286199 386177859 -1258052895 -598167449 360778730 1489787450 -835271206 1063647941 -1184528067 676494335 -501130474 -1215649572 -1139381932 -1011533142 820398429
REM
CELL 1.54180   50.00000   50.00000   50.00000   90.00000   90.00000   90.00000
LATT -1
SFAC C  
C      1  0.4452590000000  0.4169660000000  0.4540600000000 1.0
C      1  0.5509720000000  0.5361740000000  0.4735680000000 1.0
C      1  0.4443090000000  0.4628640000000  0.4837440000000 1.0
C      1  0.5106480000000  0.4490030000000  0.5798260000000 1.0
C      1  0.5701430000000  0.5436660000000  0.4313950000000 1.0
C      1  0.5498660000000  0.5638330000000  0.4343530000000 1.0
C      1  0.5584930000000  0.4546250000000  0.4752760000000 1.0
C      1  0.5000260000000  0.5636410000000  0.5263840000000 1.0
C      1  0.5266090000000  0.5588490000000  0.5111360000000 1.0
C      1  0.5496800000000  0.4088360000000  0.4784340000000 1.0
C      1  0.4557100000000  0.5134670000000  0.4776990000000 1.0
C      1  0.5367600000000  0.5088090000000  0.3961550000000 1.0
C      1  0.5859630000000  0.5160610000000  0.5500690000000 1.0
C      1  0.5401200000000  0.4024390000000  0.5069150000000 1.0
C      1  0.4578090000000  0.5343710000000  0.4361470000000 1.0
C      1  0.5755900000000  0.4782370000000  0.4824560000000 1.0
C      1  0.5404730000000  0.4816950000000  0.5012000000000 1.0
C      1  0.4173150000000  0.4950190000000  0.4974160000000 1.0
C      1  0.5419110000000  0.5401050000000  0.5429750000000 1.0
C      1  0.4555570000000  0.4991340000000  0.5077590000000 1.0
C      1  0.4204200000000  0.4429290000000  0.4935890000000 1.0
C      1  0.5269020000000  0.4178830000000  0.4612730000000 1.0
C      1  0.4666420000000  0.5541770000000  0.6005540000000 1.0
C      1  0.5094590000000  0.5788360000000  0.4664540000000 1.0
C      1  0.4394420000000  0.4542970000000  0.5668550000000 1.0
C      1  0.4457760000000  0.5353090000000  0.5849210000000 1.0
C      1  0.4663200000000  0.4613320000000  0.5015620000000 1.0
C      1  0.4568390000000  0.4844560000000  0.4195840000000 1.0
C      1  0.5389810000000  0.4534040000000  0.4159890000000 1.0
C      1  0.4892020000000  0.4613150000000  0.4566980000000 1.0
C      1  0.4433300000000  0.4218140000000  0.4866500000000 1.0
C      1  0.5762160000000  0.4483280000000  0.5258730000000 1.0
C      1  0.5583270000000  0.4958120000000  0.5265930000000 1.0
C      1  0.5119460000000  0.5367770000000  0.5437110000000 1.0
C      1  0.5049180000000  0.6021720000000  0.4985150000000 1.0
C      1  0.5010330000000  0.4719450000000  0.5197830000000 1.0
C      1  0.4518590000000  0.5829300000000  0.5520620000000 1.0
C      1  0.5105490000000  0.5276500000000  0.6017140000000 1.0
C      1  0.4789840000000  0.5286150000000  0.4953840000000 1.0
C      1  0.4290960000000  0.5634030000000  0.4768670000000 1.0
C      1  0.5430460000000  0.5773190000000  0.4600450000000 1.0
C      1  0.5925910000000  0.5385100000000  0.5331300000000 1.0
C      1  0.4933350000000  0.4691460000000  0.4178130000000 1.0
C      1  0.5508870000000  0.5570260000000  0.5776200000000 1.0
C      1  0.6058940000000  0.5002220000000  0.4683910000000 1.0
C      1  0.5409400000000  0.4606870000000  0.5776580000000 1.0
C      1  0.4952940000000  0.4059670000000  0.4628470000000 1.0
C      1  0.5579800000000  0.5041260000000  0.4818480000000 1.0
C      1  0.4836990000000  0.4971010000000  0.4029390000000 1.0
C      1  0.4741500000000  0.5546730000000  0.5126230000000 1.0
C      1  0.5325650000000  0.5916270000000  0.4890990000000 1.0
C      1  0.4873600000000  0.4923850000000  0.4662620000000 1.0
C      1  0.4688490000000  0.4133680000000  0.5471530000000 1.0
C      1  0.4765350000000  0.4554280000000  0.5527160000000 1.0
C      1  0.4321850000000  0.4927350000000  0.4378540000000 1.0
C      1  0.4600940000000  0.4556590000000  0.5293440000000 1.0
C      1  0.5578060000000  0.5235480000000  0.4105090000000 1.0
C      1  0.5503580000000  0.4669920000000  0.5370500000000 1.0
C      1  0.4585660000000  0.5979100000000  0.5002930000000 1.0
C      1  0.5315030000000  0.4523600000000  0.4957620000000 1.0
C      1  0.4505350000000  0.5853280000000  0.4694830000000 1.0
C      1  0.5111690000000  0.4062700000000  0.5128230000000 1.0
C      1  0.5463060000000  0.4586170000000  0.4482290000000 1.0
C      1  0.5698190000000  0.5041470000000  0.4350410000000 1.0
C      1  0.5021750000000  0.5468030000000  0.4574610000000 1.0
C      1  0.5075840000000  0.4413760000000  0.4764900000000 1.0
C      1  0.5627900000000  0.5664480000000  0.4841710000000 1.0
C      1  0.5317430000000  0.4339860000000  0.5494080000000 1.0
C      1  0.4112670000000  0.5388920000000  0.5158390000000 1.0
C      1  0.5460000000000  0.5317340000000  0.5134160000000 1.0
C      1  0.4411720000000  0.4295390000000  0.5528470000000 1.0
C      1  0.5935170000000  0.4700000000000  0.5102640000000 1.0
C      1  0.4753540000000  0.4296680000000  0.4769630000000 1.0
C      1  0.5655950000000  0.4317830000000  0.4980000000000 1.0
C      1  0.5436680000000  0.5185090000000  0.4474750000000 1.0
C      1  0.4824380000000  0.5944690000000  0.4768960000000 1.0
C      1  0.4326380000000  0.5237110000000  0.4440030000000 1.0
C      1  0.4342720000000  0.4858360000000  0.5251080000000 1.0
C      1  0.5067390000000  0.5148140000000  0.4011450000000 1.0
C      1  0.5074220000000  0.4809850000000  0.5699910000000 1.0
C      1  0.4438600000000  0.5683600000000  0.5809450000000 1.0
C      1  0.5399630000000  0.5270970000000  0.5899640000000 1.0
C      1  0.5877120000000  0.5257450000000  0.4545970000000 1.0
C      1  0.4077770000000  0.4749520000000  0.4518120000000 1.0
C      1  0.4007850000000  0.5138240000000  0.5360550000000 1.0
C      1  0.4963350000000  0.5945040000000  0.5251340000000 1.0
C      1  0.4671750000000  0.4647680000000  0.5819150000000 1.0
C      1  0.5262440000000  0.5014790000000  0.4696190000000 1.0
C      1  0.5144600000000  0.5271960000000  0.4321530000000 1.0
C      1  0.4828770000000  0.4241480000000  0.4159690000000 1.0
C      1  0.5444700000000  0.4808870000000  0.3978830000000 1.0
C      1  0.5237900000000  0.5459280000000  0.4833750000000 1.0
C      1  0.4135030000000  0.5216050000000  0.4901780000000 1.0
C      1  0.5034020000000  0.4951650000000  0.4374790000000 1.0
C      1  0.5086590000000  0.4154940000000  0.4337120000000 1.0
C      1  0.3972450000000  0.4663020000000  0.5157620000000 1.0
C      1  0.4538180000000  0.5842910000000  0.4383380000000 1.0
C      1  0.5891450000000  0.5011270000000  0.5194890000000 1.0
C      1  0.4590540000000  0.5605390000000  0.4260290000000 1.0
C      1  0.4938670000000  0.5487430000000  0.5919180000000 1.0
C      1  0.4241910000000  0.5638720000000  0.5055100000000 1.0
C      1  0.5209650000000  0.4733220000000  0.4565740000000 1.0
C      1  0.4798140000000  0.4946820000000  0.5586560000000 1.0
C      1  0.5365040000000  0.4942060000000  0.5816930000000 1.0
C      1  0.5991280000000  0.5165790000000  0.4926160000000 1.0
C      1  0.4049440000000  0.4698380000000  0.4824210000000 1.0
C      1  0.5112030000000  0.4433190000000  0.4145100000000 1.0
C      1  0.4576280000000  0.4274850000000  0.4324490000000 1.0
C      1  0.4469900000000  0.4188550000000  0.5208400000000 1.0
C      1  0.6085540000000  0.4720310000000  0.4796990000000 1.0
C      1  0.4561320000000  0.5331070000000  0.5429280000000 1.0
C      1  0.5192320000000  0.4652130000000  0.5443980000000 1.0
C      1  0.5007520000000  0.4378810000000  0.5219870000000 1.0
C      1  0.4737240000000  0.4895750000000  0.5975860000000 1.0
C      1  0.4425420000000  0.4863910000000  0.4677240000000 1.0
C      1  0.4758770000000  0.4232950000000  0.5090700000000 1.0
C      1  0.4491730000000  0.5723360000000  0.5197760000000 1.0
C      1  0.5250570000000  0.5087620000000  0.5088750000000 1.0
C      1  0.5349020000000  0.5014610000000  0.5495140000000 1.0
C      1  0.4268040000000  0.4532300000000  0.5244340000000 1.0
C      1  0.4964480000000  0.5033960000000  0.6076260000000 1.0
C      1  0.5273430000000  0.5559580000000  0.4198580000000 1.0
C      1  0.3902500000000  0.4889050000000  0.5297140000000 1.0
C      1  0.4472160000000  0.4847660000000  0.5538100000000 1.0
C      1  0.4848440000000  0.4864060000000  0.4959890000000 1.0
C      1  0.4290520000000  0.5280040000000  0.5416580000000 1.0
C      1  0.4220020000000  0.5367440000000  0.4672440000000 1.0
C      1  0.4740880000000  0.5170400000000  0.5255820000000 1.0
C      1  0.4679020000000  0.4566320000000  0.4337980000000 1.0
C      1  0.5521220000000  0.5699360000000  0.5467090000000 1.0
C      1  0.5587800000000  0.5209220000000  0.5623210000000 1.0
C      1  0.5631930000000  0.4443740000000  0.5574620000000 1.0
C      1  0.4898010000000  0.3964810000000  0.4930340000000 1.0
C      1  0.5632430000000  0.4759970000000  0.4258080000000 1.0
C      1  0.5523040000000  0.5794450000000  0.5139860000000 1.0
C      1  0.4685790000000  0.5555800000000  0.5527130000000 1.0
C      1  0.4797680000000  0.5240470000000  0.4557640000000 1.0
C      1  0.5038690000000  0.5038180000000  0.5356270000000 1.0
C      1  0.5884990000000  0.5455370000000  0.4822790000000 1.0
C      1  0.4979500000000  0.4293700000000  0.5550240000000 1.0
C      1  0.5060300000000  0.5204820000000  0.4870450000000 1.0
C      1  0.5756270000000  0.5416620000000  0.5121430000000 1.0
C      1  0.4687710000000  0.6041140000000  0.5322650000000 1.0
C      1  0.4545900000000  0.5082600000000  0.5772490000000 1.0
C      1  0.4939190000000  0.5514450000000  0.5638500000000 1.0
C      1  0.5402600000000  0.4321990000000  0.5202490000000 1.0
END
