TITL C-2778431-5191-629 -0.00660711399781577 125000 -485.81744826829 0 0 84 (C1) n - 1
REM
REM in /home/nfs/bkarasulu/CARBON/AIRSS/Generating-Clusters/REBO/Only-C1/SD-CG/HFTN-CG
REM
REM
REM
REM
REM
REM ./C.cell (11c1c37f851c82e70ff6c80c92926a4b)
REM
REM compiler GCC version 9.2.1 20190827 (Red Hat 9.2.1-1)
REM options -cpp -mtune=generic -march=x86-64 -g -O0 -fpre-include=/usr/include/finclude/math-vector-fortran.h
REM seed 789531975 94835736 -974932793 265477232 1701911575 160811518 1788598459 -1617959778 -1566435664 -624473249 591604979 296727891 -1444364520 -1199595589 44988383 -719476811 -2071289957 1509010673 -230822242 1960045982 -1276309257 -333992886 -1246735632 -1919587346 1890721835 -1813751577 14897129 525350484 -264871019 -163819801 -1005600313 -1657349692 2112009302
REM
CELL 1.54180   50.00000   50.00000   50.00000   90.00000   90.00000   90.00000
LATT -1
SFAC C  
C      1  0.4457210000000  0.5200030000000  0.5218140000000 1.0
C      1  0.4726250000000  0.5751390000000  0.4817390000000 1.0
C      1  0.4459080000000  0.4518810000000  0.4855960000000 1.0
C      1  0.5076700000000  0.4560570000000  0.5160560000000 1.0
C      1  0.5087880000000  0.4130070000000  0.4897640000000 1.0
C      1  0.4752130000000  0.5175500000000  0.4367070000000 1.0
C      1  0.5334410000000  0.4091220000000  0.5018140000000 1.0
C      1  0.5249310000000  0.5139260000000  0.5297090000000 1.0
C      1  0.4869280000000  0.4436430000000  0.4601310000000 1.0
C      1  0.5605190000000  0.5288710000000  0.5399540000000 1.0
C      1  0.4967050000000  0.5511790000000  0.5051430000000 1.0
C      1  0.4902140000000  0.5766040000000  0.5280050000000 1.0
C      1  0.5728500000000  0.5028130000000  0.4824760000000 1.0
C      1  0.5367820000000  0.5276650000000  0.5578310000000 1.0
C      1  0.5445120000000  0.5686950000000  0.5075540000000 1.0
C      1  0.5040690000000  0.4901120000000  0.5363690000000 1.0
C      1  0.5701990000000  0.5302000000000  0.4867930000000 1.0
C      1  0.4858010000000  0.4647190000000  0.4093900000000 1.0
C      1  0.4822200000000  0.4665920000000  0.5751680000000 1.0
C      1  0.4684430000000  0.5272210000000  0.5666910000000 1.0
C      1  0.5156860000000  0.5373420000000  0.5736740000000 1.0
C      1  0.4408280000000  0.4932460000000  0.4583730000000 1.0
C      1  0.4956280000000  0.5184070000000  0.5815770000000 1.0
C      1  0.4345680000000  0.4904770000000  0.5235310000000 1.0
C      1  0.5775200000000  0.4813830000000  0.5493340000000 1.0
C      1  0.4540450000000  0.4713170000000  0.5094840000000 1.0
C      1  0.4882010000000  0.5039340000000  0.4625400000000 1.0
C      1  0.4654460000000  0.4863230000000  0.4808050000000 1.0
C      1  0.4529050000000  0.5586040000000  0.4957770000000 1.0
C      1  0.4606590000000  0.5461640000000  0.4382360000000 1.0
C      1  0.4720290000000  0.5546120000000  0.5466460000000 1.0
C      1  0.4873440000000  0.5179620000000  0.5425010000000 1.0
C      1  0.5087630000000  0.5232040000000  0.4794570000000 1.0
C      1  0.4558580000000  0.5452620000000  0.5208800000000 1.0
C      1  0.4992520000000  0.5400370000000  0.4362580000000 1.0
C      1  0.4797520000000  0.5245430000000  0.4956570000000 1.0
C      1  0.4340680000000  0.4863040000000  0.5533450000000 1.0
C      1  0.5788300000000  0.5079030000000  0.5439490000000 1.0
C      1  0.5272200000000  0.4458590000000  0.4397590000000 1.0
C      1  0.5325860000000  0.5650290000000  0.4605960000000 1.0
C      1  0.4966190000000  0.4615790000000  0.5454370000000 1.0
C      1  0.5548980000000  0.5729720000000  0.4808540000000 1.0
C      1  0.5477960000000  0.5220540000000  0.4439660000000 1.0
C      1  0.5600310000000  0.5449470000000  0.4615550000000 1.0
C      1  0.4520390000000  0.4773330000000  0.5779260000000 1.0
C      1  0.5024050000000  0.5615690000000  0.5607430000000 1.0
C      1  0.4259660000000  0.5185840000000  0.4647500000000 1.0
C      1  0.5509730000000  0.4351940000000  0.5079100000000 1.0
C      1  0.4462090000000  0.5086810000000  0.5727290000000 1.0
C      1  0.5517030000000  0.4952140000000  0.4478810000000 1.0
C      1  0.4547990000000  0.4954740000000  0.4308540000000 1.0
C      1  0.4319580000000  0.5471530000000  0.4797710000000 1.0
C      1  0.4984990000000  0.4748490000000  0.4580410000000 1.0
C      1  0.5222690000000  0.4296490000000  0.5466440000000 1.0
C      1  0.5528000000000  0.5385990000000  0.5123550000000 1.0
C      1  0.4912510000000  0.5897870000000  0.4976040000000 1.0
C      1  0.4983100000000  0.4227390000000  0.5360650000000 1.0
C      1  0.5646590000000  0.4576990000000  0.5493700000000 1.0
C      1  0.4970350000000  0.4917510000000  0.5878190000000 1.0
C      1  0.5648730000000  0.4608480000000  0.4969690000000 1.0
C      1  0.5353090000000  0.4417180000000  0.4783600000000 1.0
C      1  0.5059480000000  0.4632080000000  0.4286000000000 1.0
C      1  0.5205950000000  0.5820270000000  0.5129440000000 1.0
C      1  0.4928210000000  0.4749000000000  0.4975390000000 1.0
C      1  0.5323100000000  0.5150460000000  0.4985590000000 1.0
C      1  0.5125180000000  0.4248020000000  0.4606130000000 1.0
C      1  0.4343500000000  0.5450760000000  0.4481390000000 1.0
C      1  0.4310140000000  0.4643150000000  0.4665020000000 1.0
C      1  0.4700380000000  0.4493780000000  0.5268950000000 1.0
C      1  0.5211090000000  0.4701690000000  0.4809560000000 1.0
C      1  0.5068610000000  0.5551540000000  0.4727750000000 1.0
C      1  0.5075840000000  0.5413780000000  0.5341930000000 1.0
C      1  0.5767810000000  0.4747830000000  0.4711760000000 1.0
C      1  0.5471060000000  0.4394160000000  0.5377310000000 1.0
C      1  0.4086020000000  0.4885890000000  0.5121240000000 1.0
C      1  0.4616200000000  0.4773310000000  0.4120800000000 1.0
C      1  0.4802180000000  0.5010270000000  0.5147270000000 1.0
C      1  0.5241130000000  0.5313900000000  0.4319150000000 1.0
C      1  0.4683510000000  0.4358100000000  0.4806170000000 1.0
C      1  0.4621790000000  0.4458590000000  0.5567390000000 1.0
C      1  0.4834010000000  0.4254410000000  0.5066910000000 1.0
C      1  0.4821830000000  0.5640500000000  0.4536480000000 1.0
C      1  0.5444310000000  0.4874780000000  0.4907340000000 1.0
C      1  0.5507400000000  0.4620690000000  0.4554200000000 1.0
END
