TITL C-2778436-5916-174 9.80462570518942e-08 125000 -111.191973848943 0 0 20 (C1) n - 1
REM
REM in /home/nfs/bkarasulu/CARBON/AIRSS/Generating-Clusters/REBO/Only-C1/SD-CG/HFTN-CG
REM
REM
REM
REM
REM
REM ./C.cell (11c1c37f851c82e70ff6c80c92926a4b)
REM
REM compiler GCC version 9.2.1 20190827 (Red Hat 9.2.1-1)
REM options -cpp -mtune=generic -march=x86-64 -g -O0 -fpre-include=/usr/include/finclude/math-vector-fortran.h
REM seed -1258919533 496867893 1286926800 -1981898603 65347416 2033935856 -199912081 651598026 -454496176 -1231494864 -1288208368 -277105098 466952851 -23842727 -1129869699 -690023025 249818409 -1586836973 1705308814 159414047 428901952 -1058889708 -1091401235 -1538789782 -1426763552 -2074992648 -756462125 205095340 -2071786874 1241664749 1949635961 244286162 -2140313114
REM
CELL 1.54180   50.00000   50.00000   50.00000   90.00000   90.00000   90.00000
LATT -1
SFAC C  
C      1  0.5118970000000  0.5541810000000  0.4430600000000 1.0
C      1  0.4842090000000  0.4596210000000  0.4735810000000 1.0
C      1  0.4703510000000  0.5228970000000  0.5520880000000 1.0
C      1  0.4762360000000  0.5155670000000  0.5256850000000 1.0
C      1  0.5118620000000  0.4877360000000  0.4422620000000 1.0
C      1  0.4950740000000  0.4679210000000  0.4502290000000 1.0
C      1  0.4834460000000  0.4450230000000  0.5502410000000 1.0
C      1  0.4652470000000  0.5601300000000  0.5111710000000 1.0
C      1  0.5101620000000  0.5332530000000  0.4603930000000 1.0
C      1  0.4648470000000  0.5297500000000  0.5767780000000 1.0
C      1  0.4934550000000  0.5337870000000  0.4829750000000 1.0
C      1  0.5252320000000  0.5088710000000  0.4555430000000 1.0
C      1  0.5531170000000  0.4892710000000  0.4960210000000 1.0
C      1  0.5457170000000  0.4748360000000  0.5175160000000 1.0
C      1  0.4952730000000  0.4612330000000  0.5312100000000 1.0
C      1  0.5258860000000  0.4636180000000  0.5316130000000 1.0
C      1  0.4778370000000  0.5364040000000  0.5061230000000 1.0
C      1  0.4809100000000  0.4892370000000  0.5198330000000 1.0
C      1  0.4832880000000  0.4646270000000  0.5002760000000 1.0
C      1  0.5459550000000  0.5020370000000  0.4734020000000 1.0
END
