TITL C-2778426-5645-364 0.00562349603505957 125000 -640.95017561889 0 0 109 (C1) n - 1
REM
REM in /home/nfs/bkarasulu/CARBON/AIRSS/Generating-Clusters/REBO/Only-C1/SD-CG/HFTN-CG
REM
REM
REM
REM
REM
REM ./C.cell (11c1c37f851c82e70ff6c80c92926a4b)
REM
REM compiler GCC version 9.2.1 20190827 (Red Hat 9.2.1-1)
REM options -cpp -mtune=generic -march=x86-64 -g -O0 -fpre-include=/usr/include/finclude/math-vector-fortran.h
REM seed 1732486494 1008876218 1475608505 59369292 -1224494765 -1444332854 -1821336161 -1256774685 -1323514425 798446976 -425771393 -1460795903 412387515 779285880 -2023778521 -1269048117 -1447243747 918334470 390320819 2043164474 416304914 1433486954 627910087 -1327726079 2135548275 1990535761 -258988885 -779103418 -1203439321 673828639 -2143329929 1216276423 819688441
REM
CELL 1.54180   50.00000   50.00000   50.00000   90.00000   90.00000   90.00000
LATT -1
SFAC C  
C      1  0.4938010000000  0.4001150000000  0.5442960000000 1.0
C      1  0.4577990000000  0.5316290000000  0.5188700000000 1.0
C      1  0.5279660000000  0.5554030000000  0.4403630000000 1.0
C      1  0.5529520000000  0.5095690000000  0.4919500000000 1.0
C      1  0.4864780000000  0.4473650000000  0.5724970000000 1.0
C      1  0.5757520000000  0.5674610000000  0.4437430000000 1.0
C      1  0.4946150000000  0.4503330000000  0.4268820000000 1.0
C      1  0.4734880000000  0.5322420000000  0.4955990000000 1.0
C      1  0.4692260000000  0.5712490000000  0.5393850000000 1.0
C      1  0.5044070000000  0.5325510000000  0.5909690000000 1.0
C      1  0.4677920000000  0.4644580000000  0.5061040000000 1.0
C      1  0.4812220000000  0.4348880000000  0.5066120000000 1.0
C      1  0.4110560000000  0.4935760000000  0.4861570000000 1.0
C      1  0.5279290000000  0.5008910000000  0.4063620000000 1.0
C      1  0.4997650000000  0.4031380000000  0.4892800000000 1.0
C      1  0.5045690000000  0.5386970000000  0.4298720000000 1.0
C      1  0.4675310000000  0.4721370000000  0.4770700000000 1.0
C      1  0.5025750000000  0.5239030000000  0.4978350000000 1.0
C      1  0.5218170000000  0.4472050000000  0.5302950000000 1.0
C      1  0.5350510000000  0.5594610000000  0.5508250000000 1.0
C      1  0.5086270000000  0.4999050000000  0.5204060000000 1.0
C      1  0.5110340000000  0.5806300000000  0.4955210000000 1.0
C      1  0.4854860000000  0.4889040000000  0.4313700000000 1.0
C      1  0.5123060000000  0.4370360000000  0.5064860000000 1.0
C      1  0.5697540000000  0.4335440000000  0.4958390000000 1.0
C      1  0.4564030000000  0.4339020000000  0.4831130000000 1.0
C      1  0.5013700000000  0.5009750000000  0.5941130000000 1.0
C      1  0.4775900000000  0.5813140000000  0.4893830000000 1.0
C      1  0.4467150000000  0.5498100000000  0.5393490000000 1.0
C      1  0.5080730000000  0.4320040000000  0.4489020000000 1.0
C      1  0.5185240000000  0.5704750000000  0.5225470000000 1.0
C      1  0.4248880000000  0.5323530000000  0.5501730000000 1.0
C      1  0.5740870000000  0.4993070000000  0.5242820000000 1.0
C      1  0.5485510000000  0.5772100000000  0.4821790000000 1.0
C      1  0.4664940000000  0.4605540000000  0.4289880000000 1.0
C      1  0.5529890000000  0.4214060000000  0.4763430000000 1.0
C      1  0.4713110000000  0.5728450000000  0.4569780000000 1.0
C      1  0.4473690000000  0.5509450000000  0.4566250000000 1.0
C      1  0.4424080000000  0.4350230000000  0.5142520000000 1.0
C      1  0.4845300000000  0.4206320000000  0.4695010000000 1.0
C      1  0.5570080000000  0.5670730000000  0.5028210000000 1.0
C      1  0.5583840000000  0.4258150000000  0.4486890000000 1.0
C      1  0.4527730000000  0.5035350000000  0.5274470000000 1.0
C      1  0.5645460000000  0.5192610000000  0.4388370000000 1.0
C      1  0.5814460000000  0.5190560000000  0.4647170000000 1.0
C      1  0.4553340000000  0.4499100000000  0.5619030000000 1.0
C      1  0.5362030000000  0.4885310000000  0.4746210000000 1.0
C      1  0.5906570000000  0.4725010000000  0.4795950000000 1.0
C      1  0.5190190000000  0.5179270000000  0.4729390000000 1.0
C      1  0.5004110000000  0.4754760000000  0.5853310000000 1.0
C      1  0.4359810000000  0.5610620000000  0.5024960000000 1.0
C      1  0.5373370000000  0.5179200000000  0.5163750000000 1.0
C      1  0.5597950000000  0.4707610000000  0.4851220000000 1.0
C      1  0.5842860000000  0.5014140000000  0.4919150000000 1.0
C      1  0.4803680000000  0.4852750000000  0.5246790000000 1.0
C      1  0.4745630000000  0.5457720000000  0.4364130000000 1.0
C      1  0.5475830000000  0.4698590000000  0.5595610000000 1.0
C      1  0.4921170000000  0.4042400000000  0.5170160000000 1.0
C      1  0.5527290000000  0.4986490000000  0.4239530000000 1.0
C      1  0.4322440000000  0.4735820000000  0.4440400000000 1.0
C      1  0.5950580000000  0.4442550000000  0.4860970000000 1.0
C      1  0.5377620000000  0.4389540000000  0.4362360000000 1.0
C      1  0.4202270000000  0.5126450000000  0.4676690000000 1.0
C      1  0.5704910000000  0.5234310000000  0.5379200000000 1.0
C      1  0.5001480000000  0.5141920000000  0.4489850000000 1.0
C      1  0.5121750000000  0.5392920000000  0.5250250000000 1.0
C      1  0.3949020000000  0.4722130000000  0.4792470000000 1.0
C      1  0.4523790000000  0.4260370000000  0.5415770000000 1.0
C      1  0.4441710000000  0.4571110000000  0.4622940000000 1.0
C      1  0.5473440000000  0.5367720000000  0.4748140000000 1.0
C      1  0.5742830000000  0.5498130000000  0.4685560000000 1.0
C      1  0.5305200000000  0.4948930000000  0.5676190000000 1.0
C      1  0.4559430000000  0.5075070000000  0.5792600000000 1.0
C      1  0.5547390000000  0.5472310000000  0.4338400000000 1.0
C      1  0.4965070000000  0.5689000000000  0.5482170000000 1.0
C      1  0.5382080000000  0.4692760000000  0.4282860000000 1.0
C      1  0.4955110000000  0.4670160000000  0.4632200000000 1.0
C      1  0.4586710000000  0.5743480000000  0.5102630000000 1.0
C      1  0.4296110000000  0.5163720000000  0.5731670000000 1.0
C      1  0.4249390000000  0.5413910000000  0.4766700000000 1.0
C      1  0.4336180000000  0.5025190000000  0.4447480000000 1.0
C      1  0.4757810000000  0.5385790000000  0.5638900000000 1.0
C      1  0.4526270000000  0.5201010000000  0.4320750000000 1.0
C      1  0.4371720000000  0.4674780000000  0.5207490000000 1.0
C      1  0.5097390000000  0.4756890000000  0.4130830000000 1.0
C      1  0.4399080000000  0.4700910000000  0.5520630000000 1.0
C      1  0.4703550000000  0.4956650000000  0.5555670000000 1.0
C      1  0.4227770000000  0.4947650000000  0.5140280000000 1.0
C      1  0.5561260000000  0.4564460000000  0.5119300000000 1.0
C      1  0.4949370000000  0.5289440000000  0.5472850000000 1.0
C      1  0.4119720000000  0.5223570000000  0.5263620000000 1.0
C      1  0.4778690000000  0.4178130000000  0.5589050000000 1.0
C      1  0.5209380000000  0.4718240000000  0.4555170000000 1.0
C      1  0.5644630000000  0.4586990000000  0.5789350000000 1.0
C      1  0.5111830000000  0.5546540000000  0.5731110000000 1.0
C      1  0.4609830000000  0.5251830000000  0.4711710000000 1.0
C      1  0.5231090000000  0.4241320000000  0.4787820000000 1.0
C      1  0.5555900000000  0.5352610000000  0.5620300000000 1.0
C      1  0.5161590000000  0.4585120000000  0.5601970000000 1.0
C      1  0.4723110000000  0.4993580000000  0.4599780000000 1.0
C      1  0.4106650000000  0.5426260000000  0.5066580000000 1.0
C      1  0.4723080000000  0.5283000000000  0.5935890000000 1.0
C      1  0.5435390000000  0.5160500000000  0.5787140000000 1.0
C      1  0.5609900000000  0.4751400000000  0.5327800000000 1.0
C      1  0.5145540000000  0.5247790000000  0.4036650000000 1.0
C      1  0.4984960000000  0.5898400000000  0.4649010000000 1.0
C      1  0.5256650000000  0.5743960000000  0.4625370000000 1.0
C      1  0.5512170000000  0.5475390000000  0.5246500000000 1.0
C      1  0.5042780000000  0.4989490000000  0.5533520000000 1.0
END
