TITL C-2778434-4341-776 -0.000615280219888244 125000 -169.319058987809 0 0 31 (C1) n - 1
REM
REM in /home/nfs/bkarasulu/CARBON/AIRSS/Generating-Clusters/REBO/Only-C1/SD-CG/HFTN-CG
REM
REM
REM
REM
REM
REM ./C.cell (11c1c37f851c82e70ff6c80c92926a4b)
REM
REM compiler GCC version 9.2.1 20190827 (Red Hat 9.2.1-1)
REM options -cpp -mtune=generic -march=x86-64 -g -O0 -fpre-include=/usr/include/finclude/math-vector-fortran.h
REM seed 1077539523 -2141791722 -854299679 493524872 836195688 -721900150 108093081 398494852 -833728067 1856409807 1442639632 -458611375 1407508750 223827899 1298808495 544401887 1937609221 -336351744 1881658975 1716979300 -1180841525 -1591948919 -2004984060 115053193 242604987 422221089 1254452981 140677397 750748343 -759521505 1754092185 1563672832 541861775
REM
CELL 1.54180   50.00000   50.00000   50.00000   90.00000   90.00000   90.00000
LATT -1
SFAC C  
C      1  0.5614310000000  0.4883900000000  0.5559760000000 1.0
C      1  0.5164990000000  0.4703970000000  0.5602260000000 1.0
C      1  0.4404500000000  0.5340490000000  0.4881510000000 1.0
C      1  0.4885950000000  0.5612130000000  0.4600600000000 1.0
C      1  0.4837960000000  0.5075940000000  0.4196160000000 1.0
C      1  0.4635730000000  0.4771500000000  0.5174730000000 1.0
C      1  0.4916600000000  0.4941040000000  0.5218210000000 1.0
C      1  0.4438840000000  0.5010180000000  0.4484280000000 1.0
C      1  0.5715930000000  0.4961110000000  0.4833220000000 1.0
C      1  0.4618190000000  0.5078640000000  0.5262460000000 1.0
C      1  0.4982100000000  0.4562900000000  0.5734820000000 1.0
C      1  0.5074820000000  0.5009010000000  0.4957360000000 1.0
C      1  0.4587900000000  0.5020470000000  0.4191780000000 1.0
C      1  0.5939570000000  0.4823110000000  0.4777500000000 1.0
C      1  0.5450520000000  0.5101950000000  0.4732090000000 1.0
C      1  0.4512910000000  0.4662450000000  0.4950530000000 1.0
C      1  0.4748400000000  0.4869370000000  0.4525020000000 1.0
C      1  0.4619240000000  0.4282990000000  0.5997830000000 1.0
C      1  0.4777790000000  0.5359530000000  0.4571200000000 1.0
C      1  0.5355700000000  0.4851090000000  0.5464030000000 1.0
C      1  0.4967760000000  0.5110020000000  0.4501650000000 1.0
C      1  0.4509870000000  0.5280290000000  0.4628170000000 1.0
C      1  0.4499880000000  0.4743880000000  0.4686320000000 1.0
C      1  0.4799220000000  0.4421820000000  0.5867380000000 1.0
C      1  0.4461000000000  0.5270130000000  0.5138670000000 1.0
C      1  0.5528380000000  0.5114180000000  0.5063210000000 1.0
C      1  0.5647380000000  0.5322230000000  0.5203200000000 1.0
C      1  0.5281510000000  0.4975960000000  0.5208410000000 1.0
C      1  0.4988510000000  0.5851680000000  0.4628480000000 1.0
C      1  0.5176170000000  0.5073170000000  0.4709070000000 1.0
C      1  0.5858360000000  0.4914870000000  0.5650100000000 1.0
END
