TITL C-2778429-3646-1429 0.000701325464675623 125000 -74.4862389907714 0 0 15 (C1) n - 1
REM
REM in /home/nfs/bkarasulu/CARBON/AIRSS/Generating-Clusters/REBO/Only-C1/SD-CG/HFTN-CG
REM
REM
REM
REM
REM
REM ./C.cell (11c1c37f851c82e70ff6c80c92926a4b)
REM
REM compiler GCC version 9.2.1 20190827 (Red Hat 9.2.1-1)
REM options -cpp -mtune=generic -march=x86-64 -g -O0 -fpre-include=/usr/include/finclude/math-vector-fortran.h
REM seed 893546560 -1084155865 -1613000343 -490556780 -1793601141 563339721 -1497104382 -573391094 50009921 -576639075 1282914873 -329568192 -301975751 142590250 -320939174 -1396484566 -1728668465 1675802115 1010416280 -1579376611 162691066 490460994 1047499366 -383647344 -1275328976 -257645610 1963771244 -1953611985 -1435164903 -1768699201 1642714470 1289555420 527189231
REM
CELL 1.54180   50.00000   50.00000   50.00000   90.00000   90.00000   90.00000
LATT -1
SFAC C  
C      1  0.4986790000000  0.4879680000000  0.5484550000000 1.0
C      1  0.4729570000000  0.5042260000000  0.4869360000000 1.0
C      1  0.5391760000000  0.4764970000000  0.4875490000000 1.0
C      1  0.4478380000000  0.5056440000000  0.4925150000000 1.0
C      1  0.5071960000000  0.4704360000000  0.5675360000000 1.0
C      1  0.5024480000000  0.5083810000000  0.5004760000000 1.0
C      1  0.5333580000000  0.4722890000000  0.5145730000000 1.0
C      1  0.4884900000000  0.5095570000000  0.4316770000000 1.0
C      1  0.5086200000000  0.5375950000000  0.5065260000000 1.0
C      1  0.4779470000000  0.5049990000000  0.5533730000000 1.0
C      1  0.5137910000000  0.5620660000000  0.5115930000000 1.0
C      1  0.5217140000000  0.4943100000000  0.4762300000000 1.0
C      1  0.4833570000000  0.4800150000000  0.4356630000000 1.0
C      1  0.5113130000000  0.4884870000000  0.5236310000000 1.0
C      1  0.4931170000000  0.4975300000000  0.4632670000000 1.0
END
