TITL C-2778424-3986-298 0.0026849194753418 125000 -398.578803723045 0 0 70 (C1) n - 1
REM
REM in /home/nfs/bkarasulu/CARBON/AIRSS/Generating-Clusters/REBO/Only-C1/SD-CG/HFTN-CG
REM
REM
REM
REM
REM
REM ./C.cell (11c1c37f851c82e70ff6c80c92926a4b)
REM
REM compiler GCC version 9.2.1 20190827 (Red Hat 9.2.1-1)
REM options -cpp -mtune=generic -march=x86-64 -g -O0 -fpre-include=/usr/include/finclude/math-vector-fortran.h
REM seed 2018146269 -618735526 -2049614569 1496226664 -1763936410 1247683171 1371460685 -681477534 2125538924 -868706189 -1325843418 1244125159 470869093 -1762475817 -1534913913 -955953365 2143997922 -84395692 -975332520 1145462145 191787761 740157693 696558267 1593557552 -47359038 1271604933 1992307730 1443167233 -247654686 -1157311141 -1748575467 -1101866355 -1929467419
REM
CELL 1.54180   50.00000   50.00000   50.00000   90.00000   90.00000   90.00000
LATT -1
SFAC C  
C      1  0.4290370000000  0.4537980000000  0.5215330000000 1.0
C      1  0.5828970000000  0.5100100000000  0.4749280000000 1.0
C      1  0.5492370000000  0.5238550000000  0.4590890000000 1.0
C      1  0.4955070000000  0.5890070000000  0.4985250000000 1.0
C      1  0.4031850000000  0.4908280000000  0.5064650000000 1.0
C      1  0.4181330000000  0.4798290000000  0.4809900000000 1.0
C      1  0.5216500000000  0.4337780000000  0.5504820000000 1.0
C      1  0.5823600000000  0.5218930000000  0.5065070000000 1.0
C      1  0.4964590000000  0.4731880000000  0.4894910000000 1.0
C      1  0.4568430000000  0.5080660000000  0.5533360000000 1.0
C      1  0.5178870000000  0.4648850000000  0.4652390000000 1.0
C      1  0.4703370000000  0.4792220000000  0.4478430000000 1.0
C      1  0.4559500000000  0.5469190000000  0.4733890000000 1.0
C      1  0.5391430000000  0.5477670000000  0.4896100000000 1.0
C      1  0.4796650000000  0.4575060000000  0.5342360000000 1.0
C      1  0.5411970000000  0.4302510000000  0.4900780000000 1.0
C      1  0.4789840000000  0.4353620000000  0.4758390000000 1.0
C      1  0.4862540000000  0.5282420000000  0.4425150000000 1.0
C      1  0.4857280000000  0.4210490000000  0.4985000000000 1.0
C      1  0.5143440000000  0.4485320000000  0.5013410000000 1.0
C      1  0.4683660000000  0.5403450000000  0.5245130000000 1.0
C      1  0.4653740000000  0.5081430000000  0.4477890000000 1.0
C      1  0.4417140000000  0.4623760000000  0.4914190000000 1.0
C      1  0.5641300000000  0.4776900000000  0.5314750000000 1.0
C      1  0.5217440000000  0.5451260000000  0.5255140000000 1.0
C      1  0.5481600000000  0.5353490000000  0.5430200000000 1.0
C      1  0.5794710000000  0.4699900000000  0.5076250000000 1.0
C      1  0.4728830000000  0.5227410000000  0.4889850000000 1.0
C      1  0.4894540000000  0.5561390000000  0.5047320000000 1.0
C      1  0.4931730000000  0.5483150000000  0.5435300000000 1.0
C      1  0.5006370000000  0.5258250000000  0.5634130000000 1.0
C      1  0.4427380000000  0.4463280000000  0.5447760000000 1.0
C      1  0.4253500000000  0.5086430000000  0.4785270000000 1.0
C      1  0.5621690000000  0.4765870000000  0.4811680000000 1.0
C      1  0.5976160000000  0.4924800000000  0.4987290000000 1.0
C      1  0.4910390000000  0.4727110000000  0.4287260000000 1.0
C      1  0.5139270000000  0.4765660000000  0.5417880000000 1.0
C      1  0.5436880000000  0.4819220000000  0.4303550000000 1.0
C      1  0.5281820000000  0.5260460000000  0.5670380000000 1.0
C      1  0.4816340000000  0.5047250000000  0.5647370000000 1.0
C      1  0.5410340000000  0.4606230000000  0.5411520000000 1.0
C      1  0.4388670000000  0.5428130000000  0.5165960000000 1.0
C      1  0.5427110000000  0.4550860000000  0.4740820000000 1.0
C      1  0.4045490000000  0.4688600000000  0.5250750000000 1.0
C      1  0.5589310000000  0.5439430000000  0.5116190000000 1.0
C      1  0.4269400000000  0.5145280000000  0.5109380000000 1.0
C      1  0.5625120000000  0.4947690000000  0.4522480000000 1.0
C      1  0.5093370000000  0.5307260000000  0.4263410000000 1.0
C      1  0.5500050000000  0.5078350000000  0.4876660000000 1.0
C      1  0.5379120000000  0.4338010000000  0.5217620000000 1.0
C      1  0.4871590000000  0.5512460000000  0.4651230000000 1.0
C      1  0.5066320000000  0.5754160000000  0.5274340000000 1.0
C      1  0.4934950000000  0.5819340000000  0.4700960000000 1.0
C      1  0.5078690000000  0.4960040000000  0.5201740000000 1.0
C      1  0.4641240000000  0.4589710000000  0.4686350000000 1.0
C      1  0.4372170000000  0.5599660000000  0.4939660000000 1.0
C      1  0.4637420000000  0.4539500000000  0.5629980000000 1.0
C      1  0.5019580000000  0.5059210000000  0.4879280000000 1.0
C      1  0.4438530000000  0.5203110000000  0.4618830000000 1.0
C      1  0.5094060000000  0.5380730000000  0.4872740000000 1.0
C      1  0.4786470000000  0.5096970000000  0.5198660000000 1.0
C      1  0.4687980000000  0.4724860000000  0.5093200000000 1.0
C      1  0.4899020000000  0.4756610000000  0.5618160000000 1.0
C      1  0.4982560000000  0.4349260000000  0.5266130000000 1.0
C      1  0.5176160000000  0.4726140000000  0.4382380000000 1.0
C      1  0.4492670000000  0.4964550000000  0.5238030000000 1.0
C      1  0.5313440000000  0.5153540000000  0.5130780000000 1.0
C      1  0.5332040000000  0.5412930000000  0.4364980000000 1.0
C      1  0.5478230000000  0.5567530000000  0.4616420000000 1.0
C      1  0.5606480000000  0.5079500000000  0.5283430000000 1.0
END
