TITL C-2778433-5640-999 -0.00373083734682005 125000 -316.22610776241 0 0 54 (C1) n - 1
REM
REM in /home/nfs/bkarasulu/CARBON/AIRSS/Generating-Clusters/REBO/Only-C1/SD-CG/HFTN-CG
REM
REM
REM
REM
REM
REM ./C.cell (11c1c37f851c82e70ff6c80c92926a4b)
REM
REM compiler GCC version 9.2.1 20190827 (Red Hat 9.2.1-1)
REM options -cpp -mtune=generic -march=x86-64 -g -O0 -fpre-include=/usr/include/finclude/math-vector-fortran.h
REM seed 213670620 -638616450 765069584 -195737062 1253963149 2092686135 -1714441441 1395693143 1530847868 -1763842523 -1740744088 483685908 1604769915 407593322 -619000775 1935826695 1495599231 955981708 919356857 943432242 -569891928 -847092674 -1571900849 915980201 336229523 -918217064 691937469 366519968 1413671707 1355158496 65788356 -592720896 1417661411
REM
CELL 1.54180   50.00000   50.00000   50.00000   90.00000   90.00000   90.00000
LATT -1
SFAC C  
C      1  0.5537440000000  0.5021700000000  0.4540540000000 1.0
C      1  0.5315660000000  0.4927360000000  0.4738850000000 1.0
C      1  0.5282960000000  0.5054270000000  0.5028520000000 1.0
C      1  0.5223800000000  0.5292500000000  0.5499810000000 1.0
C      1  0.4851070000000  0.4937390000000  0.4852700000000 1.0
C      1  0.5657170000000  0.4885220000000  0.4937550000000 1.0
C      1  0.4993850000000  0.5554120000000  0.5125130000000 1.0
C      1  0.4758220000000  0.5564050000000  0.5281450000000 1.0
C      1  0.4997930000000  0.4359430000000  0.5372900000000 1.0
C      1  0.5153840000000  0.4868720000000  0.5213040000000 1.0
C      1  0.4979660000000  0.4481580000000  0.4630440000000 1.0
C      1  0.4622720000000  0.5094370000000  0.4847640000000 1.0
C      1  0.5149530000000  0.4285690000000  0.5013480000000 1.0
C      1  0.4551590000000  0.4882940000000  0.4512080000000 1.0
C      1  0.5213150000000  0.4764410000000  0.5474070000000 1.0
C      1  0.4394790000000  0.5238610000000  0.4818600000000 1.0
C      1  0.5475990000000  0.4660120000000  0.5509530000000 1.0
C      1  0.4398050000000  0.5439590000000  0.4583990000000 1.0
C      1  0.5224470000000  0.4424700000000  0.4775570000000 1.0
C      1  0.5046770000000  0.4936410000000  0.4610900000000 1.0
C      1  0.4561310000000  0.4917780000000  0.5506660000000 1.0
C      1  0.4530140000000  0.4713180000000  0.4770880000000 1.0
C      1  0.4356460000000  0.5312130000000  0.5208300000000 1.0
C      1  0.5536190000000  0.4469180000000  0.5304450000000 1.0
C      1  0.4796720000000  0.5508470000000  0.5556300000000 1.0
C      1  0.5434630000000  0.4641040000000  0.4812710000000 1.0
C      1  0.4896590000000  0.4811980000000  0.5106400000000 1.0
C      1  0.4721490000000  0.4741090000000  0.4324240000000 1.0
C      1  0.4963970000000  0.5286850000000  0.5629110000000 1.0
C      1  0.5185720000000  0.5335460000000  0.5168630000000 1.0
C      1  0.5507030000000  0.5367480000000  0.5394620000000 1.0
C      1  0.4820550000000  0.5051680000000  0.5676400000000 1.0
C      1  0.4946650000000  0.5634150000000  0.4841990000000 1.0
C      1  0.4994200000000  0.4587350000000  0.5557130000000 1.0
C      1  0.4791470000000  0.5401910000000  0.4557180000000 1.0
C      1  0.5016540000000  0.5183470000000  0.4451480000000 1.0
C      1  0.5463600000000  0.5501720000000  0.4571430000000 1.0
C      1  0.4556700000000  0.5171780000000  0.4460940000000 1.0
C      1  0.5495410000000  0.5389120000000  0.5054220000000 1.0
C      1  0.4845550000000  0.4355660000000  0.5071790000000 1.0
C      1  0.5126830000000  0.5474050000000  0.4545950000000 1.0
C      1  0.4785770000000  0.4734340000000  0.5677130000000 1.0
C      1  0.5648360000000  0.5287320000000  0.4605210000000 1.0
C      1  0.4625000000000  0.5565160000000  0.4804980000000 1.0
C      1  0.5635510000000  0.4592830000000  0.5068510000000 1.0
C      1  0.4424700000000  0.4800730000000  0.5032300000000 1.0
C      1  0.4363760000000  0.5033090000000  0.5256040000000 1.0
C      1  0.5278510000000  0.5550310000000  0.4844980000000 1.0
C      1  0.4741230000000  0.4489960000000  0.4816330000000 1.0
C      1  0.4650150000000  0.4761320000000  0.5236810000000 1.0
C      1  0.5308690000000  0.4285300000000  0.5272210000000 1.0
C      1  0.5651760000000  0.5166230000000  0.4895180000000 1.0
C      1  0.4975840000000  0.4693690000000  0.4442700000000 1.0
C      1  0.4534290000000  0.5511060000000  0.5110000000000 1.0
END
