TITL C-2778435-5768-514 0.0896020853284094 125000 -715.7826347171 0 0 124 (C1) n - 1
REM
REM in /home/nfs/bkarasulu/CARBON/AIRSS/Generating-Clusters/REBO/Only-C1/SD-CG/HFTN-CG
REM
REM
REM
REM
REM
REM ./C.cell (11c1c37f851c82e70ff6c80c92926a4b)
REM
REM compiler GCC version 9.2.1 20190827 (Red Hat 9.2.1-1)
REM options -cpp -mtune=generic -march=x86-64 -g -O0 -fpre-include=/usr/include/finclude/math-vector-fortran.h
REM seed 1264826525 -1566263600 -1654487893 -524057109 1175400086 -1341412672 -787128440 -2012922734 843274645 327642634 2100896497 952807364 -1291130779 26645989 1369599640 -1907889538 -621382867 -576045723 1559764418 -580097597 1510913992 -24603716 -429786902 -958723088 -1637857246 626186861 784333454 534620651 1615357232 -933609611 -1756826057 -337506495 982160018
REM
CELL 1.54180   50.00000   50.00000   50.00000   90.00000   90.00000   90.00000
LATT -1
SFAC C  
C      1  0.5673570000000  0.4661530000000  0.5316170000000 1.0
C      1  0.4950140000000  0.5740410000000  0.4991620000000 1.0
C      1  0.4856830000000  0.5569820000000  0.5720360000000 1.0
C      1  0.5107140000000  0.4941640000000  0.4584090000000 1.0
C      1  0.4231810000000  0.5356030000000  0.4657570000000 1.0
C      1  0.4767700000000  0.4705000000000  0.4131610000000 1.0
C      1  0.5193170000000  0.4205180000000  0.5187130000000 1.0
C      1  0.5182670000000  0.5624960000000  0.4832680000000 1.0
C      1  0.4311190000000  0.4989930000000  0.4822840000000 1.0
C      1  0.5354610000000  0.5989900000000  0.4762780000000 1.0
C      1  0.4692830000000  0.5662970000000  0.4550720000000 1.0
C      1  0.5224470000000  0.5644970000000  0.5441470000000 1.0
C      1  0.5368980000000  0.4578640000000  0.5840200000000 1.0
C      1  0.5257680000000  0.4344420000000  0.5736790000000 1.0
C      1  0.4704690000000  0.5199870000000  0.4549150000000 1.0
C      1  0.4332790000000  0.4128640000000  0.5086820000000 1.0
C      1  0.5710890000000  0.5826280000000  0.4698600000000 1.0
C      1  0.5867000000000  0.5011120000000  0.4390090000000 1.0
C      1  0.4785690000000  0.4281950000000  0.4376630000000 1.0
C      1  0.4531340000000  0.4045050000000  0.4839430000000 1.0
C      1  0.5256540000000  0.5996480000000  0.4988210000000 1.0
C      1  0.5527810000000  0.4902010000000  0.5112130000000 1.0
C      1  0.5250410000000  0.4530870000000  0.4323950000000 1.0
C      1  0.5003250000000  0.4673460000000  0.5116940000000 1.0
C      1  0.4002430000000  0.4746140000000  0.4874990000000 1.0
C      1  0.5848950000000  0.5351210000000  0.4599370000000 1.0
C      1  0.4800720000000  0.4508350000000  0.5926430000000 1.0
C      1  0.5297250000000  0.4681290000000  0.5189860000000 1.0
C      1  0.4068050000000  0.5142040000000  0.4449870000000 1.0
C      1  0.4310670000000  0.5311430000000  0.5251660000000 1.0
C      1  0.4602670000000  0.4631140000000  0.5072150000000 1.0
C      1  0.6346660000000  0.4951600000000  0.4176620000000 1.0
C      1  0.5588320000000  0.4973780000000  0.4837860000000 1.0
C      1  0.5539880000000  0.5268100000000  0.5433760000000 1.0
C      1  0.4279760000000  0.4705210000000  0.4358430000000 1.0
C      1  0.6074200000000  0.5112550000000  0.5102620000000 1.0
C      1  0.5399450000000  0.4235090000000  0.5527690000000 1.0
C      1  0.4900060000000  0.5173040000000  0.5001340000000 1.0
C      1  0.6182700000000  0.5571630000000  0.5445240000000 1.0
C      1  0.5457050000000  0.5823080000000  0.4482120000000 1.0
C      1  0.4122560000000  0.4472460000000  0.4824100000000 1.0
C      1  0.5194410000000  0.5388480000000  0.5622740000000 1.0
C      1  0.4534960000000  0.5426410000000  0.4553520000000 1.0
C      1  0.5914560000000  0.5392200000000  0.4990240000000 1.0
C      1  0.4416150000000  0.4949060000000  0.5904510000000 1.0
C      1  0.4548040000000  0.4761880000000  0.5583260000000 1.0
C      1  0.4838430000000  0.4171610000000  0.4756760000000 1.0
C      1  0.5647770000000  0.5275240000000  0.4824640000000 1.0
C      1  0.6072440000000  0.5376980000000  0.4362960000000 1.0
C      1  0.4694310000000  0.5815440000000  0.4797210000000 1.0
C      1  0.4600970000000  0.5787060000000  0.5300440000000 1.0
C      1  0.4110660000000  0.4828490000000  0.5350800000000 1.0
C      1  0.5390030000000  0.5096880000000  0.4332830000000 1.0
C      1  0.4745160000000  0.4855380000000  0.5247610000000 1.0
C      1  0.4627560000000  0.5092120000000  0.5559020000000 1.0
C      1  0.5506000000000  0.5570810000000  0.4293900000000 1.0
C      1  0.4930100000000  0.4395820000000  0.5101060000000 1.0
C      1  0.5315900000000  0.4799780000000  0.6047010000000 1.0
C      1  0.5768660000000  0.5480480000000  0.4321550000000 1.0
C      1  0.4316360000000  0.4758240000000  0.5017140000000 1.0
C      1  0.4642940000000  0.4343590000000  0.5250320000000 1.0
C      1  0.4992170000000  0.5412190000000  0.5213880000000 1.0
C      1  0.4622040000000  0.4282390000000  0.5649870000000 1.0
C      1  0.5198300000000  0.4856280000000  0.4259360000000 1.0
C      1  0.4183180000000  0.4538170000000  0.5318010000000 1.0
C      1  0.4552190000000  0.4267400000000  0.4594390000000 1.0
C      1  0.4955920000000  0.4311980000000  0.5712560000000 1.0
C      1  0.4885480000000  0.5241210000000  0.5634050000000 1.0
C      1  0.4933110000000  0.5121380000000  0.4697550000000 1.0
C      1  0.4248250000000  0.5452320000000  0.5547210000000 1.0
C      1  0.4612350000000  0.5025080000000  0.4914550000000 1.0
C      1  0.4601940000000  0.4728190000000  0.4742800000000 1.0
C      1  0.5613700000000  0.5042520000000  0.4502810000000 1.0
C      1  0.4677210000000  0.5049270000000  0.4312260000000 1.0
C      1  0.4453780000000  0.4493480000000  0.5462790000000 1.0
C      1  0.5004690000000  0.4354770000000  0.4297440000000 1.0
C      1  0.4828100000000  0.5624630000000  0.5395460000000 1.0
C      1  0.4963920000000  0.4895120000000  0.4081360000000 1.0
C      1  0.4135700000000  0.4923690000000  0.4275520000000 1.0
C      1  0.5463110000000  0.4965020000000  0.5831380000000 1.0
C      1  0.4591770000000  0.4752660000000  0.4402950000000 1.0
C      1  0.5146000000000  0.5098950000000  0.5473370000000 1.0
C      1  0.5022690000000  0.5408340000000  0.4217950000000 1.0
C      1  0.4171920000000  0.4355200000000  0.5085190000000 1.0
C      1  0.4709970000000  0.5502320000000  0.5036780000000 1.0
C      1  0.4453680000000  0.5807390000000  0.5010050000000 1.0
C      1  0.5183580000000  0.4836810000000  0.6275140000000 1.0
C      1  0.5177270000000  0.5696560000000  0.4559480000000 1.0
C      1  0.6108760000000  0.4981120000000  0.4282500000000 1.0
C      1  0.4032230000000  0.5016840000000  0.4717720000000 1.0
C      1  0.4555900000000  0.3972330000000  0.5229210000000 1.0
C      1  0.5446440000000  0.5211710000000  0.5711020000000 1.0
C      1  0.5970410000000  0.4491080000000  0.4582070000000 1.0
C      1  0.5312180000000  0.5360780000000  0.4250130000000 1.0
C      1  0.4631260000000  0.4714150000000  0.5893060000000 1.0
C      1  0.4946890000000  0.5620040000000  0.4408560000000 1.0
C      1  0.5040120000000  0.4040830000000  0.4955250000000 1.0
C      1  0.5331460000000  0.5410910000000  0.5248160000000 1.0
C      1  0.5426130000000  0.5490930000000  0.4966990000000 1.0
C      1  0.4866660000000  0.5179530000000  0.4112500000000 1.0
C      1  0.5374950000000  0.4904830000000  0.5416700000000 1.0
C      1  0.4128270000000  0.5302820000000  0.4979920000000 1.0
C      1  0.5717140000000  0.5653480000000  0.4916460000000 1.0
C      1  0.4777660000000  0.3895690000000  0.5030910000000 1.0
C      1  0.5536230000000  0.4701810000000  0.4694100000000 1.0
C      1  0.4263200000000  0.4932210000000  0.5595320000000 1.0
C      1  0.4929110000000  0.4235750000000  0.5401830000000 1.0
C      1  0.4313410000000  0.5645560000000  0.5280250000000 1.0
C      1  0.5798540000000  0.5182620000000  0.5372710000000 1.0
C      1  0.5558170000000  0.4729230000000  0.5625020000000 1.0
C      1  0.5455230000000  0.4403850000000  0.5257260000000 1.0
C      1  0.6045300000000  0.5394790000000  0.5296350000000 1.0
C      1  0.5549890000000  0.4423330000000  0.4325200000000 1.0
C      1  0.5003200000000  0.5846630000000  0.5579440000000 1.0
C      1  0.4397390000000  0.5503410000000  0.4916250000000 1.0
C      1  0.4365900000000  0.4510130000000  0.4624080000000 1.0
C      1  0.4052160000000  0.5022670000000  0.5158670000000 1.0
C      1  0.5041180000000  0.4987480000000  0.5213080000000 1.0
C      1  0.5269580000000  0.4686450000000  0.4609900000000 1.0
C      1  0.5892500000000  0.4902740000000  0.5266840000000 1.0
C      1  0.4544970000000  0.5118610000000  0.5238430000000 1.0
C      1  0.5090680000000  0.5886310000000  0.5249430000000 1.0
C      1  0.5705800000000  0.4531590000000  0.4543490000000 1.0
C      1  0.4359050000000  0.5229250000000  0.5717460000000 1.0
END
