TITL C-2778429-3646-1081 0.00185733441647572 125000 -916.049149488169 0 0 156 (C1) n - 1
REM
REM in /home/nfs/bkarasulu/CARBON/AIRSS/Generating-Clusters/REBO/Only-C1/SD-CG/HFTN-CG
REM
REM
REM
REM
REM
REM ./C.cell (11c1c37f851c82e70ff6c80c92926a4b)
REM
REM compiler GCC version 9.2.1 20190827 (Red Hat 9.2.1-1)
REM options -cpp -mtune=generic -march=x86-64 -g -O0 -fpre-include=/usr/include/finclude/math-vector-fortran.h
REM seed 580187221 -866445206 -1245049947 -357909898 -211880031 1452400053 -1256455463 -182012730 1183648029 -768315020 1770000749 -1310036364 -61738771 -687990587 1505185086 -65504738 401261329 2012933900 -1316257266 2018396614 1269960359 1563908832 1838235742 1195973282 1333040398 -1060183856 2003443848 -130120292 -1589650268 1580811307 -562842754 173175874 1250098027
REM
CELL 1.54180   50.00000   50.00000   50.00000   90.00000   90.00000   90.00000
LATT -1
SFAC C  
C      1  0.4419540000000  0.4582620000000  0.5191320000000 1.0
C      1  0.5871270000000  0.5061080000000  0.5380060000000 1.0
C      1  0.5543250000000  0.4117820000000  0.5258820000000 1.0
C      1  0.5237650000000  0.4384910000000  0.4233900000000 1.0
C      1  0.4882910000000  0.5581060000000  0.5804180000000 1.0
C      1  0.4927720000000  0.4140310000000  0.4311840000000 1.0
C      1  0.4407090000000  0.4548620000000  0.4793870000000 1.0
C      1  0.4943530000000  0.4199210000000  0.4036940000000 1.0
C      1  0.5170820000000  0.5650200000000  0.4166610000000 1.0
C      1  0.4746910000000  0.4789440000000  0.5092300000000 1.0
C      1  0.5421620000000  0.4273660000000  0.4487210000000 1.0
C      1  0.4477380000000  0.5198870000000  0.3895780000000 1.0
C      1  0.5518770000000  0.5150730000000  0.4749150000000 1.0
C      1  0.4395330000000  0.4832690000000  0.5830810000000 1.0
C      1  0.4582230000000  0.5588040000000  0.5111270000000 1.0
C      1  0.4321280000000  0.4753940000000  0.4564510000000 1.0
C      1  0.5434120000000  0.4774590000000  0.6130380000000 1.0
C      1  0.5777010000000  0.4842350000000  0.5061630000000 1.0
C      1  0.5274830000000  0.4987400000000  0.4801300000000 1.0
C      1  0.4118530000000  0.4987770000000  0.4663380000000 1.0
C      1  0.5416420000000  0.5885270000000  0.5209940000000 1.0
C      1  0.4212260000000  0.5401660000000  0.5108930000000 1.0
C      1  0.5414350000000  0.5787250000000  0.4900490000000 1.0
C      1  0.5794420000000  0.4477070000000  0.4566400000000 1.0
C      1  0.5676970000000  0.5270390000000  0.5699560000000 1.0
C      1  0.4909000000000  0.6025410000000  0.5203780000000 1.0
C      1  0.5864390000000  0.4532730000000  0.5308320000000 1.0
C      1  0.4442090000000  0.4888780000000  0.5047810000000 1.0
C      1  0.5022930000000  0.5326510000000  0.5804410000000 1.0
C      1  0.5082350000000  0.4744730000000  0.4047790000000 1.0
C      1  0.4781160000000  0.6018320000000  0.4827510000000 1.0
C      1  0.4615130000000  0.5103600000000  0.4612130000000 1.0
C      1  0.5709660000000  0.5718550000000  0.4498390000000 1.0
C      1  0.4574270000000  0.5694190000000  0.4718720000000 1.0
C      1  0.5006130000000  0.5382900000000  0.4053430000000 1.0
C      1  0.5506650000000  0.4823710000000  0.5536940000000 1.0
C      1  0.5863270000000  0.5546160000000  0.4986530000000 1.0
C      1  0.4877700000000  0.4048610000000  0.5805900000000 1.0
C      1  0.4212040000000  0.5509460000000  0.4557200000000 1.0
C      1  0.4331520000000  0.4220240000000  0.4842390000000 1.0
C      1  0.5818560000000  0.5438900000000  0.4400860000000 1.0
C      1  0.5435230000000  0.5482400000000  0.4773910000000 1.0
C      1  0.5073350000000  0.4501940000000  0.4820720000000 1.0
C      1  0.4877350000000  0.4614080000000  0.5349300000000 1.0
C      1  0.5896230000000  0.4776880000000  0.5477560000000 1.0
C      1  0.5079760000000  0.5921670000000  0.4695510000000 1.0
C      1  0.3891150000000  0.4616080000000  0.4902580000000 1.0
C      1  0.5212200000000  0.4077740000000  0.5287770000000 1.0
C      1  0.4660500000000  0.3913530000000  0.5152490000000 1.0
C      1  0.4807190000000  0.5386240000000  0.4315680000000 1.0
C      1  0.5092890000000  0.5271850000000  0.4425390000000 1.0
C      1  0.4327100000000  0.5365590000000  0.4011950000000 1.0
C      1  0.5421080000000  0.4156560000000  0.4961160000000 1.0
C      1  0.4121890000000  0.5053260000000  0.4360960000000 1.0
C      1  0.4936220000000  0.4059930000000  0.5109970000000 1.0
C      1  0.4371330000000  0.5094350000000  0.4817290000000 1.0
C      1  0.4945210000000  0.4780050000000  0.5916220000000 1.0
C      1  0.5636940000000  0.4872330000000  0.4334250000000 1.0
C      1  0.5350880000000  0.5618510000000  0.5604150000000 1.0
C      1  0.5987020000000  0.5023260000000  0.4986950000000 1.0
C      1  0.5709990000000  0.5771010000000  0.4781960000000 1.0
C      1  0.5252400000000  0.4664720000000  0.5041430000000 1.0
C      1  0.5882600000000  0.5405570000000  0.5767150000000 1.0
C      1  0.4657300000000  0.4344230000000  0.5134570000000 1.0
C      1  0.5703020000000  0.5519720000000  0.5269930000000 1.0
C      1  0.4788010000000  0.4097540000000  0.4581210000000 1.0
C      1  0.5420450000000  0.5101660000000  0.5615200000000 1.0
C      1  0.4802440000000  0.4595150000000  0.4544420000000 1.0
C      1  0.5967150000000  0.4495660000000  0.5019360000000 1.0
C      1  0.5754170000000  0.5382720000000  0.4711070000000 1.0
C      1  0.5250280000000  0.4772180000000  0.4330390000000 1.0
C      1  0.4095720000000  0.4447880000000  0.4883700000000 1.0
C      1  0.4342490000000  0.4319720000000  0.5374530000000 1.0
C      1  0.4891610000000  0.5018860000000  0.5710660000000 1.0
C      1  0.4647670000000  0.5240550000000  0.5697220000000 1.0
C      1  0.5387880000000  0.4508380000000  0.5506840000000 1.0
C      1  0.4744420000000  0.5637580000000  0.4429160000000 1.0
C      1  0.4381140000000  0.4371320000000  0.5638540000000 1.0
C      1  0.4182010000000  0.5562860000000  0.4813700000000 1.0
C      1  0.4534550000000  0.4237340000000  0.4583670000000 1.0
C      1  0.5521290000000  0.5701620000000  0.5391150000000 1.0
C      1  0.5640050000000  0.5328250000000  0.4182350000000 1.0
C      1  0.4909790000000  0.5020660000000  0.5255200000000 1.0
C      1  0.4527700000000  0.4532120000000  0.4413430000000 1.0
C      1  0.5288880000000  0.5363650000000  0.5709850000000 1.0
C      1  0.4687520000000  0.5508530000000  0.5400990000000 1.0
C      1  0.4904910000000  0.4852920000000  0.4514760000000 1.0
C      1  0.4959790000000  0.4294880000000  0.5687750000000 1.0
C      1  0.4271490000000  0.5320550000000  0.4319760000000 1.0
C      1  0.4350860000000  0.5825540000000  0.5568170000000 1.0
C      1  0.4557490000000  0.5886460000000  0.5002000000000 1.0
C      1  0.5455640000000  0.4344450000000  0.5934610000000 1.0
C      1  0.4456430000000  0.4753880000000  0.4182410000000 1.0
C      1  0.5598270000000  0.4595430000000  0.5977460000000 1.0
C      1  0.5150750000000  0.4696610000000  0.5421140000000 1.0
C      1  0.4649440000000  0.4989110000000  0.4072200000000 1.0
C      1  0.4537490000000  0.5389250000000  0.4868610000000 1.0
C      1  0.4194660000000  0.4845880000000  0.4196470000000 1.0
C      1  0.5261500000000  0.4374540000000  0.5151750000000 1.0
C      1  0.5267010000000  0.4126700000000  0.4724620000000 1.0
C      1  0.5739030000000  0.4976620000000  0.4577530000000 1.0
C      1  0.5632120000000  0.4367490000000  0.5373830000000 1.0
C      1  0.5146060000000  0.4992170000000  0.5501290000000 1.0
C      1  0.4569740000000  0.5361560000000  0.5916880000000 1.0
C      1  0.4691730000000  0.4816630000000  0.5519870000000 1.0
C      1  0.4296740000000  0.5089680000000  0.5814180000000 1.0
C      1  0.4413230000000  0.5148580000000  0.5210710000000 1.0
C      1  0.4193910000000  0.4929560000000  0.5462790000000 1.0
C      1  0.4885250000000  0.4293860000000  0.5357820000000 1.0
C      1  0.5989040000000  0.5274290000000  0.5142790000000 1.0
C      1  0.4839390000000  0.5243910000000  0.4825850000000 1.0
C      1  0.5076070000000  0.4460310000000  0.3966890000000 1.0
C      1  0.4138760000000  0.5240110000000  0.5384510000000 1.0
C      1  0.4414060000000  0.4111640000000  0.5120940000000 1.0
C      1  0.4577950000000  0.5192150000000  0.4321680000000 1.0
C      1  0.4997040000000  0.5571300000000  0.5423760000000 1.0
C      1  0.5973090000000  0.4891940000000  0.4717530000000 1.0
C      1  0.4916160000000  0.5715760000000  0.4916290000000 1.0
C      1  0.5514810000000  0.5077630000000  0.4180740000000 1.0
C      1  0.5499190000000  0.4503890000000  0.4715160000000 1.0
C      1  0.4201820000000  0.5733960000000  0.5089640000000 1.0
C      1  0.4767880000000  0.5836850000000  0.5614000000000 1.0
C      1  0.5147610000000  0.5434370000000  0.5221440000000 1.0
C      1  0.5272480000000  0.4341360000000  0.5728070000000 1.0
C      1  0.5516710000000  0.4563440000000  0.4321000000000 1.0
C      1  0.5009770000000  0.5833890000000  0.4379260000000 1.0
C      1  0.4956730000000  0.5048520000000  0.3997480000000 1.0
C      1  0.5271410000000  0.4717330000000  0.4645880000000 1.0
C      1  0.4699860000000  0.5956830000000  0.5368730000000 1.0
C      1  0.5514100000000  0.4761800000000  0.5226960000000 1.0
C      1  0.4262930000000  0.5336370000000  0.5654910000000 1.0
C      1  0.4424260000000  0.4790490000000  0.5434120000000 1.0
C      1  0.5476270000000  0.5601510000000  0.4276960000000 1.0
C      1  0.5206110000000  0.5080090000000  0.4215930000000 1.0
C      1  0.4736860000000  0.4543400000000  0.4879090000000 1.0
C      1  0.5098610000000  0.5799010000000  0.5656090000000 1.0
C      1  0.5169950000000  0.5998200000000  0.5017520000000 1.0
C      1  0.5203080000000  0.4980640000000  0.5106700000000 1.0
C      1  0.5624540000000  0.5244780000000  0.5303900000000 1.0
C      1  0.5041410000000  0.4392830000000  0.4499510000000 1.0
C      1  0.4375340000000  0.5935970000000  0.5269210000000 1.0
C      1  0.3880000000000  0.4875750000000  0.4817990000000 1.0
C      1  0.5284340000000  0.5483120000000  0.4508710000000 1.0
C      1  0.4671710000000  0.5194460000000  0.5361760000000 1.0
C      1  0.5346780000000  0.5216810000000  0.5239440000000 1.0
C      1  0.5629810000000  0.4548720000000  0.4985620000000 1.0
C      1  0.4440640000000  0.5567610000000  0.5600290000000 1.0
C      1  0.4719930000000  0.5947170000000  0.4523720000000 1.0
C      1  0.5166120000000  0.4806800000000  0.6085340000000 1.0
C      1  0.4804340000000  0.4545260000000  0.5824430000000 1.0
C      1  0.5995560000000  0.4600600000000  0.4734510000000 1.0
C      1  0.5732820000000  0.4713220000000  0.5748020000000 1.0
C      1  0.5001280000000  0.5456900000000  0.4973240000000 1.0
C      1  0.5024090000000  0.5076320000000  0.4642650000000 1.0
C      1  0.4519420000000  0.4574570000000  0.5787410000000 1.0
C      1  0.4989200000000  0.4080330000000  0.4793490000000 1.0
END
