TITL C-2778425-5191-261 0.00121532587431493 125000 -734.366908472015 0 0 128 (C1) n - 1
REM
REM in /home/nfs/bkarasulu/CARBON/AIRSS/Generating-Clusters/REBO/Only-C1/SD-CG/HFTN-CG
REM
REM
REM
REM
REM
REM ./C.cell (11c1c37f851c82e70ff6c80c92926a4b)
REM
REM compiler GCC version 9.2.1 20190827 (Red Hat 9.2.1-1)
REM options -cpp -mtune=generic -march=x86-64 -g -O0 -fpre-include=/usr/include/finclude/math-vector-fortran.h
REM seed 870866016 1796732059 983933539 -55272682 1928124679 325388073 884845263 -1088507583 -1939144010 2108610426 780668761 156584227 158427143 -452503950 1496084901 -1549905779 -905508533 -913483391 -1025889872 1581941151 -1200744291 790712150 330881959 292311266 958999396 -107703470 -1225686093 253796486 -1307568969 -117208330 -609314583 -1713415302 -861760933
REM
CELL 1.54180   50.00000   50.00000   50.00000   90.00000   90.00000   90.00000
LATT -1
SFAC C  
C      1  0.4766650000000  0.4090090000000  0.4747200000000 1.0
C      1  0.5101820000000  0.4803330000000  0.5311690000000 1.0
C      1  0.5434310000000  0.5112440000000  0.5698840000000 1.0
C      1  0.5771000000000  0.5382460000000  0.5279490000000 1.0
C      1  0.4328140000000  0.4740930000000  0.5479130000000 1.0
C      1  0.4938350000000  0.4357120000000  0.5139740000000 1.0
C      1  0.4757650000000  0.4388330000000  0.5570710000000 1.0
C      1  0.4526670000000  0.4601950000000  0.5684150000000 1.0
C      1  0.4869790000000  0.4873580000000  0.5927550000000 1.0
C      1  0.4096350000000  0.5233770000000  0.4949430000000 1.0
C      1  0.5967280000000  0.4923960000000  0.4652860000000 1.0
C      1  0.5286600000000  0.5576810000000  0.4333420000000 1.0
C      1  0.5296160000000  0.4438780000000  0.4983440000000 1.0
C      1  0.5045340000000  0.5854330000000  0.5393800000000 1.0
C      1  0.5070860000000  0.4922340000000  0.4029320000000 1.0
C      1  0.5428180000000  0.4793070000000  0.5766000000000 1.0
C      1  0.4459340000000  0.4769070000000  0.4195520000000 1.0
C      1  0.3971430000000  0.5007310000000  0.5159390000000 1.0
C      1  0.5361810000000  0.5039930000000  0.4747270000000 1.0
C      1  0.5145950000000  0.4982610000000  0.5566380000000 1.0
C      1  0.4482060000000  0.5189990000000  0.5751010000000 1.0
C      1  0.4708200000000  0.5371920000000  0.4193120000000 1.0
C      1  0.5517010000000  0.4329020000000  0.5460670000000 1.0
C      1  0.4825330000000  0.4756700000000  0.5441510000000 1.0
C      1  0.5535320000000  0.4410430000000  0.4573370000000 1.0
C      1  0.4922990000000  0.5049680000000  0.5015780000000 1.0
C      1  0.4635180000000  0.4750100000000  0.4553520000000 1.0
C      1  0.5582730000000  0.5608730000000  0.5698500000000 1.0
C      1  0.5561260000000  0.4979090000000  0.4264560000000 1.0
C      1  0.4420580000000  0.4995830000000  0.4446880000000 1.0
C      1  0.4508800000000  0.4841540000000  0.5214620000000 1.0
C      1  0.5590050000000  0.5630930000000  0.5364340000000 1.0
C      1  0.5462470000000  0.5541070000000  0.4890330000000 1.0
C      1  0.5333060000000  0.4220850000000  0.4743120000000 1.0
C      1  0.5112830000000  0.4729850000000  0.5794800000000 1.0
C      1  0.5347900000000  0.4626510000000  0.5262340000000 1.0
C      1  0.5357810000000  0.5855100000000  0.5256470000000 1.0
C      1  0.5843250000000  0.5266150000000  0.4967150000000 1.0
C      1  0.5005480000000  0.5534610000000  0.4195870000000 1.0
C      1  0.4963950000000  0.5748230000000  0.5673710000000 1.0
C      1  0.4315680000000  0.4626450000000  0.4544720000000 1.0
C      1  0.5031120000000  0.5672680000000  0.5116850000000 1.0
C      1  0.4808970000000  0.4205810000000  0.4429200000000 1.0
C      1  0.5031600000000  0.5509720000000  0.4650350000000 1.0
C      1  0.5049330000000  0.5459770000000  0.5776870000000 1.0
C      1  0.4499960000000  0.5715310000000  0.5064540000000 1.0
C      1  0.5337620000000  0.5403600000000  0.5143980000000 1.0
C      1  0.5383930000000  0.5301590000000  0.4418880000000 1.0
C      1  0.4486920000000  0.5641520000000  0.5536080000000 1.0
C      1  0.4844950000000  0.4915710000000  0.4229520000000 1.0
C      1  0.5068850000000  0.4073740000000  0.4606490000000 1.0
C      1  0.4627300000000  0.4745210000000  0.5897950000000 1.0
C      1  0.5700650000000  0.4984100000000  0.4846620000000 1.0
C      1  0.5319920000000  0.4790210000000  0.4160040000000 1.0
C      1  0.4287740000000  0.5434120000000  0.4664740000000 1.0
C      1  0.5106860000000  0.4653790000000  0.4782650000000 1.0
C      1  0.5063350000000  0.4392050000000  0.4366210000000 1.0
C      1  0.4100760000000  0.4772550000000  0.5227010000000 1.0
C      1  0.5055290000000  0.3977090000000  0.5175240000000 1.0
C      1  0.4885430000000  0.4470820000000  0.4904360000000 1.0
C      1  0.4651430000000  0.4485390000000  0.4757120000000 1.0
C      1  0.5155090000000  0.3994070000000  0.4924830000000 1.0
C      1  0.4672450000000  0.5129650000000  0.4830210000000 1.0
C      1  0.4618560000000  0.4531000000000  0.5303650000000 1.0
C      1  0.5932190000000  0.4659760000000  0.4871230000000 1.0
C      1  0.4705390000000  0.5682440000000  0.4804210000000 1.0
C      1  0.4332780000000  0.4325700000000  0.4466280000000 1.0
C      1  0.5410320000000  0.5788540000000  0.4460170000000 1.0
C      1  0.5156280000000  0.5996750000000  0.4776360000000 1.0
C      1  0.5682680000000  0.4423340000000  0.4881730000000 1.0
C      1  0.5828750000000  0.4862850000000  0.5463640000000 1.0
C      1  0.4417310000000  0.4305490000000  0.4757110000000 1.0
C      1  0.4307320000000  0.5396830000000  0.5554940000000 1.0
C      1  0.5465930000000  0.5140160000000  0.5202630000000 1.0
C      1  0.5574870000000  0.4645350000000  0.5526050000000 1.0
C      1  0.5163740000000  0.5675330000000  0.4853600000000 1.0
C      1  0.5394240000000  0.5968860000000  0.4994460000000 1.0
C      1  0.5511280000000  0.5823480000000  0.4728720000000 1.0
C      1  0.5072900000000  0.5226660000000  0.4124360000000 1.0
C      1  0.5468100000000  0.4800150000000  0.4528050000000 1.0
C      1  0.4751960000000  0.5412380000000  0.4997820000000 1.0
C      1  0.5185640000000  0.5043990000000  0.4388850000000 1.0
C      1  0.4969750000000  0.4817090000000  0.4528210000000 1.0
C      1  0.4721090000000  0.5021420000000  0.5588810000000 1.0
C      1  0.5878570000000  0.5253680000000  0.4626300000000 1.0
C      1  0.5548150000000  0.4849010000000  0.5184400000000 1.0
C      1  0.5642660000000  0.5134700000000  0.5479470000000 1.0
C      1  0.5262480000000  0.4263150000000  0.5571390000000 1.0
C      1  0.4985040000000  0.4186860000000  0.5413650000000 1.0
C      1  0.4895660000000  0.5903970000000  0.4665650000000 1.0
C      1  0.4125470000000  0.4702830000000  0.4743730000000 1.0
C      1  0.4306580000000  0.5062270000000  0.5487050000000 1.0
C      1  0.4728240000000  0.5097260000000  0.5262180000000 1.0
C      1  0.4687740000000  0.5668190000000  0.5761240000000 1.0
C      1  0.4501930000000  0.5421370000000  0.5205320000000 1.0
C      1  0.5952870000000  0.5093400000000  0.5237560000000 1.0
C      1  0.5280490000000  0.5521660000000  0.5457410000000 1.0
C      1  0.4829260000000  0.5672380000000  0.4427120000000 1.0
C      1  0.4867810000000  0.5182110000000  0.5851910000000 1.0
C      1  0.5005560000000  0.5380210000000  0.5207500000000 1.0
C      1  0.5055170000000  0.5189400000000  0.4733790000000 1.0
C      1  0.4120140000000  0.4592220000000  0.5010210000000 1.0
C      1  0.5768050000000  0.4659470000000  0.4572840000000 1.0
C      1  0.5366890000000  0.5402330000000  0.5772710000000 1.0
C      1  0.4557830000000  0.4296150000000  0.4286800000000 1.0
C      1  0.4771840000000  0.5309840000000  0.4583090000000 1.0
C      1  0.4646260000000  0.5115740000000  0.4256560000000 1.0
C      1  0.5879770000000  0.4780270000000  0.5140390000000 1.0
C      1  0.5707230000000  0.5238350000000  0.4345650000000 1.0
C      1  0.5052540000000  0.5266610000000  0.5507840000000 1.0
C      1  0.4320690000000  0.5194000000000  0.5199590000000 1.0
C      1  0.4667710000000  0.4103020000000  0.4993390000000 1.0
C      1  0.5539180000000  0.4714550000000  0.4892940000000 1.0
C      1  0.5551470000000  0.5323170000000  0.4700900000000 1.0
C      1  0.5549470000000  0.4296270000000  0.5167740000000 1.0
C      1  0.4566160000000  0.4528510000000  0.4120210000000 1.0
C      1  0.4658440000000  0.5424420000000  0.5916800000000 1.0
C      1  0.4541320000000  0.5535830000000  0.4544870000000 1.0
C      1  0.4415220000000  0.4997130000000  0.4946700000000 1.0
C      1  0.5051790000000  0.4450440000000  0.5700690000000 1.0
C      1  0.4518510000000  0.4294660000000  0.5142980000000 1.0
C      1  0.4263690000000  0.5115030000000  0.4672730000000 1.0
C      1  0.4256970000000  0.4343330000000  0.5012400000000 1.0
C      1  0.5191920000000  0.4877960000000  0.4995340000000 1.0
C      1  0.4692410000000  0.5378340000000  0.5455230000000 1.0
C      1  0.5296240000000  0.4544730000000  0.4379940000000 1.0
C      1  0.4769490000000  0.5855100000000  0.5189350000000 1.0
C      1  0.4228880000000  0.5549020000000  0.4944060000000 1.0
END
