TITL C-2778437-8639-132 0.000484739889951507 125000 -568.058518109026 0 0 98 (C1) n - 1
REM
REM in /home/nfs/bkarasulu/CARBON/AIRSS/Generating-Clusters/REBO/Only-C1/SD-CG/HFTN-CG
REM
REM
REM
REM
REM
REM ./C.cell (11c1c37f851c82e70ff6c80c92926a4b)
REM
REM compiler GCC version 9.2.1 20190827 (Red Hat 9.2.1-1)
REM options -cpp -mtune=generic -march=x86-64 -g -O0 -fpre-include=/usr/include/finclude/math-vector-fortran.h
REM seed -395086306 1416756343 -1871338236 395747195 -1326555210 514821920 269616852 50789341 1137038415 1412847868 300787669 -2084949855 -1976534987 661262721 -1795444591 1068040027 -2140511024 -1120338485 1627017424 234035702 -782557381 -1927709566 1974916004 -1109413506 1561233735 -1225455279 -1207484407 1716144988 564047041 823123100 325966377 -135759261 1585765236
REM
CELL 1.54180   50.00000   50.00000   50.00000   90.00000   90.00000   90.00000
LATT -1
SFAC C  
C      1  0.4083490000000  0.5189420000000  0.5015590000000 1.0
C      1  0.4643500000000  0.5207620000000  0.5835860000000 1.0
C      1  0.5136790000000  0.4533560000000  0.4480910000000 1.0
C      1  0.5089350000000  0.5701060000000  0.4917530000000 1.0
C      1  0.5357750000000  0.4997170000000  0.4152570000000 1.0
C      1  0.4924910000000  0.5214850000000  0.4880020000000 1.0
C      1  0.4265440000000  0.4796190000000  0.5247350000000 1.0
C      1  0.5144630000000  0.5221690000000  0.4101780000000 1.0
C      1  0.5293250000000  0.4529600000000  0.5250350000000 1.0
C      1  0.5029270000000  0.4454300000000  0.5114360000000 1.0
C      1  0.5201060000000  0.5504980000000  0.4262800000000 1.0
C      1  0.4852110000000  0.5811240000000  0.4854390000000 1.0
C      1  0.4652240000000  0.5058830000000  0.5395130000000 1.0
C      1  0.4845580000000  0.4921900000000  0.4761390000000 1.0
C      1  0.5361970000000  0.4137250000000  0.5275610000000 1.0
C      1  0.4489930000000  0.4373680000000  0.5037590000000 1.0
C      1  0.5289350000000  0.5096940000000  0.5982280000000 1.0
C      1  0.4615370000000  0.4999930000000  0.4132530000000 1.0
C      1  0.4457180000000  0.5291890000000  0.4568770000000 1.0
C      1  0.4721560000000  0.5710660000000  0.5595570000000 1.0
C      1  0.5306040000000  0.4296050000000  0.4614680000000 1.0
C      1  0.5370600000000  0.5788630000000  0.5366420000000 1.0
C      1  0.4503880000000  0.4571040000000  0.4494870000000 1.0
C      1  0.5428590000000  0.4941200000000  0.4760550000000 1.0
C      1  0.5398880000000  0.5123970000000  0.5732400000000 1.0
C      1  0.4823800000000  0.5158540000000  0.4082820000000 1.0
C      1  0.4630260000000  0.4679220000000  0.5053540000000 1.0
C      1  0.4610860000000  0.4965030000000  0.5140720000000 1.0
C      1  0.4562450000000  0.4923340000000  0.4674070000000 1.0
C      1  0.5662980000000  0.5273020000000  0.5383240000000 1.0
C      1  0.5603010000000  0.5090510000000  0.4329020000000 1.0
C      1  0.4697970000000  0.4718040000000  0.5595160000000 1.0
C      1  0.5963960000000  0.4472420000000  0.5370890000000 1.0
C      1  0.4500150000000  0.5392360000000  0.4982810000000 1.0
C      1  0.5602980000000  0.5761870000000  0.4936840000000 1.0
C      1  0.4300030000000  0.4640700000000  0.4954720000000 1.0
C      1  0.4987000000000  0.5676470000000  0.5694450000000 1.0
C      1  0.4619490000000  0.4411700000000  0.5350410000000 1.0
C      1  0.4165950000000  0.5299910000000  0.4745360000000 1.0
C      1  0.5493890000000  0.5356540000000  0.5600680000000 1.0
C      1  0.5102700000000  0.4153440000000  0.5361840000000 1.0
C      1  0.5649300000000  0.5368340000000  0.4343870000000 1.0
C      1  0.5072920000000  0.5196250000000  0.5186990000000 1.0
C      1  0.4836640000000  0.4184570000000  0.4651120000000 1.0
C      1  0.5110540000000  0.4096470000000  0.4670430000000 1.0
C      1  0.5382500000000  0.5668500000000  0.5087730000000 1.0
C      1  0.5639390000000  0.4902540000000  0.4543300000000 1.0
C      1  0.5305540000000  0.4623920000000  0.5534790000000 1.0
C      1  0.5018180000000  0.5056700000000  0.4526080000000 1.0
C      1  0.4930160000000  0.4835200000000  0.5792290000000 1.0
C      1  0.5344660000000  0.4677630000000  0.4263810000000 1.0
C      1  0.5082880000000  0.4583190000000  0.5724750000000 1.0
C      1  0.4462140000000  0.5051760000000  0.5638820000000 1.0
C      1  0.5455220000000  0.5562680000000  0.4326440000000 1.0
C      1  0.4754430000000  0.5268500000000  0.4585860000000 1.0
C      1  0.4477820000000  0.4951150000000  0.4353240000000 1.0
C      1  0.4541160000000  0.5742920000000  0.5353980000000 1.0
C      1  0.4916680000000  0.5117090000000  0.5838570000000 1.0
C      1  0.4827820000000  0.4208980000000  0.5168020000000 1.0
C      1  0.5257700000000  0.5177190000000  0.4662270000000 1.0
C      1  0.5960890000000  0.4883110000000  0.4798060000000 1.0
C      1  0.5375960000000  0.5331720000000  0.5113210000000 1.0
C      1  0.5185100000000  0.5403630000000  0.4865520000000 1.0
C      1  0.5646110000000  0.4501720000000  0.4927200000000 1.0
C      1  0.4849670000000  0.4694430000000  0.4254250000000 1.0
C      1  0.5293430000000  0.5596640000000  0.5582040000000 1.0
C      1  0.5315260000000  0.4779640000000  0.5033570000000 1.0
C      1  0.4885050000000  0.5269730000000  0.5425560000000 1.0
C      1  0.5170700000000  0.4907850000000  0.5287960000000 1.0
C      1  0.4530780000000  0.5768040000000  0.4751240000000 1.0
C      1  0.5069380000000  0.4878160000000  0.4291470000000 1.0
C      1  0.5753120000000  0.4820630000000  0.4981610000000 1.0
C      1  0.5839180000000  0.4676930000000  0.5276220000000 1.0
C      1  0.4605760000000  0.5413770000000  0.5570300000000 1.0
C      1  0.4342020000000  0.5584220000000  0.4674200000000 1.0
C      1  0.4926540000000  0.4405850000000  0.5497450000000 1.0
C      1  0.4539090000000  0.5122610000000  0.4921710000000 1.0
C      1  0.5075330000000  0.5352200000000  0.5681620000000 1.0
C      1  0.4921150000000  0.4666520000000  0.4931460000000 1.0
C      1  0.5180610000000  0.4707350000000  0.4735480000000 1.0
C      1  0.4187860000000  0.5072030000000  0.5238390000000 1.0
C      1  0.4642180000000  0.6058830000000  0.4840150000000 1.0
C      1  0.4427450000000  0.5513150000000  0.5228150000000 1.0
C      1  0.5528630000000  0.4356200000000  0.5139720000000 1.0
C      1  0.5559730000000  0.4434040000000  0.4660350000000 1.0
C      1  0.5599870000000  0.4629770000000  0.4453950000000 1.0
C      1  0.5415980000000  0.4910060000000  0.5524040000000 1.0
C      1  0.5681010000000  0.4933810000000  0.5357620000000 1.0
C      1  0.4323440000000  0.5281500000000  0.5428780000000 1.0
C      1  0.4440110000000  0.4674330000000  0.5439600000000 1.0
C      1  0.5607780000000  0.5111060000000  0.5085970000000 1.0
C      1  0.4677740000000  0.4163400000000  0.4884800000000 1.0
C      1  0.4808500000000  0.4442470000000  0.4470560000000 1.0
C      1  0.4901900000000  0.5376510000000  0.4319120000000 1.0
C      1  0.5424480000000  0.6042780000000  0.5412710000000 1.0
C      1  0.4943420000000  0.4730550000000  0.5384400000000 1.0
C      1  0.4212820000000  0.5047670000000  0.4536400000000 1.0
C      1  0.4296100000000  0.4736800000000  0.4654940000000 1.0
END
