TITL C-2778427-5640-604 -0.000964564454880214 125000 -161.06068229647 0 0 30 (C1) n - 1
REM
REM in /home/nfs/bkarasulu/CARBON/AIRSS/Generating-Clusters/REBO/Only-C1/SD-CG/HFTN-CG
REM
REM
REM
REM
REM
REM ./C.cell (11c1c37f851c82e70ff6c80c92926a4b)
REM
REM compiler GCC version 9.2.1 20190827 (Red Hat 9.2.1-1)
REM options -cpp -mtune=generic -march=x86-64 -g -O0 -fpre-include=/usr/include/finclude/math-vector-fortran.h
REM seed 2077849710 -1407592199 -1670746747 -1635805348 -2125848588 1352899435 1454547988 -1680135844 -1976674439 -1253805737 5414911 2085205930 -1692061845 1605444482 -1293701807 1574759621 -183605846 -1490961611 922013332 -830671497 459179181 183826473 -829037458 -1680197920 1163812191 239136027 -1307356110 535475282 -113919191 -1102489292 -1087246623 -1270680171 1208014019
REM
CELL 1.54180   50.00000   50.00000   50.00000   90.00000   90.00000   90.00000
LATT -1
SFAC C  
C      1  0.4908370000000  0.5348310000000  0.5230520000000 1.0
C      1  0.5109850000000  0.4939560000000  0.4408610000000 1.0
C      1  0.4697360000000  0.4826830000000  0.4906220000000 1.0
C      1  0.4809620000000  0.5583500000000  0.5004360000000 1.0
C      1  0.5018420000000  0.5465790000000  0.5484130000000 1.0
C      1  0.3919720000000  0.4690770000000  0.4315030000000 1.0
C      1  0.5047800000000  0.4571180000000  0.5099080000000 1.0
C      1  0.5157640000000  0.4869870000000  0.4676570000000 1.0
C      1  0.5570370000000  0.5075690000000  0.5223260000000 1.0
C      1  0.5176530000000  0.4435650000000  0.5301090000000 1.0
C      1  0.4902490000000  0.4837410000000  0.5130360000000 1.0
C      1  0.5454530000000  0.4835960000000  0.4753370000000 1.0
C      1  0.5070750000000  0.5092660000000  0.5159630000000 1.0
C      1  0.5476400000000  0.5543840000000  0.4730840000000 1.0
C      1  0.5246890000000  0.5331010000000  0.5554790000000 1.0
C      1  0.5275510000000  0.4554130000000  0.5526890000000 1.0
C      1  0.5640770000000  0.4952290000000  0.4988130000000 1.0
C      1  0.4415940000000  0.5188780000000  0.5004370000000 1.0
C      1  0.5305050000000  0.5073840000000  0.5384190000000 1.0
C      1  0.4453720000000  0.4947230000000  0.4862970000000 1.0
C      1  0.4897170000000  0.5676020000000  0.5613580000000 1.0
C      1  0.4963910000000  0.4655320000000  0.4782290000000 1.0
C      1  0.4093150000000  0.4774060000000  0.4492980000000 1.0
C      1  0.4599860000000  0.5369190000000  0.5097990000000 1.0
C      1  0.4908180000000  0.4443240000000  0.4609010000000 1.0
C      1  0.5199600000000  0.5117480000000  0.4878340000000 1.0
C      1  0.5339350000000  0.5332740000000  0.4803870000000 1.0
C      1  0.5774110000000  0.4787820000000  0.4741820000000 1.0
C      1  0.4269380000000  0.4858700000000  0.4673810000000 1.0
C      1  0.5297560000000  0.4821130000000  0.5561880000000 1.0
END
