TITL C-2778424-3986-822 0.00235883250267202 125000 -322.12041300036 0 0 58 (C1) n - 1
REM
REM in /home/nfs/bkarasulu/CARBON/AIRSS/Generating-Clusters/REBO/Only-C1/SD-CG/HFTN-CG
REM
REM
REM
REM
REM
REM ./C.cell (11c1c37f851c82e70ff6c80c92926a4b)
REM
REM compiler GCC version 9.2.1 20190827 (Red Hat 9.2.1-1)
REM options -cpp -mtune=generic -march=x86-64 -g -O0 -fpre-include=/usr/include/finclude/math-vector-fortran.h
REM seed 689650510 -167812425 1727938269 -1811916579 -803793414 -688638527 -222468249 1686611728 1493435301 1582538360 952795794 -648024810 294890652 1247592816 -2138003305 -379380085 -635283848 -1802087438 -1929911418 1095106589 -369729987 1526704853 -972835481 861750874 1758284327 -2139567410 146198808 -200954364 1712162096 -1802940879 1286515585 1179239427 -208815991
REM
CELL 1.54180   50.00000   50.00000   50.00000   90.00000   90.00000   90.00000
LATT -1
SFAC C  
C      1  0.4810840000000  0.5453800000000  0.4881570000000 1.0
C      1  0.5008730000000  0.4711870000000  0.4361900000000 1.0
C      1  0.5229350000000  0.4389640000000  0.4665860000000 1.0
C      1  0.4887700000000  0.5072010000000  0.5700850000000 1.0
C      1  0.4950950000000  0.5070820000000  0.4588210000000 1.0
C      1  0.5608280000000  0.5221460000000  0.4930180000000 1.0
C      1  0.5199280000000  0.5435150000000  0.4974690000000 1.0
C      1  0.5468790000000  0.4518400000000  0.5416700000000 1.0
C      1  0.4296240000000  0.4959810000000  0.4586070000000 1.0
C      1  0.4732690000000  0.4525840000000  0.5064830000000 1.0
C      1  0.5751260000000  0.5026490000000  0.5122890000000 1.0
C      1  0.4768890000000  0.5007310000000  0.5091910000000 1.0
C      1  0.4710790000000  0.4303640000000  0.4887370000000 1.0
C      1  0.5237670000000  0.4502660000000  0.4978740000000 1.0
C      1  0.5519790000000  0.4784490000000  0.4341620000000 1.0
C      1  0.5497920000000  0.4520160000000  0.5132240000000 1.0
C      1  0.4463070000000  0.5061340000000  0.4840150000000 1.0
C      1  0.4764110000000  0.4919870000000  0.4343580000000 1.0
C      1  0.4942980000000  0.4758610000000  0.5710620000000 1.0
C      1  0.4597900000000  0.4913500000000  0.5362290000000 1.0
C      1  0.4999650000000  0.4444750000000  0.4475630000000 1.0
C      1  0.4749980000000  0.4373710000000  0.4599540000000 1.0
C      1  0.4419080000000  0.5338180000000  0.4556350000000 1.0
C      1  0.5107250000000  0.5136020000000  0.5447810000000 1.0
C      1  0.4885950000000  0.4835760000000  0.4820780000000 1.0
C      1  0.5455860000000  0.5322920000000  0.5498230000000 1.0
C      1  0.4800260000000  0.5312700000000  0.5125810000000 1.0
C      1  0.5542300000000  0.4809160000000  0.5570270000000 1.0
C      1  0.4704180000000  0.5252090000000  0.4689780000000 1.0
C      1  0.4442330000000  0.5213020000000  0.5317690000000 1.0
C      1  0.5398760000000  0.4959980000000  0.4954880000000 1.0
C      1  0.5221490000000  0.5186050000000  0.4413830000000 1.0
C      1  0.5020570000000  0.5641270000000  0.4799160000000 1.0
C      1  0.4243770000000  0.5389990000000  0.4784900000000 1.0
C      1  0.4682950000000  0.5445110000000  0.5382560000000 1.0
C      1  0.5274630000000  0.4870880000000  0.4444840000000 1.0
C      1  0.5220900000000  0.5398610000000  0.5260560000000 1.0
C      1  0.5469200000000  0.5409100000000  0.4766290000000 1.0
C      1  0.4598570000000  0.5217800000000  0.5621800000000 1.0
C      1  0.5231840000000  0.4671910000000  0.5607820000000 1.0
C      1  0.5174800000000  0.4722750000000  0.4724350000000 1.0
C      1  0.4315160000000  0.5253250000000  0.5045710000000 1.0
C      1  0.4531530000000  0.5168150000000  0.4339560000000 1.0
C      1  0.5083070000000  0.4814640000000  0.5341260000000 1.0
C      1  0.5177920000000  0.5144060000000  0.4834300000000 1.0
C      1  0.5329670000000  0.5433160000000  0.4505420000000 1.0
C      1  0.4886420000000  0.5407510000000  0.5641280000000 1.0
C      1  0.5631780000000  0.5087260000000  0.5419800000000 1.0
C      1  0.5653180000000  0.4741850000000  0.5030230000000 1.0
C      1  0.4701290000000  0.4752030000000  0.5549890000000 1.0
C      1  0.4488820000000  0.4790060000000  0.4462420000000 1.0
C      1  0.5383430000000  0.4905270000000  0.5273810000000 1.0
C      1  0.5136980000000  0.5651060000000  0.4535590000000 1.0
C      1  0.4992230000000  0.4601180000000  0.5150020000000 1.0
C      1  0.4536830000000  0.4774210000000  0.4996910000000 1.0
C      1  0.4633060000000  0.4645990000000  0.4696550000000 1.0
C      1  0.5175140000000  0.5505490000000  0.5580770000000 1.0
C      1  0.5251930000000  0.5216190000000  0.5751350000000 1.0
END
