TITL C-2778424-3986-849 0.000854115317457336 125000 -620.400331032781 0 0 107 (C1) n - 1
REM
REM in /home/nfs/bkarasulu/CARBON/AIRSS/Generating-Clusters/REBO/Only-C1/SD-CG/HFTN-CG
REM
REM
REM
REM
REM
REM ./C.cell (11c1c37f851c82e70ff6c80c92926a4b)
REM
REM compiler GCC version 9.2.1 20190827 (Red Hat 9.2.1-1)
REM options -cpp -mtune=generic -march=x86-64 -g -O0 -fpre-include=/usr/include/finclude/math-vector-fortran.h
REM seed 1598781365 852557182 1494250102 -1058699732 -452352383 935855707 367285056 1303065585 1096673583 840696848 548187662 1406462584 578482055 1210270490 927852928 1446055714 1299779480 -2110547138 2028170893 -734568971 562968560 -2840602 1745516848 140459740 -1905255873 916795493 280145850 -1583928202 1695819089 -1233593171 -1607294105 -598288262 213367260
REM
CELL 1.54180   50.00000   50.00000   50.00000   90.00000   90.00000   90.00000
LATT -1
SFAC C  
C      1  0.5802570000000  0.5112370000000  0.4660710000000 1.0
C      1  0.5636830000000  0.5070260000000  0.5609270000000 1.0
C      1  0.4930720000000  0.4298710000000  0.4413100000000 1.0
C      1  0.4894900000000  0.5282910000000  0.5845010000000 1.0
C      1  0.5606950000000  0.5262450000000  0.4243210000000 1.0
C      1  0.4991930000000  0.4856750000000  0.5409140000000 1.0
C      1  0.5310560000000  0.5550660000000  0.5669210000000 1.0
C      1  0.4319700000000  0.4256380000000  0.5034260000000 1.0
C      1  0.5297910000000  0.4648440000000  0.4365700000000 1.0
C      1  0.5030540000000  0.5752260000000  0.5212840000000 1.0
C      1  0.4977510000000  0.4768870000000  0.4569020000000 1.0
C      1  0.5332730000000  0.5189240000000  0.4199190000000 1.0
C      1  0.4536170000000  0.5272340000000  0.4779720000000 1.0
C      1  0.4781030000000  0.4717590000000  0.5202280000000 1.0
C      1  0.4535160000000  0.4740720000000  0.5030850000000 1.0
C      1  0.5421070000000  0.5054880000000  0.5786280000000 1.0
C      1  0.4835910000000  0.5302990000000  0.4939010000000 1.0
C      1  0.5083310000000  0.5091890000000  0.4629580000000 1.0
C      1  0.5655890000000  0.5372780000000  0.4727910000000 1.0
C      1  0.4634820000000  0.5006690000000  0.4343100000000 1.0
C      1  0.5048960000000  0.6034240000000  0.4817570000000 1.0
C      1  0.5253340000000  0.4657540000000  0.5506450000000 1.0
C      1  0.4859170000000  0.5063500000000  0.4147240000000 1.0
C      1  0.4459490000000  0.4856650000000  0.5631820000000 1.0
C      1  0.4912860000000  0.4692930000000  0.4276740000000 1.0
C      1  0.5192500000000  0.4395000000000  0.4456160000000 1.0
C      1  0.5804380000000  0.5064630000000  0.4331760000000 1.0
C      1  0.4438400000000  0.5555710000000  0.4690280000000 1.0
C      1  0.4538740000000  0.5734360000000  0.4962620000000 1.0
C      1  0.4537640000000  0.5636570000000  0.4379980000000 1.0
C      1  0.4528320000000  0.4221060000000  0.5224470000000 1.0
C      1  0.5885660000000  0.5280190000000  0.5152930000000 1.0
C      1  0.5637710000000  0.4879720000000  0.4808530000000 1.0
C      1  0.5498610000000  0.4966140000000  0.5078590000000 1.0
C      1  0.5279430000000  0.5170300000000  0.5173860000000 1.0
C      1  0.4737760000000  0.5082850000000  0.4621030000000 1.0
C      1  0.5189610000000  0.5268290000000  0.5731000000000 1.0
C      1  0.5318990000000  0.5315250000000  0.4732010000000 1.0
C      1  0.4233620000000  0.5272780000000  0.4884130000000 1.0
C      1  0.5735120000000  0.4797830000000  0.5494950000000 1.0
C      1  0.4625040000000  0.5249430000000  0.5168640000000 1.0
C      1  0.4929000000000  0.4530000000000  0.4777200000000 1.0
C      1  0.5135100000000  0.5559320000000  0.4471040000000 1.0
C      1  0.4946950000000  0.4237910000000  0.4924000000000 1.0
C      1  0.4763110000000  0.4534040000000  0.4136620000000 1.0
C      1  0.6126710000000  0.4139670000000  0.5410170000000 1.0
C      1  0.5372420000000  0.5646120000000  0.4792480000000 1.0
C      1  0.4881470000000  0.5400810000000  0.6124940000000 1.0
C      1  0.5043540000000  0.4698550000000  0.5772930000000 1.0
C      1  0.4982770000000  0.5634150000000  0.5456080000000 1.0
C      1  0.5548040000000  0.4592760000000  0.5487490000000 1.0
C      1  0.5277700000000  0.4465310000000  0.5854710000000 1.0
C      1  0.4826510000000  0.5473190000000  0.5601870000000 1.0
C      1  0.5762060000000  0.5473720000000  0.4996680000000 1.0
C      1  0.5159000000000  0.4905420000000  0.4189410000000 1.0
C      1  0.4779890000000  0.4141020000000  0.5117090000000 1.0
C      1  0.5378130000000  0.4374610000000  0.4969680000000 1.0
C      1  0.4669580000000  0.5518430000000  0.4180160000000 1.0
C      1  0.4321790000000  0.5107030000000  0.4300210000000 1.0
C      1  0.5036100000000  0.4467530000000  0.5339100000000 1.0
C      1  0.5884710000000  0.4239240000000  0.5395970000000 1.0
C      1  0.4913330000000  0.4919590000000  0.4865130000000 1.0
C      1  0.4398350000000  0.5181720000000  0.5645290000000 1.0
C      1  0.4974260000000  0.5058090000000  0.5133470000000 1.0
C      1  0.5212810000000  0.4115420000000  0.5394980000000 1.0
C      1  0.5082770000000  0.4311270000000  0.5636920000000 1.0
C      1  0.4040960000000  0.5080370000000  0.4711540000000 1.0
C      1  0.4450960000000  0.4539180000000  0.4485780000000 1.0
C      1  0.4267700000000  0.4527730000000  0.4982810000000 1.0
C      1  0.4346870000000  0.4654950000000  0.5439620000000 1.0
C      1  0.5543330000000  0.5725630000000  0.4576900000000 1.0
C      1  0.4662210000000  0.5795200000000  0.4647570000000 1.0
C      1  0.4825520000000  0.5886830000000  0.5014610000000 1.0
C      1  0.5364700000000  0.4681460000000  0.5021390000000 1.0
C      1  0.4682500000000  0.5066980000000  0.5793240000000 1.0
C      1  0.5314050000000  0.4302610000000  0.4701650000000 1.0
C      1  0.5763070000000  0.4791670000000  0.4479740000000 1.0
C      1  0.4578060000000  0.5380440000000  0.5466260000000 1.0
C      1  0.4787720000000  0.4469590000000  0.5568660000000 1.0
C      1  0.4605950000000  0.4566350000000  0.4776250000000 1.0
C      1  0.4233980000000  0.5298300000000  0.5213140000000 1.0
C      1  0.5146550000000  0.5411410000000  0.4235130000000 1.0
C      1  0.5641000000000  0.5495250000000  0.4414340000000 1.0
C      1  0.4094420000000  0.4975030000000  0.5029850000000 1.0
C      1  0.4421230000000  0.5013610000000  0.5115820000000 1.0
C      1  0.4462910000000  0.4736640000000  0.4305990000000 1.0
C      1  0.5184010000000  0.5099500000000  0.5467830000000 1.0
C      1  0.4522530000000  0.4420880000000  0.5429860000000 1.0
C      1  0.5459580000000  0.4750590000000  0.4566740000000 1.0
C      1  0.4889380000000  0.5347600000000  0.4122430000000 1.0
C      1  0.4096440000000  0.5073240000000  0.4449230000000 1.0
C      1  0.5572300000000  0.5628920000000  0.5138230000000 1.0
C      1  0.5211190000000  0.5800600000000  0.4963090000000 1.0
C      1  0.5058420000000  0.4598730000000  0.5054340000000 1.0
C      1  0.4180920000000  0.4710390000000  0.5211250000000 1.0
C      1  0.4162970000000  0.5258190000000  0.5486160000000 1.0
C      1  0.5342890000000  0.4798980000000  0.5869470000000 1.0
C      1  0.4682820000000  0.4335230000000  0.4530750000000 1.0
C      1  0.4956830000000  0.5769080000000  0.4656350000000 1.0
C      1  0.5627960000000  0.4344890000000  0.5380900000000 1.0
C      1  0.4756410000000  0.4748940000000  0.5733430000000 1.0
C      1  0.5021220000000  0.5458160000000  0.4777580000000 1.0
C      1  0.5417130000000  0.4223820000000  0.5221250000000 1.0
C      1  0.5723290000000  0.5049790000000  0.5279900000000 1.0
C      1  0.5304500000000  0.5465770000000  0.5160300000000 1.0
C      1  0.4464480000000  0.5548990000000  0.5190640000000 1.0
C      1  0.5393370000000  0.5639420000000  0.5416210000000 1.0
END
