TITL C-2778436-5916-1392 -0.00639698991356897 125000 -375.781695131456 0 0 68 (C1) n - 1
REM
REM in /home/nfs/bkarasulu/CARBON/AIRSS/Generating-Clusters/REBO/Only-C1/SD-CG/HFTN-CG
REM
REM
REM
REM
REM
REM ./C.cell (11c1c37f851c82e70ff6c80c92926a4b)
REM
REM compiler GCC version 9.2.1 20190827 (Red Hat 9.2.1-1)
REM options -cpp -mtune=generic -march=x86-64 -g -O0 -fpre-include=/usr/include/finclude/math-vector-fortran.h
REM seed -177592737 -253937251 253544184 -1378535038 1919946309 286603481 -487066140 1483869849 222609633 -26413795 -709108231 -69833342 968820132 1361348737 -467930359 -468384420 445221399 437169784 -1410358310 514591739 304599142 -475130675 -802627799 1918647835 -1619299660 -903568284 -1222947055 -1492014212 1264284686 -2050923154 1475993596 333312945 -668453473
REM
CELL 1.54180   50.00000   50.00000   50.00000   90.00000   90.00000   90.00000
LATT -1
SFAC C  
C      1  0.5021380000000  0.4838610000000  0.5112270000000 1.0
C      1  0.5444010000000  0.5368640000000  0.5374780000000 1.0
C      1  0.4317840000000  0.5059320000000  0.4905220000000 1.0
C      1  0.4459340000000  0.4707240000000  0.4619920000000 1.0
C      1  0.4361150000000  0.4701000000000  0.5319790000000 1.0
C      1  0.4952420000000  0.5462460000000  0.5500220000000 1.0
C      1  0.5440950000000  0.4380380000000  0.4639670000000 1.0
C      1  0.4779040000000  0.5039840000000  0.5111950000000 1.0
C      1  0.4592600000000  0.5293410000000  0.5782230000000 1.0
C      1  0.5222980000000  0.4893620000000  0.4894380000000 1.0
C      1  0.5162370000000  0.4963370000000  0.5497240000000 1.0
C      1  0.5552750000000  0.4621640000000  0.5649740000000 1.0
C      1  0.4948250000000  0.5726580000000  0.5040930000000 1.0
C      1  0.4341000000000  0.4977990000000  0.4637210000000 1.0
C      1  0.4990590000000  0.4790000000000  0.4588440000000 1.0
C      1  0.4730570000000  0.4713470000000  0.4758870000000 1.0
C      1  0.5071460000000  0.4969680000000  0.6021790000000 1.0
C      1  0.5004150000000  0.5169910000000  0.5334300000000 1.0
C      1  0.5498640000000  0.4604870000000  0.4892070000000 1.0
C      1  0.4761090000000  0.4731980000000  0.4360670000000 1.0
C      1  0.5725390000000  0.5259330000000  0.4859270000000 1.0
C      1  0.5449900000000  0.4948400000000  0.4438130000000 1.0
C      1  0.5397030000000  0.5282510000000  0.5085050000000 1.0
C      1  0.5364910000000  0.4754230000000  0.5401910000000 1.0
C      1  0.5268300000000  0.5460610000000  0.5525220000000 1.0
C      1  0.4576400000000  0.5015520000000  0.4394100000000 1.0
C      1  0.4478680000000  0.5238860000000  0.5321190000000 1.0
C      1  0.5116210000000  0.4966570000000  0.5763590000000 1.0
C      1  0.5299400000000  0.4778300000000  0.4267460000000 1.0
C      1  0.5321750000000  0.5245640000000  0.4444670000000 1.0
C      1  0.4801900000000  0.5480050000000  0.5758420000000 1.0
C      1  0.4869760000000  0.5666290000000  0.5950350000000 1.0
C      1  0.5326340000000  0.5517520000000  0.4597640000000 1.0
C      1  0.5357450000000  0.4546020000000  0.5154230000000 1.0
C      1  0.4579450000000  0.5584000000000  0.4723020000000 1.0
C      1  0.4813400000000  0.5071000000000  0.4159200000000 1.0
C      1  0.4507540000000  0.4910330000000  0.5095100000000 1.0
C      1  0.5044890000000  0.4710690000000  0.4200980000000 1.0
C      1  0.4765970000000  0.5269180000000  0.4883620000000 1.0
C      1  0.5537410000000  0.4995030000000  0.4970840000000 1.0
C      1  0.4673360000000  0.4375810000000  0.4964680000000 1.0
C      1  0.6025360000000  0.4653160000000  0.5458290000000 1.0
C      1  0.4988250000000  0.4655350000000  0.5311320000000 1.0
C      1  0.5533850000000  0.5498510000000  0.4857480000000 1.0
C      1  0.5759650000000  0.4701170000000  0.5437030000000 1.0
C      1  0.4825800000000  0.5734970000000  0.4767550000000 1.0
C      1  0.5038450000000  0.5204690000000  0.4258160000000 1.0
C      1  0.4146970000000  0.5253450000000  0.5001120000000 1.0
C      1  0.4945380000000  0.5342570000000  0.4534000000000 1.0
C      1  0.5067790000000  0.5301500000000  0.5027160000000 1.0
C      1  0.4974310000000  0.4108970000000  0.4693060000000 1.0
C      1  0.5107110000000  0.5077380000000  0.4639540000000 1.0
C      1  0.4604540000000  0.4466960000000  0.4471620000000 1.0
C      1  0.4958770000000  0.4246880000000  0.4976170000000 1.0
C      1  0.5211840000000  0.5588470000000  0.4915130000000 1.0
C      1  0.4632650000000  0.5275070000000  0.4591660000000 1.0
C      1  0.4621210000000  0.5405090000000  0.5142850000000 1.0
C      1  0.4521900000000  0.4569790000000  0.5082930000000 1.0
C      1  0.4613700000000  0.4848880000000  0.5591400000000 1.0
C      1  0.4518690000000  0.5114480000000  0.5574390000000 1.0
C      1  0.5246150000000  0.4637000000000  0.4664900000000 1.0
C      1  0.5018840000000  0.5644400000000  0.4572280000000 1.0
C      1  0.4813700000000  0.5588930000000  0.5248120000000 1.0
C      1  0.5585790000000  0.4847490000000  0.4668010000000 1.0
C      1  0.5170050000000  0.4348570000000  0.5131760000000 1.0
C      1  0.4716710000000  0.4285780000000  0.4661580000000 1.0
C      1  0.5625330000000  0.4842040000000  0.5213190000000 1.0
C      1  0.4799200000000  0.4668550000000  0.5508920000000 1.0
END
