TITL C-2778428-5639-1319 0.0393343322142338 125000 -707.960734908021 0 0 120 (C1) n - 1
REM
REM in /home/nfs/bkarasulu/CARBON/AIRSS/Generating-Clusters/REBO/Only-C1/SD-CG/HFTN-CG
REM
REM
REM
REM
REM
REM ./C.cell (11c1c37f851c82e70ff6c80c92926a4b)
REM
REM compiler GCC version 9.2.1 20190827 (Red Hat 9.2.1-1)
REM options -cpp -mtune=generic -march=x86-64 -g -O0 -fpre-include=/usr/include/finclude/math-vector-fortran.h
REM seed 989281213 -531580197 1433784369 -1356451780 -1748018268 417345796 -378187051 1140943193 -1743522122 -637998421 -291171086 1785867221 -1349113193 -1956741537 -450674230 85392103 2020412588 -770234357 1572942484 1069553386 -586244873 10247839 795440358 -1730825508 1249792946 -1038713936 -380010657 1679324620 1053129889 2037465939 -2045408134 1243771148 -942196562
REM
CELL 1.54180   50.00000   50.00000   50.00000   90.00000   90.00000   90.00000
LATT -1
SFAC C  
C      1  0.4095690000000  0.4851250000000  0.4582870000000 1.0
C      1  0.4168060000000  0.4621110000000  0.5433450000000 1.0
C      1  0.4884640000000  0.4369170000000  0.4527920000000 1.0
C      1  0.4657990000000  0.5173650000000  0.4197610000000 1.0
C      1  0.5847010000000  0.5608120000000  0.4707870000000 1.0
C      1  0.5143630000000  0.4945340000000  0.4814500000000 1.0
C      1  0.5124950000000  0.4122440000000  0.5078400000000 1.0
C      1  0.5054490000000  0.4959200000000  0.4496890000000 1.0
C      1  0.4882770000000  0.5112930000000  0.5820550000000 1.0
C      1  0.4158390000000  0.5065300000000  0.4779370000000 1.0
C      1  0.5120770000000  0.5323750000000  0.4354360000000 1.0
C      1  0.5669530000000  0.5793800000000  0.4843630000000 1.0
C      1  0.4855870000000  0.4636730000000  0.4990570000000 1.0
C      1  0.4981930000000  0.4840350000000  0.5232900000000 1.0
C      1  0.4911500000000  0.5319930000000  0.4587070000000 1.0
C      1  0.5284280000000  0.5253120000000  0.5268940000000 1.0
C      1  0.5325110000000  0.4422160000000  0.5644310000000 1.0
C      1  0.5611900000000  0.4908610000000  0.4295880000000 1.0
C      1  0.5236560000000  0.5443950000000  0.5798760000000 1.0
C      1  0.4164870000000  0.4584710000000  0.4630210000000 1.0
C      1  0.4757370000000  0.5515010000000  0.5370080000000 1.0
C      1  0.4761100000000  0.4684580000000  0.4182060000000 1.0
C      1  0.5847840000000  0.5233620000000  0.5070380000000 1.0
C      1  0.5192510000000  0.5623280000000  0.4314680000000 1.0
C      1  0.4856310000000  0.4392730000000  0.5462690000000 1.0
C      1  0.4883410000000  0.5949850000000  0.5137550000000 1.0
C      1  0.4269890000000  0.4525070000000  0.4939090000000 1.0
C      1  0.5502140000000  0.5262890000000  0.5718110000000 1.0
C      1  0.4898050000000  0.5593760000000  0.4801540000000 1.0
C      1  0.5854270000000  0.5225350000000  0.5358580000000 1.0
C      1  0.5467150000000  0.4777170000000  0.4978580000000 1.0
C      1  0.5169420000000  0.4635560000000  0.4888280000000 1.0
C      1  0.4161220000000  0.5254210000000  0.5402520000000 1.0
C      1  0.5082730000000  0.6041440000000  0.4970870000000 1.0
C      1  0.5198920000000  0.4616670000000  0.5287550000000 1.0
C      1  0.4379070000000  0.4209510000000  0.4837140000000 1.0
C      1  0.5897750000000  0.4527990000000  0.5077330000000 1.0
C      1  0.4328210000000  0.4469200000000  0.4387180000000 1.0
C      1  0.5803980000000  0.4945140000000  0.5445150000000 1.0
C      1  0.5603430000000  0.4084040000000  0.5178050000000 1.0
C      1  0.4946380000000  0.4732050000000  0.5741880000000 1.0
C      1  0.5360850000000  0.5549030000000  0.5145780000000 1.0
C      1  0.4582340000000  0.4463780000000  0.5059090000000 1.0
C      1  0.5160720000000  0.4465990000000  0.4370990000000 1.0
C      1  0.4904520000000  0.4119950000000  0.4644280000000 1.0
C      1  0.4444040000000  0.4921260000000  0.4145850000000 1.0
C      1  0.4900480000000  0.4976330000000  0.5507540000000 1.0
C      1  0.5489250000000  0.5080820000000  0.5433720000000 1.0
C      1  0.5053010000000  0.4489840000000  0.5646890000000 1.0
C      1  0.4631560000000  0.4810120000000  0.5748980000000 1.0
C      1  0.5802770000000  0.4812750000000  0.4562350000000 1.0
C      1  0.5368640000000  0.5102570000000  0.5959480000000 1.0
C      1  0.5920560000000  0.4632040000000  0.4754190000000 1.0
C      1  0.5465050000000  0.4181480000000  0.4738250000000 1.0
C      1  0.5822540000000  0.4226120000000  0.5064770000000 1.0
C      1  0.4786190000000  0.4932350000000  0.4373210000000 1.0
C      1  0.4948600000000  0.5766050000000  0.5372990000000 1.0
C      1  0.4507870000000  0.5657070000000  0.4756630000000 1.0
C      1  0.5131350000000  0.5726890000000  0.5653920000000 1.0
C      1  0.5337590000000  0.5121000000000  0.4620190000000 1.0
C      1  0.4622820000000  0.4143060000000  0.5019390000000 1.0
C      1  0.4241630000000  0.5537590000000  0.4900400000000 1.0
C      1  0.5129220000000  0.5040240000000  0.5990130000000 1.0
C      1  0.5612760000000  0.5003000000000  0.4682930000000 1.0
C      1  0.4992180000000  0.5750620000000  0.4515430000000 1.0
C      1  0.5701060000000  0.5410520000000  0.5513070000000 1.0
C      1  0.4675210000000  0.5399310000000  0.5067540000000 1.0
C      1  0.5401790000000  0.5421860000000  0.4651160000000 1.0
C      1  0.5176480000000  0.5873700000000  0.4773430000000 1.0
C      1  0.4548920000000  0.4811650000000  0.5414540000000 1.0
C      1  0.4556640000000  0.5410850000000  0.4336400000000 1.0
C      1  0.5962770000000  0.5417710000000  0.4887070000000 1.0
C      1  0.4669250000000  0.4546040000000  0.5335240000000 1.0
C      1  0.4120870000000  0.4996360000000  0.5182930000000 1.0
C      1  0.5454490000000  0.4631480000000  0.4420360000000 1.0
C      1  0.4334970000000  0.5002960000000  0.4427390000000 1.0
C      1  0.4884110000000  0.4077690000000  0.4926050000000 1.0
C      1  0.4134840000000  0.5347950000000  0.4686060000000 1.0
C      1  0.4429820000000  0.5138070000000  0.5648250000000 1.0
C      1  0.5250450000000  0.4405790000000  0.4676510000000 1.0
C      1  0.4147970000000  0.4717580000000  0.5173520000000 1.0
C      1  0.5639120000000  0.4464990000000  0.5548380000000 1.0
C      1  0.4902290000000  0.5407780000000  0.5725060000000 1.0
C      1  0.5529050000000  0.4573910000000  0.4729510000000 1.0
C      1  0.4495980000000  0.4363530000000  0.4610800000000 1.0
C      1  0.4665100000000  0.5191850000000  0.5429460000000 1.0
C      1  0.4274870000000  0.5280550000000  0.5092350000000 1.0
C      1  0.5203510000000  0.4328640000000  0.5276010000000 1.0
C      1  0.4516190000000  0.5048300000000  0.5171450000000 1.0
C      1  0.4361770000000  0.5506130000000  0.5423610000000 1.0
C      1  0.5380980000000  0.5658530000000  0.4864660000000 1.0
C      1  0.5394990000000  0.4038850000000  0.4977090000000 1.0
C      1  0.5108170000000  0.5092980000000  0.5088190000000 1.0
C      1  0.5762350000000  0.4330610000000  0.4760910000000 1.0
C      1  0.5479370000000  0.4770960000000  0.5300650000000 1.0
C      1  0.5288650000000  0.5778140000000  0.5370820000000 1.0
C      1  0.4311990000000  0.5305730000000  0.4456980000000 1.0
C      1  0.4988310000000  0.4549200000000  0.4128840000000 1.0
C      1  0.5131230000000  0.5426360000000  0.5473960000000 1.0
C      1  0.5470610000000  0.5482250000000  0.4264590000000 1.0
C      1  0.5586930000000  0.5630360000000  0.5376650000000 1.0
C      1  0.4674590000000  0.5630870000000  0.4477230000000 1.0
C      1  0.4446670000000  0.5634190000000  0.5150790000000 1.0
C      1  0.4693840000000  0.5787830000000  0.4980180000000 1.0
C      1  0.5275250000000  0.4882190000000  0.4305600000000 1.0
C      1  0.4590210000000  0.4859540000000  0.4607720000000 1.0
C      1  0.4950980000000  0.5285750000000  0.4924740000000 1.0
C      1  0.4463590000000  0.4611560000000  0.4165460000000 1.0
C      1  0.4705440000000  0.4589790000000  0.4700560000000 1.0
C      1  0.4591770000000  0.5070330000000  0.5950770000000 1.0
C      1  0.4475750000000  0.5050930000000  0.4838270000000 1.0
C      1  0.4306110000000  0.4819570000000  0.5646480000000 1.0
C      1  0.4429740000000  0.5358620000000  0.5908260000000 1.0
C      1  0.5669730000000  0.5504350000000  0.4494760000000 1.0
C      1  0.5787620000000  0.4649070000000  0.5339930000000 1.0
C      1  0.5401040000000  0.5170340000000  0.4228460000000 1.0
C      1  0.5674630000000  0.5041040000000  0.4968250000000 1.0
C      1  0.5472710000000  0.4213890000000  0.5418560000000 1.0
C      1  0.4586350000000  0.5505340000000  0.5663840000000 1.0
C      1  0.4605180000000  0.5330910000000  0.4737860000000 1.0
END
