TITL C-2778428-5639-862 0.00072462749269057 125000 -213.466789513367 0 0 37 (C1) n - 1
REM
REM in /home/nfs/bkarasulu/CARBON/AIRSS/Generating-Clusters/REBO/Only-C1/SD-CG/HFTN-CG
REM
REM
REM
REM
REM
REM ./C.cell (11c1c37f851c82e70ff6c80c92926a4b)
REM
REM compiler GCC version 9.2.1 20190827 (Red Hat 9.2.1-1)
REM options -cpp -mtune=generic -march=x86-64 -g -O0 -fpre-include=/usr/include/finclude/math-vector-fortran.h
REM seed 361426017 1714854846 -1867419330 1715772938 -748165258 838132373 -1246926674 -1135778845 241263900 789407297 -970530043 528050150 -934597249 -993256795 -1850591755 853497023 -631332658 -1355557042 295112052 78593990 1787424689 -2110839585 947812354 -2111917778 -320215907 -12708831 1880756991 593982042 1395719844 1024585133 -912731867 1665578678 -937058922
REM
CELL 1.54180   50.00000   50.00000   50.00000   90.00000   90.00000   90.00000
LATT -1
SFAC C  
C      1  0.4910560000000  0.4861510000000  0.4915900000000 1.0
C      1  0.4798550000000  0.5429300000000  0.4713600000000 1.0
C      1  0.4798790000000  0.5448850000000  0.5267380000000 1.0
C      1  0.5491680000000  0.5356920000000  0.5250220000000 1.0
C      1  0.5019420000000  0.4995720000000  0.5381280000000 1.0
C      1  0.5490480000000  0.4775720000000  0.5332460000000 1.0
C      1  0.5228260000000  0.5010810000000  0.4418900000000 1.0
C      1  0.4916580000000  0.5154250000000  0.5186940000000 1.0
C      1  0.5040240000000  0.4861090000000  0.5667700000000 1.0
C      1  0.5258100000000  0.4415000000000  0.4876630000000 1.0
C      1  0.4750010000000  0.5042110000000  0.4334390000000 1.0
C      1  0.4581430000000  0.4987380000000  0.5362440000000 1.0
C      1  0.5063770000000  0.5394150000000  0.5470010000000 1.0
C      1  0.4914040000000  0.5551790000000  0.4983670000000 1.0
C      1  0.4427590000000  0.5020860000000  0.4786130000000 1.0
C      1  0.5184490000000  0.5410820000000  0.4890060000000 1.0
C      1  0.5511770000000  0.5061080000000  0.4861500000000 1.0
C      1  0.4572910000000  0.4915110000000  0.5637540000000 1.0
C      1  0.5328200000000  0.4944630000000  0.4676550000000 1.0
C      1  0.4696530000000  0.4804510000000  0.5175500000000 1.0
C      1  0.4585530000000  0.4800460000000  0.4877940000000 1.0
C      1  0.4690140000000  0.5332630000000  0.4475210000000 1.0
C      1  0.4952320000000  0.5171470000000  0.4874350000000 1.0
C      1  0.4987600000000  0.4599170000000  0.4360800000000 1.0
C      1  0.5151900000000  0.4730820000000  0.4810000000000 1.0
C      1  0.5436160000000  0.4591450000000  0.5067700000000 1.0
C      1  0.5322130000000  0.4945710000000  0.5504940000000 1.0
C      1  0.4987060000000  0.4885640000000  0.4318930000000 1.0
C      1  0.5606310000000  0.4864670000000  0.5047460000000 1.0
C      1  0.5307530000000  0.5264970000000  0.5447420000000 1.0
C      1  0.4477580000000  0.5094630000000  0.4511440000000 1.0
C      1  0.5092900000000  0.4499920000000  0.4590690000000 1.0
C      1  0.5257500000000  0.4145910000000  0.4934150000000 1.0
C      1  0.4534100000000  0.5248680000000  0.5241850000000 1.0
C      1  0.4398990000000  0.5228180000000  0.4987670000000 1.0
C      1  0.4790590000000  0.4835650000000  0.5788790000000 1.0
C      1  0.5438250000000  0.5318420000000  0.4971840000000 1.0
END
