TITL C-2778424-3986-19 0.00681094603877603 125000 -1098.05206097578 0 0 189 (C1) n - 1
REM
REM in /home/nfs/bkarasulu/CARBON/AIRSS/Generating-Clusters/REBO/Only-C1/SD-CG/HFTN-CG
REM
REM
REM
REM
REM
REM ./C.cell (11c1c37f851c82e70ff6c80c92926a4b)
REM
REM compiler GCC version 9.2.1 20190827 (Red Hat 9.2.1-1)
REM options -cpp -mtune=generic -march=x86-64 -g -O0 -fpre-include=/usr/include/finclude/math-vector-fortran.h
REM seed 1947786698 1880577463 1863314838 -38783489 -1555145589 -1434747452 -645549126 -372693236 -879295755 -2135122086 -514521452 -641689234 537883240 572167843 -1941421558 -283005759 2004236200 1666124745 1846759954 1652870334 -113291463 328881215 -1196750109 -277050316 -987305475 -602034270 -2058980852 702176925 1188751901 -955772794 896103977 1232148325 2005287186
REM
CELL 1.54180   50.00000   50.00000   50.00000   90.00000   90.00000   90.00000
LATT -1
SFAC C  
C      1  0.5769590000000  0.4989400000000  0.5036350000000 1.0
C      1  0.5106660000000  0.5112440000000  0.5278040000000 1.0
C      1  0.4647220000000  0.4562700000000  0.4929540000000 1.0
C      1  0.4958000000000  0.4411440000000  0.5502260000000 1.0
C      1  0.4146270000000  0.4823040000000  0.5232830000000 1.0
C      1  0.4527220000000  0.5583640000000  0.4265530000000 1.0
C      1  0.6128440000000  0.5054810000000  0.4595440000000 1.0
C      1  0.5479460000000  0.5151810000000  0.5913670000000 1.0
C      1  0.5573580000000  0.5190280000000  0.5163560000000 1.0
C      1  0.3821570000000  0.4705540000000  0.5242700000000 1.0
C      1  0.5601440000000  0.4591190000000  0.4773170000000 1.0
C      1  0.5879380000000  0.5337720000000  0.5571310000000 1.0
C      1  0.5254850000000  0.4757640000000  0.5169530000000 1.0
C      1  0.4441230000000  0.5144100000000  0.5342450000000 1.0
C      1  0.4750200000000  0.4598380000000  0.6082910000000 1.0
C      1  0.5232030000000  0.5297020000000  0.4832700000000 1.0
C      1  0.4870210000000  0.4718240000000  0.5614570000000 1.0
C      1  0.4480660000000  0.5822920000000  0.4954240000000 1.0
C      1  0.5214710000000  0.5145960000000  0.4133360000000 1.0
C      1  0.4127680000000  0.4615160000000  0.4870760000000 1.0
C      1  0.4239840000000  0.4906230000000  0.4395300000000 1.0
C      1  0.4148520000000  0.4319590000000  0.5294870000000 1.0
C      1  0.6110270000000  0.4550180000000  0.5253920000000 1.0
C      1  0.4615000000000  0.4655610000000  0.3897780000000 1.0
C      1  0.4481450000000  0.4988130000000  0.4852920000000 1.0
C      1  0.5855000000000  0.4434760000000  0.4845780000000 1.0
C      1  0.4329940000000  0.4597110000000  0.5254000000000 1.0
C      1  0.4922140000000  0.3883640000000  0.5048390000000 1.0
C      1  0.5684220000000  0.5847060000000  0.4798590000000 1.0
C      1  0.4694690000000  0.4934870000000  0.4298020000000 1.0
C      1  0.6133830000000  0.4636280000000  0.4372650000000 1.0
C      1  0.4533430000000  0.4485970000000  0.5936700000000 1.0
C      1  0.5231540000000  0.5713640000000  0.5183760000000 1.0
C      1  0.4596520000000  0.5284720000000  0.6044180000000 1.0
C      1  0.4907520000000  0.5713300000000  0.5791080000000 1.0
C      1  0.4940590000000  0.5424580000000  0.4820350000000 1.0
C      1  0.4296430000000  0.5413300000000  0.5191410000000 1.0
C      1  0.4928380000000  0.5711960000000  0.5098200000000 1.0
C      1  0.5170680000000  0.4657110000000  0.5786990000000 1.0
C      1  0.4799000000000  0.5486410000000  0.5305960000000 1.0
C      1  0.4816930000000  0.5089950000000  0.5204740000000 1.0
C      1  0.5044920000000  0.5053550000000  0.6074110000000 1.0
C      1  0.5032850000000  0.3915090000000  0.4432590000000 1.0
C      1  0.5723180000000  0.4523910000000  0.5624920000000 1.0
C      1  0.4820510000000  0.5619260000000  0.4123820000000 1.0
C      1  0.5336400000000  0.4911720000000  0.4811350000000 1.0
C      1  0.4357470000000  0.5050100000000  0.4109950000000 1.0
C      1  0.5460250000000  0.5785900000000  0.5502820000000 1.0
C      1  0.4620890000000  0.4851480000000  0.5801830000000 1.0
C      1  0.5286870000000  0.5199350000000  0.5084700000000 1.0
C      1  0.5280250000000  0.4645700000000  0.5483300000000 1.0
C      1  0.4933740000000  0.5393990000000  0.5554760000000 1.0
C      1  0.5184800000000  0.3880310000000  0.5128940000000 1.0
C      1  0.4677060000000  0.5784790000000  0.5318120000000 1.0
C      1  0.5704530000000  0.4743930000000  0.5793460000000 1.0
C      1  0.4608010000000  0.4215640000000  0.4250400000000 1.0
C      1  0.5007770000000  0.4912670000000  0.4225870000000 1.0
C      1  0.5336730000000  0.4812910000000  0.4495040000000 1.0
C      1  0.5640290000000  0.5406890000000  0.4286320000000 1.0
C      1  0.6011920000000  0.5499190000000  0.5009480000000 1.0
C      1  0.4542320000000  0.5260670000000  0.4706410000000 1.0
C      1  0.4640530000000  0.4935580000000  0.3972160000000 1.0
C      1  0.4941820000000  0.4622610000000  0.5234000000000 1.0
C      1  0.5835140000000  0.4972130000000  0.4517910000000 1.0
C      1  0.5303970000000  0.4342750000000  0.5797760000000 1.0
C      1  0.5731350000000  0.5636290000000  0.5654140000000 1.0
C      1  0.4584680000000  0.4251880000000  0.5789460000000 1.0
C      1  0.5755850000000  0.5755520000000  0.5333730000000 1.0
C      1  0.4097090000000  0.5150180000000  0.5831970000000 1.0
C      1  0.5246310000000  0.3988280000000  0.4668270000000 1.0
C      1  0.4635370000000  0.4566960000000  0.5328400000000 1.0
C      1  0.4987130000000  0.4728400000000  0.6054370000000 1.0
C      1  0.5043850000000  0.5496000000000  0.4429520000000 1.0
C      1  0.5132340000000  0.6021890000000  0.4538980000000 1.0
C      1  0.4094660000000  0.4880700000000  0.5740430000000 1.0
C      1  0.5495570000000  0.5028120000000  0.4047960000000 1.0
C      1  0.4837840000000  0.4273100000000  0.4930860000000 1.0
C      1  0.4724050000000  0.5029360000000  0.6066420000000 1.0
C      1  0.4059180000000  0.5656510000000  0.5178500000000 1.0
C      1  0.4569490000000  0.4682210000000  0.4422300000000 1.0
C      1  0.4586140000000  0.5210610000000  0.4394140000000 1.0
C      1  0.4808800000000  0.4197940000000  0.4598690000000 1.0
C      1  0.3983830000000  0.4489000000000  0.5087800000000 1.0
C      1  0.5576560000000  0.4075280000000  0.5384400000000 1.0
C      1  0.4824660000000  0.6143630000000  0.5406870000000 1.0
C      1  0.5091040000000  0.5045340000000  0.5739940000000 1.0
C      1  0.4826900000000  0.5906400000000  0.5598090000000 1.0
C      1  0.4017720000000  0.5061100000000  0.4596980000000 1.0
C      1  0.5802160000000  0.4704540000000  0.4321080000000 1.0
C      1  0.5232650000000  0.5041530000000  0.5512600000000 1.0
C      1  0.4356270000000  0.4771590000000  0.4671300000000 1.0
C      1  0.4528740000000  0.4486370000000  0.4160060000000 1.0
C      1  0.4444670000000  0.5385000000000  0.5582450000000 1.0
C      1  0.6289920000000  0.4853150000000  0.4473690000000 1.0
C      1  0.4878920000000  0.5719750000000  0.4765480000000 1.0
C      1  0.5168560000000  0.6165030000000  0.5088260000000 1.0
C      1  0.5663680000000  0.5239030000000  0.4537870000000 1.0
C      1  0.5260230000000  0.4060960000000  0.5472960000000 1.0
C      1  0.4436570000000  0.4122250000000  0.4443080000000 1.0
C      1  0.4802250000000  0.5108150000000  0.5685010000000 1.0
C      1  0.4847160000000  0.5766280000000  0.4429280000000 1.0
C      1  0.4337880000000  0.4694860000000  0.5777030000000 1.0
C      1  0.5214870000000  0.5549690000000  0.5484320000000 1.0
C      1  0.4719220000000  0.4499580000000  0.4626100000000 1.0
C      1  0.4297240000000  0.4715590000000  0.4132140000000 1.0
C      1  0.4083910000000  0.5575300000000  0.4666220000000 1.0
C      1  0.4328120000000  0.4451170000000  0.5556280000000 1.0
C      1  0.5486660000000  0.5404000000000  0.5605640000000 1.0
C      1  0.4839210000000  0.6068730000000  0.4587360000000 1.0
C      1  0.5586950000000  0.4799590000000  0.5242130000000 1.0
C      1  0.4295390000000  0.4296940000000  0.4623040000000 1.0
C      1  0.4418890000000  0.4327790000000  0.4887610000000 1.0
C      1  0.4945380000000  0.4014370000000  0.5465420000000 1.0
C      1  0.4005520000000  0.5466310000000  0.4917900000000 1.0
C      1  0.5042880000000  0.4515970000000  0.4932980000000 1.0
C      1  0.5308090000000  0.5446170000000  0.4268130000000 1.0
C      1  0.4946260000000  0.5237020000000  0.4564470000000 1.0
C      1  0.3952570000000  0.4836860000000  0.5505360000000 1.0
C      1  0.4922820000000  0.3923630000000  0.4756040000000 1.0
C      1  0.5525580000000  0.5693460000000  0.4373600000000 1.0
C      1  0.4261750000000  0.5040140000000  0.5068590000000 1.0
C      1  0.4753260000000  0.5344200000000  0.5034130000000 1.0
C      1  0.4738720000000  0.6002790000000  0.4902070000000 1.0
C      1  0.5362400000000  0.4477500000000  0.4570070000000 1.0
C      1  0.6116150000000  0.5274710000000  0.4771360000000 1.0
C      1  0.4359000000000  0.5280450000000  0.5869800000000 1.0
C      1  0.5802880000000  0.4938880000000  0.5462590000000 1.0
C      1  0.3963700000000  0.4730750000000  0.4618490000000 1.0
C      1  0.5377180000000  0.4452720000000  0.4055140000000 1.0
C      1  0.5889200000000  0.5776800000000  0.5053840000000 1.0
C      1  0.5409210000000  0.5995910000000  0.5260460000000 1.0
C      1  0.5674500000000  0.6043250000000  0.5070760000000 1.0
C      1  0.5256130000000  0.5721380000000  0.4553430000000 1.0
C      1  0.5081100000000  0.4652790000000  0.4232980000000 1.0
C      1  0.5695400000000  0.5224040000000  0.4048540000000 1.0
C      1  0.4043980000000  0.5394790000000  0.5651880000000 1.0
C      1  0.4307210000000  0.5340210000000  0.4250170000000 1.0
C      1  0.5672200000000  0.5437430000000  0.5317160000000 1.0
C      1  0.4083280000000  0.5359900000000  0.4463580000000 1.0
C      1  0.4327950000000  0.5727580000000  0.4688080000000 1.0
C      1  0.5782850000000  0.5080590000000  0.5773000000000 1.0
C      1  0.5360780000000  0.5772060000000  0.4873030000000 1.0
C      1  0.4990680000000  0.4968970000000  0.4619030000000 1.0
C      1  0.5722540000000  0.5840790000000  0.4520130000000 1.0
C      1  0.5417930000000  0.4053320000000  0.5097900000000 1.0
C      1  0.5517100000000  0.5110390000000  0.5481910000000 1.0
C      1  0.5383980000000  0.5141420000000  0.4585800000000 1.0
C      1  0.4923490000000  0.4168560000000  0.4279860000000 1.0
C      1  0.5626080000000  0.4483100000000  0.5304500000000 1.0
C      1  0.4698680000000  0.5472750000000  0.5791650000000 1.0
C      1  0.4527430000000  0.5568000000000  0.4560600000000 1.0
C      1  0.4356130000000  0.5801030000000  0.5264540000000 1.0
C      1  0.4724490000000  0.4851630000000  0.4990550000000 1.0
C      1  0.5397690000000  0.6110340000000  0.4882800000000 1.0
C      1  0.4905620000000  0.5093580000000  0.3885440000000 1.0
C      1  0.5402580000000  0.4222180000000  0.4800410000000 1.0
C      1  0.5546140000000  0.4281080000000  0.5640240000000 1.0
C      1  0.5051370000000  0.4911310000000  0.4938660000000 1.0
C      1  0.5135060000000  0.5560790000000  0.5921320000000 1.0
C      1  0.5437260000000  0.4857210000000  0.5862570000000 1.0
C      1  0.4749920000000  0.5288140000000  0.4123610000000 1.0
C      1  0.5580160000000  0.4719950000000  0.4117140000000 1.0
C      1  0.5250050000000  0.5303360000000  0.5996520000000 1.0
C      1  0.5817260000000  0.5381160000000  0.4761000000000 1.0
C      1  0.4449050000000  0.4123100000000  0.5066180000000 1.0
C      1  0.4042840000000  0.5181510000000  0.4902070000000 1.0
C      1  0.6046060000000  0.5314890000000  0.5274000000000 1.0
C      1  0.4657140000000  0.4888010000000  0.5405170000000 1.0
C      1  0.5923580000000  0.4488270000000  0.4560360000000 1.0
C      1  0.5884690000000  0.4423990000000  0.5127420000000 1.0
C      1  0.5322980000000  0.4711800000000  0.3883290000000 1.0
C      1  0.5071480000000  0.4644820000000  0.4637870000000 1.0
C      1  0.5133850000000  0.4889970000000  0.3819980000000 1.0
C      1  0.6042970000000  0.5042070000000  0.5162810000000 1.0
C      1  0.4091830000000  0.4469600000000  0.4503500000000 1.0
C      1  0.4586980000000  0.4257020000000  0.5448020000000 1.0
C      1  0.5018220000000  0.4234030000000  0.5213030000000 1.0
C      1  0.4253280000000  0.5630790000000  0.5523140000000 1.0
C      1  0.5034970000000  0.5394430000000  0.3983480000000 1.0
C      1  0.5312600000000  0.4363650000000  0.5326730000000 1.0
C      1  0.5667940000000  0.4892900000000  0.4770540000000 1.0
C      1  0.6093300000000  0.4816210000000  0.5355110000000 1.0
C      1  0.4481800000000  0.5481570000000  0.4961170000000 1.0
C      1  0.5359910000000  0.4509150000000  0.4964850000000 1.0
C      1  0.4868750000000  0.4190550000000  0.5720930000000 1.0
C      1  0.5129430000000  0.4364700000000  0.4188820000000 1.0
C      1  0.3999330000000  0.5379890000000  0.5355520000000 1.0
C      1  0.4691080000000  0.4007900000000  0.5241900000000 1.0
C      1  0.4897270000000  0.6137970000000  0.5131110000000 1.0
END
