TITL C-2778430-5657-937 -0.000946321236428146 125000 -410.000123669419 0 0 71 (C1) n - 1
REM
REM in /home/nfs/bkarasulu/CARBON/AIRSS/Generating-Clusters/REBO/Only-C1/SD-CG/HFTN-CG
REM
REM
REM
REM
REM
REM ./C.cell (11c1c37f851c82e70ff6c80c92926a4b)
REM
REM compiler GCC version 9.2.1 20190827 (Red Hat 9.2.1-1)
REM options -cpp -mtune=generic -march=x86-64 -g -O0 -fpre-include=/usr/include/finclude/math-vector-fortran.h
REM seed 455598468 933881427 1106232239 -110523295 -2057247142 568016295 731397289 -604241092 1168174454 1071642704 1157956991 -1698926112 -1651762789 -678077731 -1245590861 491405077 -1654704500 471387149 857330642 30597918 986613558 -1967997891 -1721367874 1785647891 -577781319 793404190 -1332917007 -404554177 -1057661356 -761862570 -1318193897 553766451 -1829432672
REM
CELL 1.54180   50.00000   50.00000   50.00000   90.00000   90.00000   90.00000
LATT -1
SFAC C  
C      1  0.5904880000000  0.5100760000000  0.4497740000000 1.0
C      1  0.4718950000000  0.5295180000000  0.4254970000000 1.0
C      1  0.5222030000000  0.4858040000000  0.5733790000000 1.0
C      1  0.5212020000000  0.5258840000000  0.4428920000000 1.0
C      1  0.4702440000000  0.5539310000000  0.5171180000000 1.0
C      1  0.4315930000000  0.5359280000000  0.4516130000000 1.0
C      1  0.4330140000000  0.5237120000000  0.5236070000000 1.0
C      1  0.5173380000000  0.5643020000000  0.5208420000000 1.0
C      1  0.5355680000000  0.4612670000000  0.5542030000000 1.0
C      1  0.4873020000000  0.4434840000000  0.5434220000000 1.0
C      1  0.5130510000000  0.5573170000000  0.4930050000000 1.0
C      1  0.4764390000000  0.4374870000000  0.4976600000000 1.0
C      1  0.5483380000000  0.4913700000000  0.4818430000000 1.0
C      1  0.4988580000000  0.4771060000000  0.4672160000000 1.0
C      1  0.4514340000000  0.5158000000000  0.5513860000000 1.0
C      1  0.5184460000000  0.4409180000000  0.5355160000000 1.0
C      1  0.5515560000000  0.4592360000000  0.5238880000000 1.0
C      1  0.4729780000000  0.5238360000000  0.5281770000000 1.0
C      1  0.4765340000000  0.4465690000000  0.4523350000000 1.0
C      1  0.5017770000000  0.4485260000000  0.4847080000000 1.0
C      1  0.5442530000000  0.5573100000000  0.5274180000000 1.0
C      1  0.5731710000000  0.5161520000000  0.5009280000000 1.0
C      1  0.4456970000000  0.4713850000000  0.5223910000000 1.0
C      1  0.5537850000000  0.5418630000000  0.5027120000000 1.0
C      1  0.4401880000000  0.5480640000000  0.4758250000000 1.0
C      1  0.5010130000000  0.4135790000000  0.5433040000000 1.0
C      1  0.5507470000000  0.4594670000000  0.4841130000000 1.0
C      1  0.5398090000000  0.5018460000000  0.5875920000000 1.0
C      1  0.4796140000000  0.5169490000000  0.5669390000000 1.0
C      1  0.4761840000000  0.4714420000000  0.5308560000000 1.0
C      1  0.4864910000000  0.4540640000000  0.4229870000000 1.0
C      1  0.4313160000000  0.4925850000000  0.5366100000000 1.0
C      1  0.5162250000000  0.4979940000000  0.4771040000000 1.0
C      1  0.4934970000000  0.5580230000000  0.5362690000000 1.0
C      1  0.5456430000000  0.5444010000000  0.5524660000000 1.0
C      1  0.4947090000000  0.4987310000000  0.5257120000000 1.0
C      1  0.5456150000000  0.4887490000000  0.5380090000000 1.0
C      1  0.4710230000000  0.5449740000000  0.4505760000000 1.0
C      1  0.5704080000000  0.4939560000000  0.5182010000000 1.0
C      1  0.4793910000000  0.4687700000000  0.5631530000000 1.0
C      1  0.4538850000000  0.4899430000000  0.4442930000000 1.0
C      1  0.5215780000000  0.5052410000000  0.5384360000000 1.0
C      1  0.5019000000000  0.5258650000000  0.4863490000000 1.0
C      1  0.4570620000000  0.4414360000000  0.5126360000000 1.0
C      1  0.5659350000000  0.5754790000000  0.4662530000000 1.0
C      1  0.4565690000000  0.4744720000000  0.4903120000000 1.0
C      1  0.4467730000000  0.5164980000000  0.4365390000000 1.0
C      1  0.4907080000000  0.5626530000000  0.4692960000000 1.0
C      1  0.5758690000000  0.5066130000000  0.4722530000000 1.0
C      1  0.4684590000000  0.5000040000000  0.5039540000000 1.0
C      1  0.5335880000000  0.5183240000000  0.4966450000000 1.0
C      1  0.5272920000000  0.4679270000000  0.4383620000000 1.0
C      1  0.5237280000000  0.4942170000000  0.4340970000000 1.0
C      1  0.5233190000000  0.5272390000000  0.5561890000000 1.0
C      1  0.4857050000000  0.4831310000000  0.4394120000000 1.0
C      1  0.4586130000000  0.4666120000000  0.4636390000000 1.0
C      1  0.4968790000000  0.5386610000000  0.5583730000000 1.0
C      1  0.5102590000000  0.4420770000000  0.4527240000000 1.0
C      1  0.4480430000000  0.5257890000000  0.4973820000000 1.0
C      1  0.4740130000000  0.5268720000000  0.4754510000000 1.0
C      1  0.5491610000000  0.5575760000000  0.4759020000000 1.0
C      1  0.4639330000000  0.5622650000000  0.4902720000000 1.0
C      1  0.5434880000000  0.4477790000000  0.4571090000000 1.0
C      1  0.4995150000000  0.3882740000000  0.5466550000000 1.0
C      1  0.5263120000000  0.4479290000000  0.5039910000000 1.0
C      1  0.4032490000000  0.5079810000000  0.5259940000000 1.0
C      1  0.3779170000000  0.5078420000000  0.5223860000000 1.0
C      1  0.5213690000000  0.5496580000000  0.4608510000000 1.0
C      1  0.4935400000000  0.4913140000000  0.5727090000000 1.0
C      1  0.5766170000000  0.4667790000000  0.5041500000000 1.0
C      1  0.4956850000000  0.5111710000000  0.4261440000000 1.0
END
