TITL C-2778437-8639-428 0.00273926300215833 125000 -781.134587588038 0 0 134 (C1) n - 1
REM
REM in /home/nfs/bkarasulu/CARBON/AIRSS/Generating-Clusters/REBO/Only-C1/SD-CG/HFTN-CG
REM
REM
REM
REM
REM
REM ./C.cell (11c1c37f851c82e70ff6c80c92926a4b)
REM
REM compiler GCC version 9.2.1 20190827 (Red Hat 9.2.1-1)
REM options -cpp -mtune=generic -march=x86-64 -g -O0 -fpre-include=/usr/include/finclude/math-vector-fortran.h
REM seed 1762138029 1592734476 -1763599897 -688594796 -237363758 -723179384 1955408363 -843098034 -1258427093 -805698025 -775815931 -434824451 366518335 595524087 53465993 1681451468 -1938225810 1379169423 1543312805 -863627860 -1450686741 -1732609503 409994753 -1685322623 1708069739 1633123576 -463949747 -1198884834 1275387016 -648772567 -1813797915 968240098 -1584520643
REM
CELL 1.54180   50.00000   50.00000   50.00000   90.00000   90.00000   90.00000
LATT -1
SFAC C  
C      1  0.4585530000000  0.5637110000000  0.5262110000000 1.0
C      1  0.5034890000000  0.4563190000000  0.5349660000000 1.0
C      1  0.5870550000000  0.4773970000000  0.4582430000000 1.0
C      1  0.5367030000000  0.4360810000000  0.4935250000000 1.0
C      1  0.5593790000000  0.4698880000000  0.4186670000000 1.0
C      1  0.5341610000000  0.4137550000000  0.4692620000000 1.0
C      1  0.5670820000000  0.4773990000000  0.5425200000000 1.0
C      1  0.4936130000000  0.4656780000000  0.5654230000000 1.0
C      1  0.5481330000000  0.5743650000000  0.5011630000000 1.0
C      1  0.5567080000000  0.4614380000000  0.4952070000000 1.0
C      1  0.3998590000000  0.5254200000000  0.4706100000000 1.0
C      1  0.5189460000000  0.4328860000000  0.5156650000000 1.0
C      1  0.4769180000000  0.5121090000000  0.5841100000000 1.0
C      1  0.5874510000000  0.5445920000000  0.5103230000000 1.0
C      1  0.4653030000000  0.5378570000000  0.4516050000000 1.0
C      1  0.4583750000000  0.5571570000000  0.5578720000000 1.0
C      1  0.5292360000000  0.4528840000000  0.4661070000000 1.0
C      1  0.4966140000000  0.4509110000000  0.4679980000000 1.0
C      1  0.5261460000000  0.5052360000000  0.4151770000000 1.0
C      1  0.5699580000000  0.5488270000000  0.4589720000000 1.0
C      1  0.4568460000000  0.4226850000000  0.5612220000000 1.0
C      1  0.4984160000000  0.4168310000000  0.5367660000000 1.0
C      1  0.4777840000000  0.4089330000000  0.5592970000000 1.0
C      1  0.4712300000000  0.4811540000000  0.4777120000000 1.0
C      1  0.3954910000000  0.5511230000000  0.4825180000000 1.0
C      1  0.4872160000000  0.4319530000000  0.4341120000000 1.0
C      1  0.5818250000000  0.5166040000000  0.4596400000000 1.0
C      1  0.5274610000000  0.4800870000000  0.5390850000000 1.0
C      1  0.5758600000000  0.4819650000000  0.5126750000000 1.0
C      1  0.4792890000000  0.5403490000000  0.4808270000000 1.0
C      1  0.5365550000000  0.5895250000000  0.4753620000000 1.0
C      1  0.4912360000000  0.6238190000000  0.4990030000000 1.0
C      1  0.4628770000000  0.4988030000000  0.4136600000000 1.0
C      1  0.4736100000000  0.4572340000000  0.5232180000000 1.0
C      1  0.4946000000000  0.5072150000000  0.4130350000000 1.0
C      1  0.4267230000000  0.4671890000000  0.5498180000000 1.0
C      1  0.4355080000000  0.5630840000000  0.4601480000000 1.0
C      1  0.5840750000000  0.5194140000000  0.5237940000000 1.0
C      1  0.5390200000000  0.5049710000000  0.5867050000000 1.0
C      1  0.4268050000000  0.5114310000000  0.5758290000000 1.0
C      1  0.4863680000000  0.5727150000000  0.4814480000000 1.0
C      1  0.5655810000000  0.4935470000000  0.4400620000000 1.0
C      1  0.4206510000000  0.4763090000000  0.4739890000000 1.0
C      1  0.4310110000000  0.5617680000000  0.5122520000000 1.0
C      1  0.5347510000000  0.4777260000000  0.5995310000000 1.0
C      1  0.4637860000000  0.4809240000000  0.5883060000000 1.0
C      1  0.5156530000000  0.5768730000000  0.5068960000000 1.0
C      1  0.4972200000000  0.5336150000000  0.5967760000000 1.0
C      1  0.5349980000000  0.5057070000000  0.5532690000000 1.0
C      1  0.5428430000000  0.5727130000000  0.5622210000000 1.0
C      1  0.4090580000000  0.4682980000000  0.5013020000000 1.0
C      1  0.4656370000000  0.5076520000000  0.5444070000000 1.0
C      1  0.5373470000000  0.4329630000000  0.4413580000000 1.0
C      1  0.5291710000000  0.4284720000000  0.5466260000000 1.0
C      1  0.5568610000000  0.5460990000000  0.5358840000000 1.0
C      1  0.5187990000000  0.4835420000000  0.4742590000000 1.0
C      1  0.5903380000000  0.4945340000000  0.4843300000000 1.0
C      1  0.4596100000000  0.4829150000000  0.5096490000000 1.0
C      1  0.4462890000000  0.4343000000000  0.4797580000000 1.0
C      1  0.5466920000000  0.4576420000000  0.5849820000000 1.0
C      1  0.5113810000000  0.5723360000000  0.4613760000000 1.0
C      1  0.5823020000000  0.4492100000000  0.4545280000000 1.0
C      1  0.4530790000000  0.4483350000000  0.5458430000000 1.0
C      1  0.4989910000000  0.5079670000000  0.5360470000000 1.0
C      1  0.4195270000000  0.5370090000000  0.5224850000000 1.0
C      1  0.4839220000000  0.5506900000000  0.5762740000000 1.0
C      1  0.5739610000000  0.4388130000000  0.4797000000000 1.0
C      1  0.4893640000000  0.5538390000000  0.4340220000000 1.0
C      1  0.5475530000000  0.5224070000000  0.4788100000000 1.0
C      1  0.5000100000000  0.5221370000000  0.4402030000000 1.0
C      1  0.4229900000000  0.4512240000000  0.5198130000000 1.0
C      1  0.5525520000000  0.5174100000000  0.5179670000000 1.0
C      1  0.4968890000000  0.5452970000000  0.5496100000000 1.0
C      1  0.4980380000000  0.4974080000000  0.5653060000000 1.0
C      1  0.4754810000000  0.6120390000000  0.5158670000000 1.0
C      1  0.4614880000000  0.5704720000000  0.4447100000000 1.0
C      1  0.5853790000000  0.5656000000000  0.5321290000000 1.0
C      1  0.4076630000000  0.5077750000000  0.5174620000000 1.0
C      1  0.5108220000000  0.4705990000000  0.6128270000000 1.0
C      1  0.4325100000000  0.4890580000000  0.5271900000000 1.0
C      1  0.4531170000000  0.5269690000000  0.5672940000000 1.0
C      1  0.4795200000000  0.3930740000000  0.5108060000000 1.0
C      1  0.4315400000000  0.4829830000000  0.5773440000000 1.0
C      1  0.4379060000000  0.4119790000000  0.4662540000000 1.0
C      1  0.5687570000000  0.5305670000000  0.4314210000000 1.0
C      1  0.5491360000000  0.5720690000000  0.4494680000000 1.0
C      1  0.4445650000000  0.4335200000000  0.5096330000000 1.0
C      1  0.4924990000000  0.4641490000000  0.4973250000000 1.0
C      1  0.4893020000000  0.4194460000000  0.4612460000000 1.0
C      1  0.4891240000000  0.4634220000000  0.5980950000000 1.0
C      1  0.5275040000000  0.5483530000000  0.4730380000000 1.0
C      1  0.4932530000000  0.5041860000000  0.4668210000000 1.0
C      1  0.4655320000000  0.4508850000000  0.4355040000000 1.0
C      1  0.5644610000000  0.5497130000000  0.4906860000000 1.0
C      1  0.5357770000000  0.4762630000000  0.4045780000000 1.0
C      1  0.5372120000000  0.5551540000000  0.5818340000000 1.0
C      1  0.5282190000000  0.5341460000000  0.5444940000000 1.0
C      1  0.4813480000000  0.5075290000000  0.5079720000000 1.0
C      1  0.5906960000000  0.5094320000000  0.5481230000000 1.0
C      1  0.4642870000000  0.4789760000000  0.5551720000000 1.0
C      1  0.4668920000000  0.4179810000000  0.5219400000000 1.0
C      1  0.5070540000000  0.6026370000000  0.4863410000000 1.0
C      1  0.4560580000000  0.5192590000000  0.4895690000000 1.0
C      1  0.5444840000000  0.4545560000000  0.5537720000000 1.0
C      1  0.5322680000000  0.4862230000000  0.4430330000000 1.0
C      1  0.5659610000000  0.5017240000000  0.5662630000000 1.0
C      1  0.5303640000000  0.5252340000000  0.4499680000000 1.0
C      1  0.5516420000000  0.4951410000000  0.4928160000000 1.0
C      1  0.4494190000000  0.4746260000000  0.4289480000000 1.0
C      1  0.4249340000000  0.5346910000000  0.4511640000000 1.0
C      1  0.4804600000000  0.5818490000000  0.5128540000000 1.0
C      1  0.4203880000000  0.5667320000000  0.4857680000000 1.0
C      1  0.5172850000000  0.4810820000000  0.5069770000000 1.0
C      1  0.4325200000000  0.4831070000000  0.4491040000000 1.0
C      1  0.5400000000000  0.5333180000000  0.4192230000000 1.0
C      1  0.5086680000000  0.5269380000000  0.4870100000000 1.0
C      1  0.5134170000000  0.4584830000000  0.4045100000000 1.0
C      1  0.4014030000000  0.4998740000000  0.4878250000000 1.0
C      1  0.5638880000000  0.4450970000000  0.4323440000000 1.0
C      1  0.4455090000000  0.5185620000000  0.5206880000000 1.0
C      1  0.4480960000000  0.5169010000000  0.4335880000000 1.0
C      1  0.5083390000000  0.4010580000000  0.4714460000000 1.0
C      1  0.5105670000000  0.5505040000000  0.5203220000000 1.0
C      1  0.5208290000000  0.5128860000000  0.5114730000000 1.0
C      1  0.5131050000000  0.4357320000000  0.4216280000000 1.0
C      1  0.4985130000000  0.3852890000000  0.4927530000000 1.0
C      1  0.5255910000000  0.5322500000000  0.5941270000000 1.0
C      1  0.4872510000000  0.4751020000000  0.4122550000000 1.0
C      1  0.4572140000000  0.4558440000000  0.4646150000000 1.0
C      1  0.4797440000000  0.5391540000000  0.5206800000000 1.0
C      1  0.5227680000000  0.5598610000000  0.4316730000000 1.0
C      1  0.5027220000000  0.4692780000000  0.4413020000000 1.0
C      1  0.5555330000000  0.5799020000000  0.5329410000000 1.0
C      1  0.4406810000000  0.5100960000000  0.4664500000000 1.0
END
