TITL C-2778422-5617-459 -0.00452601325904077 125000 -512.238563035857 0 0 88 (C1) n - 1
REM
REM in /home/nfs/bkarasulu/CARBON/AIRSS/Generating-Clusters/REBO/Only-C1/SD-CG/HFTN-CG
REM
REM
REM
REM
REM
REM ./C.cell (11c1c37f851c82e70ff6c80c92926a4b)
REM
REM compiler GCC version 9.2.1 20190827 (Red Hat 9.2.1-1)
REM options -cpp -mtune=generic -march=x86-64 -g -O0 -fpre-include=/usr/include/finclude/math-vector-fortran.h
REM seed -33290610 1982862991 179090816 -1414444644 311781748 -630478692 -1226186579 -1163693724 582648492 530016806 -1350613392 1437367634 -815501357 1594197896 -1756912985 -2061737543 -991959286 1387669308 -492910716 -1157605452 1855194428 110713164 -1431263667 -850813022 1692234608 1390052464 -246520565 -1964743587 -1704449582 937965652 453053883 1225691742 63744585
REM
CELL 1.54180   50.00000   50.00000   50.00000   90.00000   90.00000   90.00000
LATT -1
SFAC C  
C      1  0.5068280000000  0.5415020000000  0.5595900000000 1.0
C      1  0.4892270000000  0.5374370000000  0.4736400000000 1.0
C      1  0.5317900000000  0.4680240000000  0.4622470000000 1.0
C      1  0.5234850000000  0.4937870000000  0.5374150000000 1.0
C      1  0.5266140000000  0.4208560000000  0.4834230000000 1.0
C      1  0.4543210000000  0.4818190000000  0.4429400000000 1.0
C      1  0.5548880000000  0.5330550000000  0.4574630000000 1.0
C      1  0.5829500000000  0.5289650000000  0.5371150000000 1.0
C      1  0.4660340000000  0.5473740000000  0.4645160000000 1.0
C      1  0.4687860000000  0.5582260000000  0.5376280000000 1.0
C      1  0.4472610000000  0.5266200000000  0.4261740000000 1.0
C      1  0.5202690000000  0.5776920000000  0.4816430000000 1.0
C      1  0.5295270000000  0.5475630000000  0.4846840000000 1.0
C      1  0.5243000000000  0.5808200000000  0.5317590000000 1.0
C      1  0.5453270000000  0.4498480000000  0.5535280000000 1.0
C      1  0.4983900000000  0.5110560000000  0.4583250000000 1.0
C      1  0.4330800000000  0.5155390000000  0.4727670000000 1.0
C      1  0.4363580000000  0.4649980000000  0.5447260000000 1.0
C      1  0.5054790000000  0.5305140000000  0.4327040000000 1.0
C      1  0.5698510000000  0.5034390000000  0.4513650000000 1.0
C      1  0.5276810000000  0.5569520000000  0.5458760000000 1.0
C      1  0.5204670000000  0.4973000000000  0.4976970000000 1.0
C      1  0.4901410000000  0.5632330000000  0.5208170000000 1.0
C      1  0.5733630000000  0.4748440000000  0.5050530000000 1.0
C      1  0.5332930000000  0.5142580000000  0.4396110000000 1.0
C      1  0.4653190000000  0.5148300000000  0.5315610000000 1.0
C      1  0.5032590000000  0.4703630000000  0.5081010000000 1.0
C      1  0.5072670000000  0.5854640000000  0.5067650000000 1.0
C      1  0.4983130000000  0.4531410000000  0.5369580000000 1.0
C      1  0.5021600000000  0.4312280000000  0.4644020000000 1.0
C      1  0.4859690000000  0.5267970000000  0.5740890000000 1.0
C      1  0.4872750000000  0.5576050000000  0.4285510000000 1.0
C      1  0.4947310000000  0.5158520000000  0.4978540000000 1.0
C      1  0.5402860000000  0.5401300000000  0.5118670000000 1.0
C      1  0.5541600000000  0.4941300000000  0.5683140000000 1.0
C      1  0.5653850000000  0.4704890000000  0.5564440000000 1.0
C      1  0.5334780000000  0.4533940000000  0.4882130000000 1.0
C      1  0.4925150000000  0.4980200000000  0.4136450000000 1.0
C      1  0.5648020000000  0.5207600000000  0.4869860000000 1.0
C      1  0.4886680000000  0.4585940000000  0.4191830000000 1.0
C      1  0.5538940000000  0.4951540000000  0.4950990000000 1.0
C      1  0.5349540000000  0.4674120000000  0.5192470000000 1.0
C      1  0.4563940000000  0.4576670000000  0.4705100000000 1.0
C      1  0.5369760000000  0.5247070000000  0.5399020000000 1.0
C      1  0.4708990000000  0.4833300000000  0.5370520000000 1.0
C      1  0.4446080000000  0.5208620000000  0.5044580000000 1.0
C      1  0.4655120000000  0.4386790000000  0.5041280000000 1.0
C      1  0.4587940000000  0.4687660000000  0.5100730000000 1.0
C      1  0.4429330000000  0.4854480000000  0.5654510000000 1.0
C      1  0.4319750000000  0.4886660000000  0.4642720000000 1.0
C      1  0.4286040000000  0.4668210000000  0.4843170000000 1.0
C      1  0.5795340000000  0.4500040000000  0.4913070000000 1.0
C      1  0.5727930000000  0.5368950000000  0.5112790000000 1.0
C      1  0.5627790000000  0.5181300000000  0.5549220000000 1.0
C      1  0.4928230000000  0.4998630000000  0.5797590000000 1.0
C      1  0.5074330000000  0.5385440000000  0.5167740000000 1.0
C      1  0.5190010000000  0.4602290000000  0.5586620000000 1.0
C      1  0.4874550000000  0.4660920000000  0.4824900000000 1.0
C      1  0.5416280000000  0.5629380000000  0.4595760000000 1.0
C      1  0.4689770000000  0.5870780000000  0.4672710000000 1.0
C      1  0.5805580000000  0.4751920000000  0.5327500000000 1.0
C      1  0.4590490000000  0.5331830000000  0.5584970000000 1.0
C      1  0.5458750000000  0.4360490000000  0.5266370000000 1.0
C      1  0.4652210000000  0.4499680000000  0.5446560000000 1.0
C      1  0.4657120000000  0.4688850000000  0.4191460000000 1.0
C      1  0.4491890000000  0.5536820000000  0.5017270000000 1.0
C      1  0.4766170000000  0.5279550000000  0.4152920000000 1.0
C      1  0.4135780000000  0.5152950000000  0.5432080000000 1.0
C      1  0.4726790000000  0.4825850000000  0.5709270000000 1.0
C      1  0.5137990000000  0.4878430000000  0.4297360000000 1.0
C      1  0.4749030000000  0.4298540000000  0.4751150000000 1.0
C      1  0.4439810000000  0.5334770000000  0.4538150000000 1.0
C      1  0.5592120000000  0.4809430000000  0.4520190000000 1.0
C      1  0.4673630000000  0.4974680000000  0.4956780000000 1.0
C      1  0.4764020000000  0.4916430000000  0.4642710000000 1.0
C      1  0.4258240000000  0.4750770000000  0.5154590000000 1.0
C      1  0.5585510000000  0.4330100000000  0.4852950000000 1.0
C      1  0.4800620000000  0.5784040000000  0.4436220000000 1.0
C      1  0.4345010000000  0.5127720000000  0.5621680000000 1.0
C      1  0.4195610000000  0.5054910000000  0.5183010000000 1.0
C      1  0.5258880000000  0.4974990000000  0.4666890000000 1.0
C      1  0.4570660000000  0.5768440000000  0.4899240000000 1.0
C      1  0.4981720000000  0.5158860000000  0.5376610000000 1.0
C      1  0.4735110000000  0.4234750000000  0.5275890000000 1.0
C      1  0.5105060000000  0.4560260000000  0.4426770000000 1.0
C      1  0.5029430000000  0.4203120000000  0.5283110000000 1.0
C      1  0.5205040000000  0.4899630000000  0.5712140000000 1.0
C      1  0.5275070000000  0.4174170000000  0.5154260000000 1.0
END
