TITL C-2778422-5617-621 0.0666279515542884 125000 -305.070155067802 0 0 53 (C1) n - 1
REM
REM in /home/nfs/bkarasulu/CARBON/AIRSS/Generating-Clusters/REBO/Only-C1/SD-CG/HFTN-CG
REM
REM
REM
REM
REM
REM ./C.cell (11c1c37f851c82e70ff6c80c92926a4b)
REM
REM compiler GCC version 9.2.1 20190827 (Red Hat 9.2.1-1)
REM options -cpp -mtune=generic -march=x86-64 -g -O0 -fpre-include=/usr/include/finclude/math-vector-fortran.h
REM seed -1066694554 1755664181 -1172816630 424553322 130978772 222412764 1789626944 -1897429532 65734529 2109580952 -1577375510 -259294783 -1592481663 493579233 155448917 -885296790 398213256 -878455719 1467256782 -1240327871 1043734120 360129263 1874020805 762202993 1719049458 2028397665 1079710798 -143356839 1985353009 -58190445 102413263 -466912798 -2064019813
REM
CELL 1.54180   50.00000   50.00000   50.00000   90.00000   90.00000   90.00000
LATT -1
SFAC C  
C      1  0.5274960000000  0.5355970000000  0.5413650000000 1.0
C      1  0.4535830000000  0.4551310000000  0.4734550000000 1.0
C      1  0.5501710000000  0.4616890000000  0.5171770000000 1.0
C      1  0.5650720000000  0.5080770000000  0.4725880000000 1.0
C      1  0.4340920000000  0.4906100000000  0.5047890000000 1.0
C      1  0.4963220000000  0.4810780000000  0.5672680000000 1.0
C      1  0.4765670000000  0.5303120000000  0.5538120000000 1.0
C      1  0.4457270000000  0.5294860000000  0.4788630000000 1.0
C      1  0.5006720000000  0.5276580000000  0.5383670000000 1.0
C      1  0.5627710000000  0.5340950000000  0.4888520000000 1.0
C      1  0.5394330000000  0.4684160000000  0.4919250000000 1.0
C      1  0.4657800000000  0.4773480000000  0.4525970000000 1.0
C      1  0.5315710000000  0.5049560000000  0.4777170000000 1.0
C      1  0.4938580000000  0.4775630000000  0.4481120000000 1.0
C      1  0.4248920000000  0.4666200000000  0.5147550000000 1.0
C      1  0.5671910000000  0.5104260000000  0.4387160000000 1.0
C      1  0.5009310000000  0.4615410000000  0.5326860000000 1.0
C      1  0.5004110000000  0.4292180000000  0.4746650000000 1.0
C      1  0.4548170000000  0.4862430000000  0.4830640000000 1.0
C      1  0.4555210000000  0.5405200000000  0.4561880000000 1.0
C      1  0.4594980000000  0.5073280000000  0.5498310000000 1.0
C      1  0.4705180000000  0.4814190000000  0.5553090000000 1.0
C      1  0.4206110000000  0.5311580000000  0.5314150000000 1.0
C      1  0.5055180000000  0.5685940000000  0.5110380000000 1.0
C      1  0.5101000000000  0.4796750000000  0.4844040000000 1.0
C      1  0.4826820000000  0.5448770000000  0.4548950000000 1.0
C      1  0.5567800000000  0.4750500000000  0.4703950000000 1.0
C      1  0.5735450000000  0.4475290000000  0.5181200000000 1.0
C      1  0.5147960000000  0.5005990000000  0.4482700000000 1.0
C      1  0.4694420000000  0.5582300000000  0.5489330000000 1.0
C      1  0.5227530000000  0.4784380000000  0.5615820000000 1.0
C      1  0.4412860000000  0.5130730000000  0.5260680000000 1.0
C      1  0.5028580000000  0.4860200000000  0.5227780000000 1.0
C      1  0.4624130000000  0.5197910000000  0.5030120000000 1.0
C      1  0.5277470000000  0.5522320000000  0.4638110000000 1.0
C      1  0.5539020000000  0.5546030000000  0.4727850000000 1.0
C      1  0.4997030000000  0.5536570000000  0.4830330000000 1.0
C      1  0.4833240000000  0.4935670000000  0.4966680000000 1.0
C      1  0.5459100000000  0.5314020000000  0.5133570000000 1.0
C      1  0.4927180000000  0.5310320000000  0.5063180000000 1.0
C      1  0.5308150000000  0.5606400000000  0.5223180000000 1.0
C      1  0.4614400000000  0.4572240000000  0.5427220000000 1.0
C      1  0.4460160000000  0.4478310000000  0.5204210000000 1.0
C      1  0.4575210000000  0.4369820000000  0.4955590000000 1.0
C      1  0.5795010000000  0.5248250000000  0.4194820000000 1.0
C      1  0.4990190000000  0.4373090000000  0.5424850000000 1.0
C      1  0.5192810000000  0.5111350000000  0.5072880000000 1.0
C      1  0.4804980000000  0.4206150000000  0.4917650000000 1.0
C      1  0.4835710000000  0.5720310000000  0.5291620000000 1.0
C      1  0.5093460000000  0.5324360000000  0.4505780000000 1.0
C      1  0.5455150000000  0.4889210000000  0.4439930000000 1.0
C      1  0.5056120000000  0.4544350000000  0.4639320000000 1.0
C      1  0.5388820000000  0.4707560000000  0.5413080000000 1.0
END
