TITL C-2778436-5916-193 -0.00781138293836773 125000 -604.343214141354 0 0 104 (C1) n - 1
REM
REM in /home/nfs/bkarasulu/CARBON/AIRSS/Generating-Clusters/REBO/Only-C1/SD-CG/HFTN-CG
REM
REM
REM
REM
REM
REM ./C.cell (11c1c37f851c82e70ff6c80c92926a4b)
REM
REM compiler GCC version 9.2.1 20190827 (Red Hat 9.2.1-1)
REM options -cpp -mtune=generic -march=x86-64 -g -O0 -fpre-include=/usr/include/finclude/math-vector-fortran.h
REM seed 53682814 -482172082 -744566001 1152629639 -1407495535 728325829 -965835049 1680038826 1441255739 2139446400 -1616595553 315273444 511932381 1278055265 -2070514351 -1846626404 84054498 -796890177 -1050729011 -1250065880 -1776948445 -1115791576 -1054356186 -19399120 1747238540 2127406722 -759797749 1796882834 -402490406 1341368039 -361650104 1103787092 -56824094
REM
CELL 1.54180   50.00000   50.00000   50.00000   90.00000   90.00000   90.00000
LATT -1
SFAC C  
C      1  0.4685030000000  0.5967480000000  0.4899170000000 1.0
C      1  0.4500610000000  0.5379760000000  0.5477260000000 1.0
C      1  0.4245980000000  0.5313520000000  0.4508930000000 1.0
C      1  0.4241380000000  0.5115490000000  0.5325990000000 1.0
C      1  0.5686440000000  0.5045350000000  0.4112440000000 1.0
C      1  0.4879900000000  0.4900810000000  0.5662490000000 1.0
C      1  0.4482870000000  0.5101650000000  0.5176610000000 1.0
C      1  0.5288190000000  0.4282120000000  0.4545180000000 1.0
C      1  0.5855740000000  0.5089270000000  0.4364200000000 1.0
C      1  0.5618100000000  0.5476580000000  0.4922990000000 1.0
C      1  0.5048030000000  0.4756520000000  0.4327930000000 1.0
C      1  0.5529820000000  0.4698830000000  0.4676570000000 1.0
C      1  0.5045730000000  0.4389650000000  0.4939270000000 1.0
C      1  0.4198830000000  0.4657100000000  0.5279940000000 1.0
C      1  0.4773070000000  0.5059360000000  0.5898040000000 1.0
C      1  0.5866920000000  0.4372910000000  0.5238730000000 1.0
C      1  0.4645330000000  0.4873850000000  0.5341510000000 1.0
C      1  0.5513870000000  0.5120080000000  0.5342840000000 1.0
C      1  0.4928610000000  0.4944920000000  0.4686470000000 1.0
C      1  0.4794430000000  0.4185720000000  0.5335740000000 1.0
C      1  0.4851840000000  0.4447350000000  0.4665860000000 1.0
C      1  0.4903600000000  0.4458300000000  0.5209530000000 1.0
C      1  0.4677840000000  0.5462650000000  0.4505420000000 1.0
C      1  0.4741920000000  0.4755150000000  0.4272000000000 1.0
C      1  0.5802620000000  0.5429540000000  0.4721310000000 1.0
C      1  0.4396360000000  0.5835580000000  0.4808550000000 1.0
C      1  0.5125330000000  0.5425320000000  0.4513510000000 1.0
C      1  0.5093280000000  0.4469110000000  0.4464720000000 1.0
C      1  0.5085980000000  0.5261200000000  0.5440490000000 1.0
C      1  0.4585390000000  0.4991670000000  0.4259710000000 1.0
C      1  0.4806960000000  0.5812080000000  0.5106400000000 1.0
C      1  0.4814470000000  0.5335160000000  0.5889360000000 1.0
C      1  0.4933040000000  0.5348280000000  0.5209460000000 1.0
C      1  0.4510580000000  0.5456870000000  0.4772020000000 1.0
C      1  0.4888760000000  0.5558040000000  0.5755270000000 1.0
C      1  0.6130250000000  0.5183670000000  0.5360770000000 1.0
C      1  0.4222960000000  0.4867630000000  0.5485860000000 1.0
C      1  0.4596120000000  0.4379650000000  0.5452630000000 1.0
C      1  0.5623790000000  0.4757660000000  0.4971760000000 1.0
C      1  0.5230180000000  0.4813970000000  0.4613560000000 1.0
C      1  0.4386230000000  0.4436930000000  0.5265540000000 1.0
C      1  0.6379510000000  0.5200070000000  0.5412990000000 1.0
C      1  0.5027630000000  0.5800950000000  0.5289660000000 1.0
C      1  0.5455770000000  0.5508570000000  0.4538640000000 1.0
C      1  0.4172310000000  0.5033370000000  0.4941470000000 1.0
C      1  0.5409180000000  0.4969250000000  0.4182590000000 1.0
C      1  0.5470750000000  0.5578830000000  0.5356160000000 1.0
C      1  0.5275850000000  0.4197440000000  0.5009260000000 1.0
C      1  0.5378550000000  0.4940760000000  0.5086540000000 1.0
C      1  0.4878620000000  0.5219150000000  0.4512490000000 1.0
C      1  0.5839120000000  0.5164520000000  0.5299780000000 1.0
C      1  0.4859630000000  0.3966910000000  0.5163850000000 1.0
C      1  0.5353290000000  0.5336200000000  0.5454050000000 1.0
C      1  0.5119960000000  0.5071540000000  0.4329360000000 1.0
C      1  0.5260290000000  0.4812200000000  0.5346640000000 1.0
C      1  0.5583440000000  0.4945300000000  0.4483510000000 1.0
C      1  0.5104830000000  0.5330940000000  0.4919500000000 1.0
C      1  0.4428560000000  0.4871440000000  0.5719860000000 1.0
C      1  0.4778920000000  0.5215250000000  0.4935950000000 1.0
C      1  0.4120100000000  0.4761430000000  0.5015790000000 1.0
C      1  0.5395290000000  0.4605960000000  0.5761150000000 1.0
C      1  0.5172620000000  0.4071860000000  0.4737480000000 1.0
C      1  0.5637130000000  0.4264310000000  0.5339090000000 1.0
C      1  0.4200590000000  0.4604130000000  0.4790650000000 1.0
C      1  0.5311780000000  0.5569950000000  0.4905150000000 1.0
C      1  0.4966710000000  0.5723620000000  0.5556690000000 1.0
C      1  0.5198520000000  0.5032100000000  0.4870210000000 1.0
C      1  0.4504570000000  0.5067550000000  0.4850970000000 1.0
C      1  0.4728570000000  0.4739980000000  0.4803960000000 1.0
C      1  0.5877320000000  0.4576810000000  0.5058890000000 1.0
C      1  0.4706860000000  0.5531030000000  0.5039680000000 1.0
C      1  0.4711630000000  0.4630370000000  0.5572980000000 1.0
C      1  0.4684480000000  0.4656730000000  0.5115510000000 1.0
C      1  0.4509680000000  0.4379750000000  0.4992860000000 1.0
C      1  0.4433220000000  0.4735230000000  0.4640990000000 1.0
C      1  0.4667790000000  0.4225410000000  0.4807460000000 1.0
C      1  0.4681320000000  0.5784060000000  0.4622360000000 1.0
C      1  0.5064500000000  0.4987650000000  0.5487530000000 1.0
C      1  0.5145760000000  0.4551370000000  0.5869230000000 1.0
C      1  0.5784820000000  0.4265260000000  0.4604000000000 1.0
C      1  0.5689500000000  0.5448530000000  0.5197570000000 1.0
C      1  0.4207930000000  0.5586940000000  0.4676040000000 1.0
C      1  0.4216500000000  0.5338310000000  0.4906470000000 1.0
C      1  0.4419040000000  0.5044020000000  0.4526830000000 1.0
C      1  0.4979530000000  0.5719520000000  0.4540970000000 1.0
C      1  0.5377080000000  0.5190320000000  0.4509240000000 1.0
C      1  0.5186310000000  0.4514960000000  0.5325390000000 1.0
C      1  0.4625020000000  0.4768560000000  0.5937200000000 1.0
C      1  0.4405910000000  0.5574670000000  0.5310200000000 1.0
C      1  0.5274100000000  0.5765760000000  0.4657830000000 1.0
C      1  0.5371380000000  0.4305600000000  0.5258570000000 1.0
C      1  0.4582020000000  0.5215240000000  0.4088060000000 1.0
C      1  0.4560850000000  0.5120260000000  0.5565300000000 1.0
C      1  0.5545340000000  0.4402110000000  0.4597220000000 1.0
C      1  0.4582160000000  0.5461930000000  0.4208780000000 1.0
C      1  0.4877190000000  0.4024480000000  0.4878120000000 1.0
C      1  0.5501120000000  0.4720920000000  0.5535820000000 1.0
C      1  0.4302470000000  0.5627000000000  0.5061780000000 1.0
C      1  0.5281380000000  0.5720470000000  0.5185420000000 1.0
C      1  0.5371640000000  0.6024910000000  0.4661310000000 1.0
C      1  0.5938740000000  0.5304120000000  0.4522550000000 1.0
C      1  0.4861360000000  0.4563100000000  0.5871230000000 1.0
C      1  0.5704820000000  0.4849020000000  0.5293470000000 1.0
C      1  0.4622770000000  0.4565220000000  0.4453720000000 1.0
END
