TITL C-2778422-5617-399 -0.00367548023163619 125000 -1018.37573585321 0 0 177 (C1) n - 1
REM
REM in /home/nfs/bkarasulu/CARBON/AIRSS/Generating-Clusters/REBO/Only-C1/SD-CG/HFTN-CG
REM
REM
REM
REM
REM
REM ./C.cell (11c1c37f851c82e70ff6c80c92926a4b)
REM
REM compiler GCC version 9.2.1 20190827 (Red Hat 9.2.1-1)
REM options -cpp -mtune=generic -march=x86-64 -g -O0 -fpre-include=/usr/include/finclude/math-vector-fortran.h
REM seed -811306750 -1925608446 638398042 -249940397 1402608403 -2287179 -912498477 -296758105 1230253678 -588526713 207939790 1477807715 70116849 -57956004 -1526356015 -650495004 233967330 -671473432 -1395552733 -912275148 849499654 -2375802 -901433700 1320073796 -1481411103 93978577 1159263269 -1703806085 680741169 -1150412732 1041996467 -646343584 497849715
REM
CELL 1.54180   50.00000   50.00000   50.00000   90.00000   90.00000   90.00000
LATT -1
SFAC C  
C      1  0.4842640000000  0.5986490000000  0.5425170000000 1.0
C      1  0.6166800000000  0.4976710000000  0.4688020000000 1.0
C      1  0.5980260000000  0.4619260000000  0.5427950000000 1.0
C      1  0.4498990000000  0.5201420000000  0.4886530000000 1.0
C      1  0.5288040000000  0.5564190000000  0.4865160000000 1.0
C      1  0.5529070000000  0.5294500000000  0.4695650000000 1.0
C      1  0.5925900000000  0.4821760000000  0.4579580000000 1.0
C      1  0.4418960000000  0.5008720000000  0.5760970000000 1.0
C      1  0.4940790000000  0.5349290000000  0.5335080000000 1.0
C      1  0.4224000000000  0.5445530000000  0.4270230000000 1.0
C      1  0.5214350000000  0.5368000000000  0.3926330000000 1.0
C      1  0.4918450000000  0.4934520000000  0.5587960000000 1.0
C      1  0.5964950000000  0.4554520000000  0.5017980000000 1.0
C      1  0.4829280000000  0.4548620000000  0.4704930000000 1.0
C      1  0.3952520000000  0.5434690000000  0.5225980000000 1.0
C      1  0.4695530000000  0.4308600000000  0.4651900000000 1.0
C      1  0.4977780000000  0.4833930000000  0.4815260000000 1.0
C      1  0.5304020000000  0.4002610000000  0.5390010000000 1.0
C      1  0.4982690000000  0.5593860000000  0.3853630000000 1.0
C      1  0.5319790000000  0.5061740000000  0.4571630000000 1.0
C      1  0.4238690000000  0.4132120000000  0.4798160000000 1.0
C      1  0.4786460000000  0.4068480000000  0.4468530000000 1.0
C      1  0.4220760000000  0.4592480000000  0.5055840000000 1.0
C      1  0.3948790000000  0.4912360000000  0.5059550000000 1.0
C      1  0.5500230000000  0.5786860000000  0.4929940000000 1.0
C      1  0.6171270000000  0.5017320000000  0.4934750000000 1.0
C      1  0.4201700000000  0.5898090000000  0.4937500000000 1.0
C      1  0.3906220000000  0.4558820000000  0.4985770000000 1.0
C      1  0.4970370000000  0.3993180000000  0.5319840000000 1.0
C      1  0.5658500000000  0.4993840000000  0.5097800000000 1.0
C      1  0.4629070000000  0.4179380000000  0.5393420000000 1.0
C      1  0.5698830000000  0.4858340000000  0.5919870000000 1.0
C      1  0.4316330000000  0.5332880000000  0.5100750000000 1.0
C      1  0.4847500000000  0.5026460000000  0.6085240000000 1.0
C      1  0.4188560000000  0.5639740000000  0.5128640000000 1.0
C      1  0.5844160000000  0.4294230000000  0.5203310000000 1.0
C      1  0.5980860000000  0.5504900000000  0.4353200000000 1.0
C      1  0.5198230000000  0.4867460000000  0.5977830000000 1.0
C      1  0.5005300000000  0.4627440000000  0.5205920000000 1.0
C      1  0.5684960000000  0.4669990000000  0.4300570000000 1.0
C      1  0.4957270000000  0.5555340000000  0.4646900000000 1.0
C      1  0.4490270000000  0.5283720000000  0.4408060000000 1.0
C      1  0.5969160000000  0.4855560000000  0.5106200000000 1.0
C      1  0.5712520000000  0.4284250000000  0.5517440000000 1.0
C      1  0.4234470000000  0.5189550000000  0.5595290000000 1.0
C      1  0.5209420000000  0.5669200000000  0.5176520000000 1.0
C      1  0.5346750000000  0.5062490000000  0.4240330000000 1.0
C      1  0.4967620000000  0.5198750000000  0.3837110000000 1.0
C      1  0.5449970000000  0.5321690000000  0.5956430000000 1.0
C      1  0.5671450000000  0.4423400000000  0.4938080000000 1.0
C      1  0.4717560000000  0.6021650000000  0.4727530000000 1.0
C      1  0.5971970000000  0.5509900000000  0.5303550000000 1.0
C      1  0.5000230000000  0.5162400000000  0.4595210000000 1.0
C      1  0.5715540000000  0.4935430000000  0.5406580000000 1.0
C      1  0.4901050000000  0.5178060000000  0.4270250000000 1.0
C      1  0.5386370000000  0.5535150000000  0.5702260000000 1.0
C      1  0.5279470000000  0.5764710000000  0.5486350000000 1.0
C      1  0.4545540000000  0.5326150000000  0.4071750000000 1.0
C      1  0.4344420000000  0.5479120000000  0.4646700000000 1.0
C      1  0.5442920000000  0.5032760000000  0.5850640000000 1.0
C      1  0.4591260000000  0.5615810000000  0.5690320000000 1.0
C      1  0.4677880000000  0.5503240000000  0.5076990000000 1.0
C      1  0.5518120000000  0.4203440000000  0.4560520000000 1.0
C      1  0.4833240000000  0.4749880000000  0.6149140000000 1.0
C      1  0.4619090000000  0.4855380000000  0.5544720000000 1.0
C      1  0.4729990000000  0.4112890000000  0.5102330000000 1.0
C      1  0.5633430000000  0.4038860000000  0.5307100000000 1.0
C      1  0.5365640000000  0.4776870000000  0.4720640000000 1.0
C      1  0.4461230000000  0.5022780000000  0.4076170000000 1.0
C      1  0.4933440000000  0.5216620000000  0.5709640000000 1.0
C      1  0.4171150000000  0.4344940000000  0.5258090000000 1.0
C      1  0.4235570000000  0.5142580000000  0.5296210000000 1.0
C      1  0.4120230000000  0.5471590000000  0.5484340000000 1.0
C      1  0.4279840000000  0.5086660000000  0.4684690000000 1.0
C      1  0.4405790000000  0.4519180000000  0.4829760000000 1.0
C      1  0.5681760000000  0.5765830000000  0.5403230000000 1.0
C      1  0.5115170000000  0.4572360000000  0.5522660000000 1.0
C      1  0.5045740000000  0.4102130000000  0.4396820000000 1.0
C      1  0.5098990000000  0.5468030000000  0.5849350000000 1.0
C      1  0.5060770000000  0.4128100000000  0.5020480000000 1.0
C      1  0.4625670000000  0.5147870000000  0.5952700000000 1.0
C      1  0.5459650000000  0.5891140000000  0.5224250000000 1.0
C      1  0.4742000000000  0.4760960000000  0.5055990000000 1.0
C      1  0.5468620000000  0.4390640000000  0.6099690000000 1.0
C      1  0.4260620000000  0.4858440000000  0.5185100000000 1.0
C      1  0.4969570000000  0.5555350000000  0.4985810000000 1.0
C      1  0.5475500000000  0.5283720000000  0.5302030000000 1.0
C      1  0.4596110000000  0.5822280000000  0.5431080000000 1.0
C      1  0.4368110000000  0.5706020000000  0.4409760000000 1.0
C      1  0.3875850000000  0.4857220000000  0.4563010000000 1.0
C      1  0.5220530000000  0.5958390000000  0.4552730000000 1.0
C      1  0.4762330000000  0.4389830000000  0.4233350000000 1.0
C      1  0.5158210000000  0.4428430000000  0.5004010000000 1.0
C      1  0.3775020000000  0.4788380000000  0.4808850000000 1.0
C      1  0.4636080000000  0.5611950000000  0.4232350000000 1.0
C      1  0.4649650000000  0.5261820000000  0.5301760000000 1.0
C      1  0.4371000000000  0.4337910000000  0.5474110000000 1.0
C      1  0.4888780000000  0.4962030000000  0.4020720000000 1.0
C      1  0.4486570000000  0.5975240000000  0.4906030000000 1.0
C      1  0.4858750000000  0.4139700000000  0.5613140000000 1.0
C      1  0.5133550000000  0.4860360000000  0.4202870000000 1.0
C      1  0.5433200000000  0.5816700000000  0.4464090000000 1.0
C      1  0.4909930000000  0.6119130000000  0.5184780000000 1.0
C      1  0.4571770000000  0.4934180000000  0.5251440000000 1.0
C      1  0.5450330000000  0.4647600000000  0.5950810000000 1.0
C      1  0.5957520000000  0.4511270000000  0.4679380000000 1.0
C      1  0.4541040000000  0.4212990000000  0.4898610000000 1.0
C      1  0.4810220000000  0.4654920000000  0.4315440000000 1.0
C      1  0.4291620000000  0.4621670000000  0.4545410000000 1.0
C      1  0.5401940000000  0.4602010000000  0.5170100000000 1.0
C      1  0.4442750000000  0.5491740000000  0.5443530000000 1.0
C      1  0.4940720000000  0.5838040000000  0.4546480000000 1.0
C      1  0.5730390000000  0.5423070000000  0.5872080000000 1.0
C      1  0.4502440000000  0.4286610000000  0.4291550000000 1.0
C      1  0.5619390000000  0.5292520000000  0.4991930000000 1.0
C      1  0.4728430000000  0.5388100000000  0.3827800000000 1.0
C      1  0.4408040000000  0.4623530000000  0.5658680000000 1.0
C      1  0.5240140000000  0.5379430000000  0.4261280000000 1.0
C      1  0.5361840000000  0.4326110000000  0.5330280000000 1.0
C      1  0.3938560000000  0.5230840000000  0.5019560000000 1.0
C      1  0.5167670000000  0.4503790000000  0.4702710000000 1.0
C      1  0.5487310000000  0.4206080000000  0.5051280000000 1.0
C      1  0.5265450000000  0.5457050000000  0.4555170000000 1.0
C      1  0.4808330000000  0.5113210000000  0.4922570000000 1.0
C      1  0.4353690000000  0.4697240000000  0.4076150000000 1.0
C      1  0.5196770000000  0.6155400000000  0.4762500000000 1.0
C      1  0.5385960000000  0.4707640000000  0.5626480000000 1.0
C      1  0.5636120000000  0.4601680000000  0.5421490000000 1.0
C      1  0.5115190000000  0.4915500000000  0.5318310000000 1.0
C      1  0.5173910000000  0.5216350000000  0.5231690000000 1.0
C      1  0.4891810000000  0.4596270000000  0.3858870000000 1.0
C      1  0.4237670000000  0.4777050000000  0.5887840000000 1.0
C      1  0.5602770000000  0.4936860000000  0.4161600000000 1.0
C      1  0.4732770000000  0.4282170000000  0.5855070000000 1.0
C      1  0.5810860000000  0.5006260000000  0.4374320000000 1.0
C      1  0.5918900000000  0.4212610000000  0.4267890000000 1.0
C      1  0.5333250000000  0.4907940000000  0.5034900000000 1.0
C      1  0.4852510000000  0.4506040000000  0.5971350000000 1.0
C      1  0.5011620000000  0.4715930000000  0.5793590000000 1.0
C      1  0.4959240000000  0.5745980000000  0.5832640000000 1.0
C      1  0.4704020000000  0.5417370000000  0.5844270000000 1.0
C      1  0.5109580000000  0.4631170000000  0.3980830000000 1.0
C      1  0.5037040000000  0.4786070000000  0.4482920000000 1.0
C      1  0.4042890000000  0.4246820000000  0.4971990000000 1.0
C      1  0.5917760000000  0.5369410000000  0.5594550000000 1.0
C      1  0.5764950000000  0.4373310000000  0.4446150000000 1.0
C      1  0.4948390000000  0.6146020000000  0.4905870000000 1.0
C      1  0.5694850000000  0.5623750000000  0.4482450000000 1.0
C      1  0.5857080000000  0.5480290000000  0.5084010000000 1.0
C      1  0.4643920000000  0.5890520000000  0.4422440000000 1.0
C      1  0.4639780000000  0.4776520000000  0.3920680000000 1.0
C      1  0.4674130000000  0.5061410000000  0.4556430000000 1.0
C      1  0.5033560000000  0.5891930000000  0.5608590000000 1.0
C      1  0.4669530000000  0.5446760000000  0.4747200000000 1.0
C      1  0.5143810000000  0.5173310000000  0.4910210000000 1.0
C      1  0.6047500000000  0.5098750000000  0.5581590000000 1.0
C      1  0.5140310000000  0.5195950000000  0.6049470000000 1.0
C      1  0.4921420000000  0.5481300000000  0.4169390000000 1.0
C      1  0.4058670000000  0.4735390000000  0.6068510000000 1.0
C      1  0.5709220000000  0.5797130000000  0.4752140000000 1.0
C      1  0.5652410000000  0.4670080000000  0.4720570000000 1.0
C      1  0.5621890000000  0.5496050000000  0.5495170000000 1.0
C      1  0.4161080000000  0.4872690000000  0.4552660000000 1.0
C      1  0.5332590000000  0.4083570000000  0.4819490000000 1.0
C      1  0.5143280000000  0.4254880000000  0.5562210000000 1.0
C      1  0.4326000000000  0.4511310000000  0.4289830000000 1.0
C      1  0.4505740000000  0.5744300000000  0.5143550000000 1.0
C      1  0.5238810000000  0.4289300000000  0.4494580000000 1.0
C      1  0.4592560000000  0.4791460000000  0.4746470000000 1.0
C      1  0.4457810000000  0.4327490000000  0.5795320000000 1.0
C      1  0.4625750000000  0.4869810000000  0.4309290000000 1.0
C      1  0.5429670000000  0.5033880000000  0.5531340000000 1.0
C      1  0.4083760000000  0.5309030000000  0.4779080000000 1.0
C      1  0.4448390000000  0.4072760000000  0.4536210000000 1.0
C      1  0.5872080000000  0.4883240000000  0.5706670000000 1.0
C      1  0.5771070000000  0.5287880000000  0.4477520000000 1.0
C      1  0.6110540000000  0.4880090000000  0.5388610000000 1.0
END
