TITL C-2778432-5617-654 0.00157471851447988 125000 -189.880168301266 0 0 35 (C1) n - 1
REM
REM in /home/nfs/bkarasulu/CARBON/AIRSS/Generating-Clusters/REBO/Only-C1/SD-CG/HFTN-CG
REM
REM
REM
REM
REM
REM ./C.cell (11c1c37f851c82e70ff6c80c92926a4b)
REM
REM compiler GCC version 9.2.1 20190827 (Red Hat 9.2.1-1)
REM options -cpp -mtune=generic -march=x86-64 -g -O0 -fpre-include=/usr/include/finclude/math-vector-fortran.h
REM seed 18160780 -1467408952 1125396719 -1517483158 438640838 -357945795 -516644776 363257609 847991777 -167227778 -96337695 661798905 -337524959 1668534192 560769369 646392353 1880916206 202469840 1840398338 -654482527 -1821703219 1733967450 -275617998 1402750887 -750477785 1359640583 -1348092419 1053619339 -334980636 -617386422 2053099861 1016126160 1332514455
REM
CELL 1.54180   50.00000   50.00000   50.00000   90.00000   90.00000   90.00000
LATT -1
SFAC C  
C      1  0.5058490000000  0.4955740000000  0.4616100000000 1.0
C      1  0.4865270000000  0.4570850000000  0.5322340000000 1.0
C      1  0.5302360000000  0.4949710000000  0.5300650000000 1.0
C      1  0.4924620000000  0.4583250000000  0.5000110000000 1.0
C      1  0.5496210000000  0.4718490000000  0.5199610000000 1.0
C      1  0.5508820000000  0.5615460000000  0.5108520000000 1.0
C      1  0.4930120000000  0.4325620000000  0.4888900000000 1.0
C      1  0.5342560000000  0.4478430000000  0.5123960000000 1.0
C      1  0.4620270000000  0.5221050000000  0.5444200000000 1.0
C      1  0.5248140000000  0.5119480000000  0.4931490000000 1.0
C      1  0.5511750000000  0.4912870000000  0.4963130000000 1.0
C      1  0.4398290000000  0.5227310000000  0.4975610000000 1.0
C      1  0.4368230000000  0.4977050000000  0.5122390000000 1.0
C      1  0.4582730000000  0.5212170000000  0.4751330000000 1.0
C      1  0.4511630000000  0.4967870000000  0.5373660000000 1.0
C      1  0.5449460000000  0.5549220000000  0.4795200000000 1.0
C      1  0.4422030000000  0.4754670000000  0.4948170000000 1.0
C      1  0.5611120000000  0.5819230000000  0.4877170000000 1.0
C      1  0.5313960000000  0.5327930000000  0.4713360000000 1.0
C      1  0.4771400000000  0.5383260000000  0.5269000000000 1.0
C      1  0.5125450000000  0.4417280000000  0.5303050000000 1.0
C      1  0.5289190000000  0.4490470000000  0.4839530000000 1.0
C      1  0.5346200000000  0.4799630000000  0.4712770000000 1.0
C      1  0.5410040000000  0.5452490000000  0.5309840000000 1.0
C      1  0.5076200000000  0.4615610000000  0.4617560000000 1.0
C      1  0.4475610000000  0.5048540000000  0.4533900000000 1.0
C      1  0.4983800000000  0.5237250000000  0.5113140000000 1.0
C      1  0.4734570000000  0.5654910000000  0.5236510000000 1.0
C      1  0.5242800000000  0.5228150000000  0.5314490000000 1.0
C      1  0.4483570000000  0.4774270000000  0.4631650000000 1.0
C      1  0.4739850000000  0.4768570000000  0.4853530000000 1.0
C      1  0.5138100000000  0.4816840000000  0.5052930000000 1.0
C      1  0.4859970000000  0.5078060000000  0.4845380000000 1.0
C      1  0.4665670000000  0.4733720000000  0.5425760000000 1.0
C      1  0.5191520000000  0.5214560000000  0.4485040000000 1.0
END
