TITL C-2778428-5639-1118 0.000382056260789361 125000 -504.835318195176 0 0 86 (C1) n - 1
REM
REM in /home/nfs/bkarasulu/CARBON/AIRSS/Generating-Clusters/REBO/Only-C1/SD-CG/HFTN-CG
REM
REM
REM
REM
REM
REM ./C.cell (11c1c37f851c82e70ff6c80c92926a4b)
REM
REM compiler GCC version 9.2.1 20190827 (Red Hat 9.2.1-1)
REM options -cpp -mtune=generic -march=x86-64 -g -O0 -fpre-include=/usr/include/finclude/math-vector-fortran.h
REM seed -1813904116 1864781252 1024370922 -1566283878 1440548970 -310194036 -154778745 721202109 237042717 -169199321 -634553524 -1773311919 1707923664 -439689315 1281248848 1144470962 -11085973 -306955639 929676612 525140880 -1994121097 -1767426275 1332627254 -1135530133 294767267 -1973096840 -2139359506 -869524374 1036962495 -659586082 602968088 1236744741 -1406282783
REM
CELL 1.54180   50.00000   50.00000   50.00000   90.00000   90.00000   90.00000
LATT -1
SFAC C  
C      1  0.5370840000000  0.5143620000000  0.4862330000000 1.0
C      1  0.4814610000000  0.5879560000000  0.5357240000000 1.0
C      1  0.5300680000000  0.4890520000000  0.4238280000000 1.0
C      1  0.5537410000000  0.4644920000000  0.5519890000000 1.0
C      1  0.4334370000000  0.4895520000000  0.4918140000000 1.0
C      1  0.5103930000000  0.5188880000000  0.4656390000000 1.0
C      1  0.4742300000000  0.5241560000000  0.5593690000000 1.0
C      1  0.4951700000000  0.4464590000000  0.5861540000000 1.0
C      1  0.5895330000000  0.5377010000000  0.5004650000000 1.0
C      1  0.4346470000000  0.4388810000000  0.4826570000000 1.0
C      1  0.4654440000000  0.4517510000000  0.4393130000000 1.0
C      1  0.5199450000000  0.4380910000000  0.5760790000000 1.0
C      1  0.5204850000000  0.5676650000000  0.4678350000000 1.0
C      1  0.5101280000000  0.5101220000000  0.5044300000000 1.0
C      1  0.4958270000000  0.4881590000000  0.4665480000000 1.0
C      1  0.4849770000000  0.4652690000000  0.4152910000000 1.0
C      1  0.4726200000000  0.4823010000000  0.4488940000000 1.0
C      1  0.5458070000000  0.5555050000000  0.4723650000000 1.0
C      1  0.4691010000000  0.4251870000000  0.4975630000000 1.0
C      1  0.5630680000000  0.5094940000000  0.4710970000000 1.0
C      1  0.5272820000000  0.5631290000000  0.5446200000000 1.0
C      1  0.4487440000000  0.4358330000000  0.5199310000000 1.0
C      1  0.4614630000000  0.5357300000000  0.5357510000000 1.0
C      1  0.5507110000000  0.5550020000000  0.5286980000000 1.0
C      1  0.4894210000000  0.5155350000000  0.4216350000000 1.0
C      1  0.5103310000000  0.5338850000000  0.4286720000000 1.0
C      1  0.5724320000000  0.4543190000000  0.5097140000000 1.0
C      1  0.5444800000000  0.4720550000000  0.4701300000000 1.0
C      1  0.5142580000000  0.4978470000000  0.5421440000000 1.0
C      1  0.4543710000000  0.5625560000000  0.4827740000000 1.0
C      1  0.4305400000000  0.4824340000000  0.4625670000000 1.0
C      1  0.5577150000000  0.4989000000000  0.5167950000000 1.0
C      1  0.5068570000000  0.5805080000000  0.4891460000000 1.0
C      1  0.4631890000000  0.4861900000000  0.5028710000000 1.0
C      1  0.4834190000000  0.5377720000000  0.5148680000000 1.0
C      1  0.4138780000000  0.4736810000000  0.5124630000000 1.0
C      1  0.5503810000000  0.4739070000000  0.4989610000000 1.0
C      1  0.5124940000000  0.4447780000000  0.4993350000000 1.0
C      1  0.4664770000000  0.5201320000000  0.4376240000000 1.0
C      1  0.5102050000000  0.5289580000000  0.5313660000000 1.0
C      1  0.4449190000000  0.4980250000000  0.5517530000000 1.0
C      1  0.4927220000000  0.5410120000000  0.5728000000000 1.0
C      1  0.5760120000000  0.4547530000000  0.5370280000000 1.0
C      1  0.5687760000000  0.5377460000000  0.5432130000000 1.0
C      1  0.4692770000000  0.4475030000000  0.5668040000000 1.0
C      1  0.4303050000000  0.5357310000000  0.5227180000000 1.0
C      1  0.5223680000000  0.4806600000000  0.5139330000000 1.0
C      1  0.4163950000000  0.5076410000000  0.5132290000000 1.0
C      1  0.4572740000000  0.5792520000000  0.5273200000000 1.0
C      1  0.5077960000000  0.5821270000000  0.5373530000000 1.0
C      1  0.5576230000000  0.5180120000000  0.5607140000000 1.0
C      1  0.5382780000000  0.4450290000000  0.4566770000000 1.0
C      1  0.4366060000000  0.4548720000000  0.4574680000000 1.0
C      1  0.5464530000000  0.4938370000000  0.5454870000000 1.0
C      1  0.5201090000000  0.5474080000000  0.5684550000000 1.0
C      1  0.4610590000000  0.5249630000000  0.4709870000000 1.0
C      1  0.5486970000000  0.4631620000000  0.4317610000000 1.0
C      1  0.5020030000000  0.5483160000000  0.4551390000000 1.0
C      1  0.4734980000000  0.5531360000000  0.4630080000000 1.0
C      1  0.4948650000000  0.4168210000000  0.4768240000000 1.0
C      1  0.4290960000000  0.5171160000000  0.5498560000000 1.0
C      1  0.4603310000000  0.4513570000000  0.5403690000000 1.0
C      1  0.4995890000000  0.4887360000000  0.4149700000000 1.0
C      1  0.5537630000000  0.5567730000000  0.5001280000000 1.0
C      1  0.4468970000000  0.4980350000000  0.4452370000000 1.0
C      1  0.4785080000000  0.5119260000000  0.4935830000000 1.0
C      1  0.5268250000000  0.4913110000000  0.4554180000000 1.0
C      1  0.5362430000000  0.5217670000000  0.4313840000000 1.0
C      1  0.4996370000000  0.4714620000000  0.4921420000000 1.0
C      1  0.5737300000000  0.5184320000000  0.5085760000000 1.0
C      1  0.5519950000000  0.5324120000000  0.4540140000000 1.0
C      1  0.5219620000000  0.4290580000000  0.4742780000000 1.0
C      1  0.4850180000000  0.4953140000000  0.5543340000000 1.0
C      1  0.4624660000000  0.4581850000000  0.4897580000000 1.0
C      1  0.5791130000000  0.4900910000000  0.4587200000000 1.0
C      1  0.4644630000000  0.4808360000000  0.5331110000000 1.0
C      1  0.5316700000000  0.4460040000000  0.5517040000000 1.0
C      1  0.4335970000000  0.5267180000000  0.4773740000000 1.0
C      1  0.5204320000000  0.4405460000000  0.5261740000000 1.0
C      1  0.4449650000000  0.5612260000000  0.5094920000000 1.0
C      1  0.4211370000000  0.4456230000000  0.5100800000000 1.0
C      1  0.5754840000000  0.4721480000000  0.4380600000000 1.0
C      1  0.4886000000000  0.5658970000000  0.5031710000000 1.0
C      1  0.4708770000000  0.4360610000000  0.4652650000000 1.0
C      1  0.5397970000000  0.5298180000000  0.5792460000000 1.0
C      1  0.4829580000000  0.4749520000000  0.5775320000000 1.0
END
