TITL C-2778422-5617-60 1.04982464416674e-07 125000 -54.7480711807657 0 0 11 (Cs) n - 1
REM
REM in /home/nfs/bkarasulu/CARBON/AIRSS/Generating-Clusters/REBO/Only-C1/SD-CG/HFTN-CG
REM
REM
REM
REM
REM
REM ./C.cell (11c1c37f851c82e70ff6c80c92926a4b)
REM
REM compiler GCC version 9.2.1 20190827 (Red Hat 9.2.1-1)
REM options -cpp -mtune=generic -march=x86-64 -g -O0 -fpre-include=/usr/include/finclude/math-vector-fortran.h
REM seed -1379288182 1060286324 -329056340 1777938454 -1656164517 735489389 405726509 139389741 -1307750713 -614997025 -637399094 -567618808 563955121 -4462716 1859536192 -1041016994 -1042697215 394805664 1957690237 492394990 -1755412812 1748622832 774237649 1089024378 1512057269 -1272747163 35994443 2008934471 455134133 1808857634 939775257 1131377288 1259619924
REM
CELL 1.54180   50.00000   50.00000   50.00000   90.00000   90.00000   90.00000
LATT -1
SFAC C  
C      1  0.4752990000000  0.4622780000000  0.4632750000000 1.0
C      1  0.4855220000000  0.5414350000000  0.5209160000000 1.0
C      1  0.5380010000000  0.4654520000000  0.4946630000000 1.0
C      1  0.4766580000000  0.5230380000000  0.5044910000000 1.0
C      1  0.5094480000000  0.4804610000000  0.4913600000000 1.0
C      1  0.5485970000000  0.5315450000000  0.5437530000000 1.0
C      1  0.4842230000000  0.4815840000000  0.4803350000000 1.0
C      1  0.5405860000000  0.5126840000000  0.5274170000000 1.0
C      1  0.5323040000000  0.4931840000000  0.5105270000000 1.0
C      1  0.4421620000000  0.5049310000000  0.4762960000000 1.0
C      1  0.4672010000000  0.5034080000000  0.4869660000000 1.0
END
