TITL C-2778425-5191-1001 -0.000853687332766324 125000 -762.470230213088 0 0 130 (C1) n - 1
REM
REM in /home/nfs/bkarasulu/CARBON/AIRSS/Generating-Clusters/REBO/Only-C1/SD-CG/HFTN-CG
REM
REM
REM
REM
REM
REM ./C.cell (11c1c37f851c82e70ff6c80c92926a4b)
REM
REM compiler GCC version 9.2.1 20190827 (Red Hat 9.2.1-1)
REM options -cpp -mtune=generic -march=x86-64 -g -O0 -fpre-include=/usr/include/finclude/math-vector-fortran.h
REM seed -586122106 705646701 2075996640 1034467850 -111447654 -675281329 1841056983 1401359705 -1401020818 1227308810 -473350271 1509536084 -1182996135 2089328538 1200467036 -1399089220 -1467460282 -1955218339 215262031 -1936498722 -136659548 -629513927 -1620032346 -899109236 -309454298 -1363119080 60286200 -567692251 -343253539 -819687341 -860893805 368949937 431915399
REM
CELL 1.54180   50.00000   50.00000   50.00000   90.00000   90.00000   90.00000
LATT -1
SFAC C  
C      1  0.5237000000000  0.4938330000000  0.5860540000000 1.0
C      1  0.5297840000000  0.4136320000000  0.4648300000000 1.0
C      1  0.5184700000000  0.5473160000000  0.4659810000000 1.0
C      1  0.5161340000000  0.4081790000000  0.5260670000000 1.0
C      1  0.5251490000000  0.4434050000000  0.4491440000000 1.0
C      1  0.4747130000000  0.4936300000000  0.4604010000000 1.0
C      1  0.4674120000000  0.5182270000000  0.5773110000000 1.0
C      1  0.4885280000000  0.5543650000000  0.4804020000000 1.0
C      1  0.5302090000000  0.5200790000000  0.5921470000000 1.0
C      1  0.5108890000000  0.5112000000000  0.5250370000000 1.0
C      1  0.5458540000000  0.4844980000000  0.4015320000000 1.0
C      1  0.5636500000000  0.5625750000000  0.5400440000000 1.0
C      1  0.4562080000000  0.4359460000000  0.5510160000000 1.0
C      1  0.4843530000000  0.5273640000000  0.5338410000000 1.0
C      1  0.5141560000000  0.5159190000000  0.4285030000000 1.0
C      1  0.4830440000000  0.4158940000000  0.4953280000000 1.0
C      1  0.4608690000000  0.4680420000000  0.4173230000000 1.0
C      1  0.5115720000000  0.5682180000000  0.5569540000000 1.0
C      1  0.4561070000000  0.5574360000000  0.5032490000000 1.0
C      1  0.4745110000000  0.4801370000000  0.5993760000000 1.0
C      1  0.4771480000000  0.5901040000000  0.4938290000000 1.0
C      1  0.4528470000000  0.4545810000000  0.5776220000000 1.0
C      1  0.5822250000000  0.5191380000000  0.4739960000000 1.0
C      1  0.4333280000000  0.4500540000000  0.5068710000000 1.0
C      1  0.5031480000000  0.4413240000000  0.5944240000000 1.0
C      1  0.4101310000000  0.4663670000000  0.5056460000000 1.0
C      1  0.5072720000000  0.4666830000000  0.5272710000000 1.0
C      1  0.4489310000000  0.5822450000000  0.4811070000000 1.0
C      1  0.5565440000000  0.4279200000000  0.5396750000000 1.0
C      1  0.5471390000000  0.5167090000000  0.5091420000000 1.0
C      1  0.5138230000000  0.5008320000000  0.4567780000000 1.0
C      1  0.4317590000000  0.5371510000000  0.5157950000000 1.0
C      1  0.4860690000000  0.5634260000000  0.5136620000000 1.0
C      1  0.5296890000000  0.4179850000000  0.4986070000000 1.0
C      1  0.4973270000000  0.4702100000000  0.5541960000000 1.0
C      1  0.5712150000000  0.5107260000000  0.5329790000000 1.0
C      1  0.5299800000000  0.4878300000000  0.5161180000000 1.0
C      1  0.5831520000000  0.4869350000000  0.5130010000000 1.0
C      1  0.5259010000000  0.5626070000000  0.4919010000000 1.0
C      1  0.4589130000000  0.5449180000000  0.4358190000000 1.0
C      1  0.5445810000000  0.5598900000000  0.5616550000000 1.0
C      1  0.4663970000000  0.4741590000000  0.5542990000000 1.0
C      1  0.4826300000000  0.5505410000000  0.5512770000000 1.0
C      1  0.5105430000000  0.5419550000000  0.5784560000000 1.0
C      1  0.5424740000000  0.4757430000000  0.5648080000000 1.0
C      1  0.4318120000000  0.4813330000000  0.5742680000000 1.0
C      1  0.5730100000000  0.4405000000000  0.4906310000000 1.0
C      1  0.5514120000000  0.5487460000000  0.5043050000000 1.0
C      1  0.4478060000000  0.4896390000000  0.5971850000000 1.0
C      1  0.4695370000000  0.4137300000000  0.5436660000000 1.0
C      1  0.4161180000000  0.4857550000000  0.4512190000000 1.0
C      1  0.5582970000000  0.4226400000000  0.5112210000000 1.0
C      1  0.4888780000000  0.4520320000000  0.4792710000000 1.0
C      1  0.4622710000000  0.4736590000000  0.4800210000000 1.0
C      1  0.5172820000000  0.4555770000000  0.5756740000000 1.0
C      1  0.4921290000000  0.4827150000000  0.5044980000000 1.0
C      1  0.5223780000000  0.4476720000000  0.4832560000000 1.0
C      1  0.4230660000000  0.5116190000000  0.4431780000000 1.0
C      1  0.4454960000000  0.4461030000000  0.4782740000000 1.0
C      1  0.4852660000000  0.5573120000000  0.4228620000000 1.0
C      1  0.5212990000000  0.5302020000000  0.5488980000000 1.0
C      1  0.4107420000000  0.4890830000000  0.5247990000000 1.0
C      1  0.5465730000000  0.5084460000000  0.5562690000000 1.0
C      1  0.5421180000000  0.4671620000000  0.4951880000000 1.0
C      1  0.5360880000000  0.5580610000000  0.4411910000000 1.0
C      1  0.4566640000000  0.5138520000000  0.5230100000000 1.0
C      1  0.4959850000000  0.4979640000000  0.4088050000000 1.0
C      1  0.5703590000000  0.5214600000000  0.4480880000000 1.0
C      1  0.4330510000000  0.5334980000000  0.5496490000000 1.0
C      1  0.5882800000000  0.4899780000000  0.4829220000000 1.0
C      1  0.4279770000000  0.5155200000000  0.4825010000000 1.0
C      1  0.5046100000000  0.5021160000000  0.4867520000000 1.0
C      1  0.5300880000000  0.5942390000000  0.5160060000000 1.0
C      1  0.5578600000000  0.4831370000000  0.4724770000000 1.0
C      1  0.4825620000000  0.5344870000000  0.5878740000000 1.0
C      1  0.4961330000000  0.5351240000000  0.4462430000000 1.0
C      1  0.4957410000000  0.4126230000000  0.4643530000000 1.0
C      1  0.5208720000000  0.5952640000000  0.4876130000000 1.0
C      1  0.4247530000000  0.4537820000000  0.4549510000000 1.0
C      1  0.5623250000000  0.5482370000000  0.4380430000000 1.0
C      1  0.4884270000000  0.4064680000000  0.5242370000000 1.0
C      1  0.5807040000000  0.5627590000000  0.4239620000000 1.0
C      1  0.5815310000000  0.5417990000000  0.5294640000000 1.0
C      1  0.4980340000000  0.5839900000000  0.4674680000000 1.0
C      1  0.5090540000000  0.5920690000000  0.5353510000000 1.0
C      1  0.4639650000000  0.4967900000000  0.4165210000000 1.0
C      1  0.4537880000000  0.5510640000000  0.5591030000000 1.0
C      1  0.5887530000000  0.4589420000000  0.4689900000000 1.0
C      1  0.4852010000000  0.6016150000000  0.5244700000000 1.0
C      1  0.5919190000000  0.4967910000000  0.5560820000000 1.0
C      1  0.5330910000000  0.4140000000000  0.5483310000000 1.0
C      1  0.4526860000000  0.4591390000000  0.5284410000000 1.0
C      1  0.5370290000000  0.5038560000000  0.4802750000000 1.0
C      1  0.4944170000000  0.4826470000000  0.4381000000000 1.0
C      1  0.4749050000000  0.5201880000000  0.4629350000000 1.0
C      1  0.4806270000000  0.4556010000000  0.4496730000000 1.0
C      1  0.5668210000000  0.4610380000000  0.5172240000000 1.0
C      1  0.4623500000000  0.4229020000000  0.4726560000000 1.0
C      1  0.4546120000000  0.5303360000000  0.4837570000000 1.0
C      1  0.4711930000000  0.4178840000000  0.4412670000000 1.0
C      1  0.4132650000000  0.5107680000000  0.5074390000000 1.0
C      1  0.5222060000000  0.4875950000000  0.3938830000000 1.0
C      1  0.4109340000000  0.5334660000000  0.4630990000000 1.0
C      1  0.5804930000000  0.5364610000000  0.4963150000000 1.0
C      1  0.5016870000000  0.5304860000000  0.4981060000000 1.0
C      1  0.4181900000000  0.5782000000000  0.4870030000000 1.0
C      1  0.5144720000000  0.4441410000000  0.4205680000000 1.0
C      1  0.4943610000000  0.4435080000000  0.5108270000000 1.0
C      1  0.5552140000000  0.4372970000000  0.4627890000000 1.0
C      1  0.4586320000000  0.5031320000000  0.5542750000000 1.0
C      1  0.4125570000000  0.5513060000000  0.4907130000000 1.0
C      1  0.4872320000000  0.4493740000000  0.4174130000000 1.0
C      1  0.5526530000000  0.5784400000000  0.5183810000000 1.0
C      1  0.4611840000000  0.4853660000000  0.5100590000000 1.0
C      1  0.4547060000000  0.5551010000000  0.4627890000000 1.0
C      1  0.4486020000000  0.5181200000000  0.4295200000000 1.0
C      1  0.5412920000000  0.5190280000000  0.4208490000000 1.0
C      1  0.4848100000000  0.5610540000000  0.3955230000000 1.0
C      1  0.5499990000000  0.5360890000000  0.5759060000000 1.0
C      1  0.4042750000000  0.4700360000000  0.4771940000000 1.0
C      1  0.5624580000000  0.4938400000000  0.4296790000000 1.0
C      1  0.5646590000000  0.4656000000000  0.4458310000000 1.0
C      1  0.5634180000000  0.4572740000000  0.5490470000000 1.0
C      1  0.5077090000000  0.5743340000000  0.4391490000000 1.0
C      1  0.4762830000000  0.4497730000000  0.6005880000000 1.0
C      1  0.4503440000000  0.4447910000000  0.4386090000000 1.0
C      1  0.5883250000000  0.4723080000000  0.5618660000000 1.0
C      1  0.4221420000000  0.5011590000000  0.5518100000000 1.0
C      1  0.5156090000000  0.5503340000000  0.5220130000000 1.0
C      1  0.4958630000000  0.4885480000000  0.5818180000000 1.0
END
