TITL C-2778427-5640-1443 -0.00909407530599386 125000 -926.303958836413 0 0 160 (C1) n - 1
REM
REM in /home/nfs/bkarasulu/CARBON/AIRSS/Generating-Clusters/REBO/Only-C1/SD-CG/HFTN-CG
REM
REM
REM
REM
REM
REM ./C.cell (11c1c37f851c82e70ff6c80c92926a4b)
REM
REM compiler GCC version 9.2.1 20190827 (Red Hat 9.2.1-1)
REM options -cpp -mtune=generic -march=x86-64 -g -O0 -fpre-include=/usr/include/finclude/math-vector-fortran.h
REM seed 1743370148 1937221676 1058085451 -99598318 -279567204 419261553 248416005 634032345 2045338211 -933786997 1226824963 925905058 -165788378 -970117842 -701685589 -1176637425 2081439047 59740923 -2136609204 486043836 1863706142 1124005076 -1150448580 -1209395227 -898483781 206460983 727266819 -20279956 -319291152 -1527596693 -1713389739 -2022431830 346669506
REM
CELL 1.54180   50.00000   50.00000   50.00000   90.00000   90.00000   90.00000
LATT -1
SFAC C  
C      1  0.4543870000000  0.4067510000000  0.5208950000000 1.0
C      1  0.4633430000000  0.4220650000000  0.4693500000000 1.0
C      1  0.5067330000000  0.4633420000000  0.4516140000000 1.0
C      1  0.5803420000000  0.5458780000000  0.5415950000000 1.0
C      1  0.5380730000000  0.5077010000000  0.4564590000000 1.0
C      1  0.5834780000000  0.5495890000000  0.4920030000000 1.0
C      1  0.5182200000000  0.5103280000000  0.5048350000000 1.0
C      1  0.4429790000000  0.4726560000000  0.5702690000000 1.0
C      1  0.3882410000000  0.5066310000000  0.4775400000000 1.0
C      1  0.5214310000000  0.5794020000000  0.5593380000000 1.0
C      1  0.5638730000000  0.5690330000000  0.5326370000000 1.0
C      1  0.5773020000000  0.5136320000000  0.4555120000000 1.0
C      1  0.4690680000000  0.3933130000000  0.5421160000000 1.0
C      1  0.4375030000000  0.4833190000000  0.5327690000000 1.0
C      1  0.4917330000000  0.4843320000000  0.4318110000000 1.0
C      1  0.5025890000000  0.5996060000000  0.4822960000000 1.0
C      1  0.5124530000000  0.4361710000000  0.4459900000000 1.0
C      1  0.4965930000000  0.5205650000000  0.4131580000000 1.0
C      1  0.4674500000000  0.5405480000000  0.5854320000000 1.0
C      1  0.4524880000000  0.4762990000000  0.4964870000000 1.0
C      1  0.5781560000000  0.5262210000000  0.5639670000000 1.0
C      1  0.5667240000000  0.4635930000000  0.4303150000000 1.0
C      1  0.4056290000000  0.5331390000000  0.4775500000000 1.0
C      1  0.5413560000000  0.5500980000000  0.5778390000000 1.0
C      1  0.5057630000000  0.5462030000000  0.5953650000000 1.0
C      1  0.5248220000000  0.5248660000000  0.3978300000000 1.0
C      1  0.5690080000000  0.4958160000000  0.4276360000000 1.0
C      1  0.5053210000000  0.5187500000000  0.5814050000000 1.0
C      1  0.4499110000000  0.5038570000000  0.5123740000000 1.0
C      1  0.4343550000000  0.4344430000000  0.4638140000000 1.0
C      1  0.4750720000000  0.6024280000000  0.4897590000000 1.0
C      1  0.5136590000000  0.5353910000000  0.4346400000000 1.0
C      1  0.4330060000000  0.4907520000000  0.4745970000000 1.0
C      1  0.4034740000000  0.4841570000000  0.4806050000000 1.0
C      1  0.5602890000000  0.4525650000000  0.5690700000000 1.0
C      1  0.4611280000000  0.5591010000000  0.4287820000000 1.0
C      1  0.4796910000000  0.4001980000000  0.5699250000000 1.0
C      1  0.5326130000000  0.5026550000000  0.5883950000000 1.0
C      1  0.5444100000000  0.4485560000000  0.4139760000000 1.0
C      1  0.4552720000000  0.4907030000000  0.5964940000000 1.0
C      1  0.5137530000000  0.4818500000000  0.4733630000000 1.0
C      1  0.4906370000000  0.4141060000000  0.4531660000000 1.0
C      1  0.5338770000000  0.5819480000000  0.4410720000000 1.0
C      1  0.4304130000000  0.5637730000000  0.4714150000000 1.0
C      1  0.4713380000000  0.5066520000000  0.4408740000000 1.0
C      1  0.5237190000000  0.4922760000000  0.4303000000000 1.0
C      1  0.5202640000000  0.4643820000000  0.4122450000000 1.0
C      1  0.5014400000000  0.4192300000000  0.5689680000000 1.0
C      1  0.5021100000000  0.4314840000000  0.5310710000000 1.0
C      1  0.4073090000000  0.5614100000000  0.4924370000000 1.0
C      1  0.4724170000000  0.5347120000000  0.4968380000000 1.0
C      1  0.4286550000000  0.4663720000000  0.4541050000000 1.0
C      1  0.5079820000000  0.5391890000000  0.4640770000000 1.0
C      1  0.4962060000000  0.5217010000000  0.4836190000000 1.0
C      1  0.6002430000000  0.4857110000000  0.4962800000000 1.0
C      1  0.5075130000000  0.5687640000000  0.4311060000000 1.0
C      1  0.6053480000000  0.4530480000000  0.4997360000000 1.0
C      1  0.4691790000000  0.5037660000000  0.4055530000000 1.0
C      1  0.4009550000000  0.4505370000000  0.5507800000000 1.0
C      1  0.4712210000000  0.4727220000000  0.4069030000000 1.0
C      1  0.5719780000000  0.4932420000000  0.4780840000000 1.0
C      1  0.4791100000000  0.5637860000000  0.5030650000000 1.0
C      1  0.4461380000000  0.5751900000000  0.5598420000000 1.0
C      1  0.5443610000000  0.5469920000000  0.4256310000000 1.0
C      1  0.4937220000000  0.4500750000000  0.4119540000000 1.0
C      1  0.5438400000000  0.5264630000000  0.4787030000000 1.0
C      1  0.5240660000000  0.4813180000000  0.5556770000000 1.0
C      1  0.4377890000000  0.5662310000000  0.5351420000000 1.0
C      1  0.5310330000000  0.6014240000000  0.5688670000000 1.0
C      1  0.5203650000000  0.5403360000000  0.5168630000000 1.0
C      1  0.5710450000000  0.4815740000000  0.5809360000000 1.0
C      1  0.4769460000000  0.4308860000000  0.4286970000000 1.0
C      1  0.5321980000000  0.5509460000000  0.5475370000000 1.0
C      1  0.5836290000000  0.5046190000000  0.5144570000000 1.0
C      1  0.5906300000000  0.5003570000000  0.5629210000000 1.0
C      1  0.5919050000000  0.5347200000000  0.5164510000000 1.0
C      1  0.5060140000000  0.5689250000000  0.6069850000000 1.0
C      1  0.4924900000000  0.5659200000000  0.5530110000000 1.0
C      1  0.4252460000000  0.4988920000000  0.5940410000000 1.0
C      1  0.4406370000000  0.4339850000000  0.5220270000000 1.0
C      1  0.5351460000000  0.4258100000000  0.4288940000000 1.0
C      1  0.5821220000000  0.4352310000000  0.5100390000000 1.0
C      1  0.5474250000000  0.5217260000000  0.5387770000000 1.0
C      1  0.4700740000000  0.6040550000000  0.5195300000000 1.0
C      1  0.5029960000000  0.5759570000000  0.5144790000000 1.0
C      1  0.4780640000000  0.5728970000000  0.4482580000000 1.0
C      1  0.4783590000000  0.4710080000000  0.5391850000000 1.0
C      1  0.4904580000000  0.4480020000000  0.5589180000000 1.0
C      1  0.5697820000000  0.4211340000000  0.4825380000000 1.0
C      1  0.5215450000000  0.5568560000000  0.4022560000000 1.0
C      1  0.5000950000000  0.4941140000000  0.5264970000000 1.0
C      1  0.5103750000000  0.4451110000000  0.4881240000000 1.0
C      1  0.4693350000000  0.5001040000000  0.5508630000000 1.0
C      1  0.5781940000000  0.4766120000000  0.5421840000000 1.0
C      1  0.4282630000000  0.5349970000000  0.4530400000000 1.0
C      1  0.4691450000000  0.5637300000000  0.5714150000000 1.0
C      1  0.5666760000000  0.5717970000000  0.5010480000000 1.0
C      1  0.5417630000000  0.4384930000000  0.5464030000000 1.0
C      1  0.4446600000000  0.4633410000000  0.4179210000000 1.0
C      1  0.5404980000000  0.4701150000000  0.5902830000000 1.0
C      1  0.4206200000000  0.5384020000000  0.5374080000000 1.0
C      1  0.5521750000000  0.4946320000000  0.5546260000000 1.0
C      1  0.5381490000000  0.4501850000000  0.4733270000000 1.0
C      1  0.5744770000000  0.4443150000000  0.4573250000000 1.0
C      1  0.4606620000000  0.4640870000000  0.4656020000000 1.0
C      1  0.5025210000000  0.5715510000000  0.4704850000000 1.0
C      1  0.5294910000000  0.4030900000000  0.5254930000000 1.0
C      1  0.4636870000000  0.4557730000000  0.5164900000000 1.0
C      1  0.5152520000000  0.5148650000000  0.5489900000000 1.0
C      1  0.5468090000000  0.4748330000000  0.4534280000000 1.0
C      1  0.5406910000000  0.4886540000000  0.4911520000000 1.0
C      1  0.4760950000000  0.4700390000000  0.5790810000000 1.0
C      1  0.4658270000000  0.5334870000000  0.4207360000000 1.0
C      1  0.4881300000000  0.4903310000000  0.4883400000000 1.0
C      1  0.4270480000000  0.5277390000000  0.4041460000000 1.0
C      1  0.5079880000000  0.4781840000000  0.5837270000000 1.0
C      1  0.5545330000000  0.5259860000000  0.5817180000000 1.0
C      1  0.5272250000000  0.4135840000000  0.5564690000000 1.0
C      1  0.4497860000000  0.4395240000000  0.4336040000000 1.0
C      1  0.4211030000000  0.5176550000000  0.5037750000000 1.0
C      1  0.4220110000000  0.4405730000000  0.4949300000000 1.0
C      1  0.5289440000000  0.6076930000000  0.4841280000000 1.0
C      1  0.4755040000000  0.5099300000000  0.5804370000000 1.0
C      1  0.4717480000000  0.5230100000000  0.5266060000000 1.0
C      1  0.5353970000000  0.5704880000000  0.5133050000000 1.0
C      1  0.4774120000000  0.4466220000000  0.4873690000000 1.0
C      1  0.4449360000000  0.5281650000000  0.4815120000000 1.0
C      1  0.4514290000000  0.5781190000000  0.5106450000000 1.0
C      1  0.5208140000000  0.4593830000000  0.5357550000000 1.0
C      1  0.5395470000000  0.4170990000000  0.4982010000000 1.0
C      1  0.4997280000000  0.4164750000000  0.5006510000000 1.0
C      1  0.4282880000000  0.4870330000000  0.4293400000000 1.0
C      1  0.4570560000000  0.5801930000000  0.4744670000000 1.0
C      1  0.5727790000000  0.4447490000000  0.5382320000000 1.0
C      1  0.4169070000000  0.4956300000000  0.5639660000000 1.0
C      1  0.4703660000000  0.4079830000000  0.4968090000000 1.0
C      1  0.4323980000000  0.4527150000000  0.5467840000000 1.0
C      1  0.5038050000000  0.4674050000000  0.5087300000000 1.0
C      1  0.5485160000000  0.4228560000000  0.4567780000000 1.0
C      1  0.4983270000000  0.3976270000000  0.5347940000000 1.0
C      1  0.4059240000000  0.5075650000000  0.5329850000000 1.0
C      1  0.4931850000000  0.5953800000000  0.5360520000000 1.0
C      1  0.4274320000000  0.5154270000000  0.4292240000000 1.0
C      1  0.5480330000000  0.5860560000000  0.4709650000000 1.0
C      1  0.4635400000000  0.5036240000000  0.4695060000000 1.0
C      1  0.4952190000000  0.5402480000000  0.5375130000000 1.0
C      1  0.5512940000000  0.4490740000000  0.5036960000000 1.0
C      1  0.5780730000000  0.5419000000000  0.4647790000000 1.0
C      1  0.4022710000000  0.5596520000000  0.5190440000000 1.0
C      1  0.4049580000000  0.4742700000000  0.5277210000000 1.0
C      1  0.5172930000000  0.4089310000000  0.4737220000000 1.0
C      1  0.4037240000000  0.4630890000000  0.4994410000000 1.0
C      1  0.5708990000000  0.5289790000000  0.4211450000000 1.0
C      1  0.5324640000000  0.5564150000000  0.4762750000000 1.0
C      1  0.5893710000000  0.4648750000000  0.4725450000000 1.0
C      1  0.5618310000000  0.4782160000000  0.5135970000000 1.0
C      1  0.5482000000000  0.5116920000000  0.4055410000000 1.0
C      1  0.5609760000000  0.5626210000000  0.4492880000000 1.0
C      1  0.4406390000000  0.5138930000000  0.5497560000000 1.0
C      1  0.5558590000000  0.5221700000000  0.5059440000000 1.0
END
