TITL C-2778427-5640-1052 -0.00366426688248651 125000 -1028.4252479624 0 0 180 (C1) n - 1
REM
REM in /home/nfs/bkarasulu/CARBON/AIRSS/Generating-Clusters/REBO/Only-C1/SD-CG/HFTN-CG
REM
REM
REM
REM
REM
REM ./C.cell (11c1c37f851c82e70ff6c80c92926a4b)
REM
REM compiler GCC version 9.2.1 20190827 (Red Hat 9.2.1-1)
REM options -cpp -mtune=generic -march=x86-64 -g -O0 -fpre-include=/usr/include/finclude/math-vector-fortran.h
REM seed 1126939712 -95799904 969178833 -702211974 -1141781980 -465623641 606817205 -2104920657 2092981284 1890390902 1755586378 1238804709 -699134106 109366403 731568875 -1507085958 -60787189 -57549299 -2089686786 1223187826 1306790834 456019318 694665215 996061705 -97258572 1786897918 215293661 1674888284 -876116772 -596219352 84480569 902478921 1673342336
REM
CELL 1.54180   50.00000   50.00000   50.00000   90.00000   90.00000   90.00000
LATT -1
SFAC C  
C      1  0.5109960000000  0.5449290000000  0.4375310000000 1.0
C      1  0.5860260000000  0.5127450000000  0.5111310000000 1.0
C      1  0.5174120000000  0.5641820000000  0.5281780000000 1.0
C      1  0.4232800000000  0.5643300000000  0.5260380000000 1.0
C      1  0.4547960000000  0.4276310000000  0.5407420000000 1.0
C      1  0.5096880000000  0.4940910000000  0.4410670000000 1.0
C      1  0.5040750000000  0.4913250000000  0.6019440000000 1.0
C      1  0.4460070000000  0.5301040000000  0.4240480000000 1.0
C      1  0.5714500000000  0.5184920000000  0.5388170000000 1.0
C      1  0.4894800000000  0.5419040000000  0.5479370000000 1.0
C      1  0.4071520000000  0.4378090000000  0.5226710000000 1.0
C      1  0.4059220000000  0.4900550000000  0.5579970000000 1.0
C      1  0.5906900000000  0.4541220000000  0.4715520000000 1.0
C      1  0.4704020000000  0.5098330000000  0.4105010000000 1.0
C      1  0.4129680000000  0.4683790000000  0.4539120000000 1.0
C      1  0.4912260000000  0.5139830000000  0.5353750000000 1.0
C      1  0.4711310000000  0.5050850000000  0.5822900000000 1.0
C      1  0.5462050000000  0.4675190000000  0.5955290000000 1.0
C      1  0.5126050000000  0.4290320000000  0.5198890000000 1.0
C      1  0.4737600000000  0.5742680000000  0.4171450000000 1.0
C      1  0.4471250000000  0.4656520000000  0.4573780000000 1.0
C      1  0.4289880000000  0.4186970000000  0.5203610000000 1.0
C      1  0.4245520000000  0.5011330000000  0.5244610000000 1.0
C      1  0.5912590000000  0.5034090000000  0.5624130000000 1.0
C      1  0.4933950000000  0.3915740000000  0.4903230000000 1.0
C      1  0.5510170000000  0.5744970000000  0.4225910000000 1.0
C      1  0.4552590000000  0.5967640000000  0.5032490000000 1.0
C      1  0.5189610000000  0.5373470000000  0.5572660000000 1.0
C      1  0.5979950000000  0.5497260000000  0.5190640000000 1.0
C      1  0.4782290000000  0.5611580000000  0.4544310000000 1.0
C      1  0.5745710000000  0.5510530000000  0.5444610000000 1.0
C      1  0.5522110000000  0.5823610000000  0.5213540000000 1.0
C      1  0.5415630000000  0.5501220000000  0.5731170000000 1.0
C      1  0.4351090000000  0.5539890000000  0.4459190000000 1.0
C      1  0.4567650000000  0.5647000000000  0.4799650000000 1.0
C      1  0.5563130000000  0.4999180000000  0.5931890000000 1.0
C      1  0.4013290000000  0.5167750000000  0.4877250000000 1.0
C      1  0.4940770000000  0.4728430000000  0.4228010000000 1.0
C      1  0.5428390000000  0.4491200000000  0.4871180000000 1.0
C      1  0.4332730000000  0.4492140000000  0.4948660000000 1.0
C      1  0.5014270000000  0.5501470000000  0.5015640000000 1.0
C      1  0.5379520000000  0.5456790000000  0.4573250000000 1.0
C      1  0.5115530000000  0.3983540000000  0.5089570000000 1.0
C      1  0.4732500000000  0.5281580000000  0.4529450000000 1.0
C      1  0.5708180000000  0.4791480000000  0.5341350000000 1.0
C      1  0.5101950000000  0.4642430000000  0.5833500000000 1.0
C      1  0.5023870000000  0.4059540000000  0.5649240000000 1.0
C      1  0.5031240000000  0.4703330000000  0.5445470000000 1.0
C      1  0.4661600000000  0.4636130000000  0.6044180000000 1.0
C      1  0.4522150000000  0.4706240000000  0.5756910000000 1.0
C      1  0.4590190000000  0.4812250000000  0.5235580000000 1.0
C      1  0.5057890000000  0.4385840000000  0.4059590000000 1.0
C      1  0.5451420000000  0.4203200000000  0.4701090000000 1.0
C      1  0.4906640000000  0.4438700000000  0.5341180000000 1.0
C      1  0.6099760000000  0.4973370000000  0.4855820000000 1.0
C      1  0.5591030000000  0.4118140000000  0.5005240000000 1.0
C      1  0.5597510000000  0.5320030000000  0.5859350000000 1.0
C      1  0.4066950000000  0.4842480000000  0.4833240000000 1.0
C      1  0.5339830000000  0.4643250000000  0.5377050000000 1.0
C      1  0.5431660000000  0.5297820000000  0.5068430000000 1.0
C      1  0.5172650000000  0.4999000000000  0.5436810000000 1.0
C      1  0.5020650000000  0.5314000000000  0.4664280000000 1.0
C      1  0.5709440000000  0.5668560000000  0.4730900000000 1.0
C      1  0.5460160000000  0.5843820000000  0.4876810000000 1.0
C      1  0.4673390000000  0.5070170000000  0.5230420000000 1.0
C      1  0.4143270000000  0.5360770000000  0.4671990000000 1.0
C      1  0.4839230000000  0.4812840000000  0.5689320000000 1.0
C      1  0.4689720000000  0.4978430000000  0.4482920000000 1.0
C      1  0.5827790000000  0.4309290000000  0.5135280000000 1.0
C      1  0.5121610000000  0.4180760000000  0.4257950000000 1.0
C      1  0.5420300000000  0.5059700000000  0.5278880000000 1.0
C      1  0.4893100000000  0.4766690000000  0.4622020000000 1.0
C      1  0.5495450000000  0.4817020000000  0.5585840000000 1.0
C      1  0.4618450000000  0.5355080000000  0.4832340000000 1.0
C      1  0.4201530000000  0.4870240000000  0.4067570000000 1.0
C      1  0.4288090000000  0.5806870000000  0.5036690000000 1.0
C      1  0.4673600000000  0.4220970000000  0.4576080000000 1.0
C      1  0.5509470000000  0.4433010000000  0.4279330000000 1.0
C      1  0.5484140000000  0.5768610000000  0.5542390000000 1.0
C      1  0.5739750000000  0.4033890000000  0.4710400000000 1.0
C      1  0.4959240000000  0.5525560000000  0.4014390000000 1.0
C      1  0.4852470000000  0.4441470000000  0.4396910000000 1.0
C      1  0.4910620000000  0.5708080000000  0.5752820000000 1.0
C      1  0.4519880000000  0.5265250000000  0.5105830000000 1.0
C      1  0.6017260000000  0.4934940000000  0.5332370000000 1.0
C      1  0.5065620000000  0.5207430000000  0.5913930000000 1.0
C      1  0.5924510000000  0.4262440000000  0.4837620000000 1.0
C      1  0.5831210000000  0.4962220000000  0.4312100000000 1.0
C      1  0.5393730000000  0.4108170000000  0.5245780000000 1.0
C      1  0.5314210000000  0.4950250000000  0.4910100000000 1.0
C      1  0.5375870000000  0.4778130000000  0.4429170000000 1.0
C      1  0.4544120000000  0.5819880000000  0.4441010000000 1.0
C      1  0.4847400000000  0.4318530000000  0.4918150000000 1.0
C      1  0.5942000000000  0.4564540000000  0.5283800000000 1.0
C      1  0.4121750000000  0.4352730000000  0.4542020000000 1.0
C      1  0.4442990000000  0.4011180000000  0.4982230000000 1.0
C      1  0.4668610000000  0.5024350000000  0.4825780000000 1.0
C      1  0.4890660000000  0.5435160000000  0.5889420000000 1.0
C      1  0.4771320000000  0.4456010000000  0.4001510000000 1.0
C      1  0.5575070000000  0.4814540000000  0.4182570000000 1.0
C      1  0.5691000000000  0.5294450000000  0.4870930000000 1.0
C      1  0.5255680000000  0.4137160000000  0.5710880000000 1.0
C      1  0.4327640000000  0.4940700000000  0.5765290000000 1.0
C      1  0.5256940000000  0.6013730000000  0.4670270000000 1.0
C      1  0.5144510000000  0.4562780000000  0.4523260000000 1.0
C      1  0.4629710000000  0.5480370000000  0.4041370000000 1.0
C      1  0.5256350000000  0.5640670000000  0.4135180000000 1.0
C      1  0.5271480000000  0.6015650000000  0.5183390000000 1.0
C      1  0.5821880000000  0.5299440000000  0.4358780000000 1.0
C      1  0.5702390000000  0.5591030000000  0.5056470000000 1.0
C      1  0.4490020000000  0.4879710000000  0.4244740000000 1.0
C      1  0.4922060000000  0.6082680000000  0.4684570000000 1.0
C      1  0.4369390000000  0.5144980000000  0.5520540000000 1.0
C      1  0.4232260000000  0.5345020000000  0.5173830000000 1.0
C      1  0.4368320000000  0.4947140000000  0.4714400000000 1.0
C      1  0.4320580000000  0.4688900000000  0.5173360000000 1.0
C      1  0.4049360000000  0.4429700000000  0.4835380000000 1.0
C      1  0.5113190000000  0.4874580000000  0.3970510000000 1.0
C      1  0.5354550000000  0.4443230000000  0.5742060000000 1.0
C      1  0.5775220000000  0.4784180000000  0.5766390000000 1.0
C      1  0.4861490000000  0.5689390000000  0.5333840000000 1.0
C      1  0.4827020000000  0.4452860000000  0.5854880000000 1.0
C      1  0.4999160000000  0.5183890000000  0.4250500000000 1.0
C      1  0.4247440000000  0.5665470000000  0.4759530000000 1.0
C      1  0.4646310000000  0.5892850000000  0.5340460000000 1.0
C      1  0.5032730000000  0.4838140000000  0.4989570000000 1.0
C      1  0.5356060000000  0.4232250000000  0.4412590000000 1.0
C      1  0.5914060000000  0.5407230000000  0.4651060000000 1.0
C      1  0.4409100000000  0.4502550000000  0.5573800000000 1.0
C      1  0.4674390000000  0.4193790000000  0.5112460000000 1.0
C      1  0.5532110000000  0.4313210000000  0.5482200000000 1.0
C      1  0.5918580000000  0.4857870000000  0.4612340000000 1.0
C      1  0.4684700000000  0.3984700000000  0.4772820000000 1.0
C      1  0.5328380000000  0.5341600000000  0.4060330000000 1.0
C      1  0.5022900000000  0.5776360000000  0.4587120000000 1.0
C      1  0.5627270000000  0.5041570000000  0.4594240000000 1.0
C      1  0.4640960000000  0.5140370000000  0.6146340000000 1.0
C      1  0.4145540000000  0.4613470000000  0.5444560000000 1.0
C      1  0.5703570000000  0.4550000000000  0.4450350000000 1.0
C      1  0.4621240000000  0.6024610000000  0.4702840000000 1.0
C      1  0.3928860000000  0.4895420000000  0.5264350000000 1.0
C      1  0.4835480000000  0.5788050000000  0.4951940000000 1.0
C      1  0.4577610000000  0.4569100000000  0.4261510000000 1.0
C      1  0.6084200000000  0.5305540000000  0.4927600000000 1.0
C      1  0.4805040000000  0.4275010000000  0.5601990000000 1.0
C      1  0.4796030000000  0.4649140000000  0.5127730000000 1.0
C      1  0.4105910000000  0.4919360000000  0.4343170000000 1.0
C      1  0.5504300000000  0.5186730000000  0.4308600000000 1.0
C      1  0.5800270000000  0.4495720000000  0.5587230000000 1.0
C      1  0.5857450000000  0.5343720000000  0.5719970000000 1.0
C      1  0.5049130000000  0.5206550000000  0.3921730000000 1.0
C      1  0.4350960000000  0.5134830000000  0.5993290000000 1.0
C      1  0.4634390000000  0.5791930000000  0.5643480000000 1.0
C      1  0.5220850000000  0.5635810000000  0.4791970000000 1.0
C      1  0.5148480000000  0.5769500000000  0.5598990000000 1.0
C      1  0.3937100000000  0.4648820000000  0.5069010000000 1.0
C      1  0.5383960000000  0.5020940000000  0.4034850000000 1.0
C      1  0.3914900000000  0.5223130000000  0.5184060000000 1.0
C      1  0.5426140000000  0.5454830000000  0.5334320000000 1.0
C      1  0.4396610000000  0.4288090000000  0.4698780000000 1.0
C      1  0.5575470000000  0.4853540000000  0.5058790000000 1.0
C      1  0.4600210000000  0.5305790000000  0.5543480000000 1.0
C      1  0.5890250000000  0.4740260000000  0.4991500000000 1.0
C      1  0.5628900000000  0.5571130000000  0.4427540000000 1.0
C      1  0.4716190000000  0.4592650000000  0.4801020000000 1.0
C      1  0.5551590000000  0.4720000000000  0.4689810000000 1.0
C      1  0.4795690000000  0.4862370000000  0.6163480000000 1.0
C      1  0.5530850000000  0.4474320000000  0.5174980000000 1.0
C      1  0.5290480000000  0.5043960000000  0.5737910000000 1.0
C      1  0.4038220000000  0.5233780000000  0.5502420000000 1.0
C      1  0.5092980000000  0.5999450000000  0.4968480000000 1.0
C      1  0.4224030000000  0.5517010000000  0.5539830000000 1.0
C      1  0.4948900000000  0.5169620000000  0.4958140000000 1.0
C      1  0.5311310000000  0.4614300000000  0.4070600000000 1.0
C      1  0.5305500000000  0.5232180000000  0.4789530000000 1.0
C      1  0.4555420000000  0.5400420000000  0.5935040000000 1.0
C      1  0.4740670000000  0.4791690000000  0.3955840000000 1.0
C      1  0.4421910000000  0.5606960000000  0.5732310000000 1.0
C      1  0.5126010000000  0.4512760000000  0.4952010000000 1.0
C      1  0.4277200000000  0.5150400000000  0.4464990000000 1.0
END
