TITL C-2778434-4341-354 -0.00267323110780113 125000 -262.883391419388 0 0 47 (C1) n - 1
REM
REM in /home/nfs/bkarasulu/CARBON/AIRSS/Generating-Clusters/REBO/Only-C1/SD-CG/HFTN-CG
REM
REM
REM
REM
REM
REM ./C.cell (11c1c37f851c82e70ff6c80c92926a4b)
REM
REM compiler GCC version 9.2.1 20190827 (Red Hat 9.2.1-1)
REM options -cpp -mtune=generic -march=x86-64 -g -O0 -fpre-include=/usr/include/finclude/math-vector-fortran.h
REM seed -2113095148 1141474118 -347587853 -784235581 473220062 293686383 753198456 -730640507 2025757347 -1247697708 -414002820 1708628519 145943648 -494021529 1652682654 1735047670 -785355670 -1084156740 -1446760620 -743235690 -304316383 1126560873 -514751319 4898429 -1430193173 -389800281 -1825806374 -1303881503 -711264757 23535897 1260395334 -1580707906 -1576221209
REM
CELL 1.54180   50.00000   50.00000   50.00000   90.00000   90.00000   90.00000
LATT -1
SFAC C  
C      1  0.4503360000000  0.5583800000000  0.5019120000000 1.0
C      1  0.5478980000000  0.4999620000000  0.4663710000000 1.0
C      1  0.4842510000000  0.4937910000000  0.5190240000000 1.0
C      1  0.5046020000000  0.5575810000000  0.4677370000000 1.0
C      1  0.5009960000000  0.4439460000000  0.5291100000000 1.0
C      1  0.4972550000000  0.4515330000000  0.4754760000000 1.0
C      1  0.4827750000000  0.4791180000000  0.4370050000000 1.0
C      1  0.4833180000000  0.5425590000000  0.5385430000000 1.0
C      1  0.5269220000000  0.5200800000000  0.5269360000000 1.0
C      1  0.5224250000000  0.4848110000000  0.4078530000000 1.0
C      1  0.5436180000000  0.4363240000000  0.4667510000000 1.0
C      1  0.5495490000000  0.4503810000000  0.4894190000000 1.0
C      1  0.5118040000000  0.5678270000000  0.5212640000000 1.0
C      1  0.4810780000000  0.4606560000000  0.5108680000000 1.0
C      1  0.5185880000000  0.4388240000000  0.4560720000000 1.0
C      1  0.5401460000000  0.4974750000000  0.5362540000000 1.0
C      1  0.4968230000000  0.5218970000000  0.5204280000000 1.0
C      1  0.4731640000000  0.4654280000000  0.4584170000000 1.0
C      1  0.4925740000000  0.4825750000000  0.4886930000000 1.0
C      1  0.5351530000000  0.5613950000000  0.5040110000000 1.0
C      1  0.5096280000000  0.4886710000000  0.4314570000000 1.0
C      1  0.5482290000000  0.4665750000000  0.5343160000000 1.0
C      1  0.4720520000000  0.5623450000000  0.4756230000000 1.0
C      1  0.4180480000000  0.5702780000000  0.4572820000000 1.0
C      1  0.5666320000000  0.4891670000000  0.5167060000000 1.0
C      1  0.5015090000000  0.5061490000000  0.4738720000000 1.0
C      1  0.5077080000000  0.4337560000000  0.4983160000000 1.0
C      1  0.5287960000000  0.5677890000000  0.4763250000000 1.0
C      1  0.5218730000000  0.5006470000000  0.4547850000000 1.0
C      1  0.4948950000000  0.5319890000000  0.4879480000000 1.0
C      1  0.4524390000000  0.4264800000000  0.4846350000000 1.0
C      1  0.4367800000000  0.4817770000000  0.5241760000000 1.0
C      1  0.4355790000000  0.4714900000000  0.4987470000000 1.0
C      1  0.5437390000000  0.5344980000000  0.5083420000000 1.0
C      1  0.5041380000000  0.5619960000000  0.5498600000000 1.0
C      1  0.4612320000000  0.4844030000000  0.5382580000000 1.0
C      1  0.5597780000000  0.5137200000000  0.4942460000000 1.0
C      1  0.4391860000000  0.5653420000000  0.4731240000000 1.0
C      1  0.5329830000000  0.4462470000000  0.5173790000000 1.0
C      1  0.4691780000000  0.4692770000000  0.5602450000000 1.0
C      1  0.4923820000000  0.4469580000000  0.5566630000000 1.0
C      1  0.5600430000000  0.4774620000000  0.4870070000000 1.0
C      1  0.4590760000000  0.4538670000000  0.4867770000000 1.0
C      1  0.4898930000000  0.5617460000000  0.5041880000000 1.0
C      1  0.4792240000000  0.4518430000000  0.5858210000000 1.0
C      1  0.5128170000000  0.5687790000000  0.5741990000000 1.0
C      1  0.4588880000000  0.5522020000000  0.5275630000000 1.0
END
