TITL C-2778437-8639-277 0.000487403795502644 125000 -642.749404100603 0 0 114 (C1) n - 1
REM
REM in /home/nfs/bkarasulu/CARBON/AIRSS/Generating-Clusters/REBO/Only-C1/SD-CG/HFTN-CG
REM
REM
REM
REM
REM
REM ./C.cell (11c1c37f851c82e70ff6c80c92926a4b)
REM
REM compiler GCC version 9.2.1 20190827 (Red Hat 9.2.1-1)
REM options -cpp -mtune=generic -march=x86-64 -g -O0 -fpre-include=/usr/include/finclude/math-vector-fortran.h
REM seed 1930330801 -68266381 -1292953291 -2069317751 162463417 -1907880601 1304848486 -1449071794 -876960720 -1351718616 -136600460 -792939958 -1348611321 -118450621 808389107 -1150979500 -539079188 -1792693080 -5108405 -387316593 689039333 1349502498 -1969693533 2002383260 1402910376 1955190132 -1389674385 2004166867 -988573612 198159911 -117331231 924898305 -1035397074
REM
CELL 1.54180   50.00000   50.00000   50.00000   90.00000   90.00000   90.00000
LATT -1
SFAC C  
C      1  0.4981310000000  0.4978550000000  0.5372490000000 1.0
C      1  0.5850470000000  0.5086470000000  0.5004020000000 1.0
C      1  0.4639620000000  0.5613080000000  0.5032470000000 1.0
C      1  0.5171180000000  0.5788800000000  0.4934010000000 1.0
C      1  0.5047730000000  0.4090660000000  0.4372310000000 1.0
C      1  0.4910770000000  0.4172930000000  0.4639700000000 1.0
C      1  0.4561350000000  0.4195160000000  0.4862050000000 1.0
C      1  0.4812350000000  0.5015430000000  0.4441390000000 1.0
C      1  0.4443050000000  0.4838540000000  0.4408750000000 1.0
C      1  0.5192340000000  0.4452010000000  0.5324240000000 1.0
C      1  0.5078310000000  0.5206930000000  0.4870520000000 1.0
C      1  0.4999590000000  0.3850630000000  0.4247630000000 1.0
C      1  0.5115770000000  0.4144430000000  0.5214030000000 1.0
C      1  0.5170570000000  0.5088810000000  0.4103150000000 1.0
C      1  0.5247430000000  0.4632860000000  0.5673800000000 1.0
C      1  0.5795280000000  0.4074210000000  0.5438210000000 1.0
C      1  0.5022310000000  0.5740260000000  0.5452310000000 1.0
C      1  0.4751500000000  0.4467600000000  0.4944100000000 1.0
C      1  0.4726100000000  0.4660090000000  0.5177470000000 1.0
C      1  0.4727940000000  0.5660490000000  0.4357130000000 1.0
C      1  0.4376240000000  0.4938480000000  0.5707240000000 1.0
C      1  0.5565710000000  0.4702110000000  0.4788620000000 1.0
C      1  0.4613310000000  0.4557020000000  0.5545110000000 1.0
C      1  0.5050040000000  0.4361560000000  0.4962590000000 1.0
C      1  0.5357640000000  0.4443550000000  0.4566540000000 1.0
C      1  0.5288110000000  0.5104120000000  0.4391160000000 1.0
C      1  0.4116690000000  0.5569650000000  0.4911080000000 1.0
C      1  0.5214020000000  0.4301570000000  0.4295410000000 1.0
C      1  0.5500420000000  0.5082500000000  0.5496910000000 1.0
C      1  0.5001330000000  0.4025280000000  0.4925680000000 1.0
C      1  0.5454370000000  0.5183860000000  0.5115560000000 1.0
C      1  0.4605620000000  0.5138800000000  0.4201160000000 1.0
C      1  0.5001110000000  0.4774680000000  0.4289430000000 1.0
C      1  0.4765110000000  0.5346860000000  0.4501620000000 1.0
C      1  0.5188520000000  0.5622060000000  0.5965210000000 1.0
C      1  0.5796810000000  0.5250930000000  0.4725870000000 1.0
C      1  0.5049660000000  0.5611560000000  0.4415010000000 1.0
C      1  0.6141590000000  0.5039620000000  0.5075550000000 1.0
C      1  0.4370770000000  0.5247450000000  0.4360970000000 1.0
C      1  0.4257470000000  0.4823060000000  0.5251120000000 1.0
C      1  0.5544350000000  0.4745100000000  0.5686770000000 1.0
C      1  0.4391700000000  0.4868280000000  0.4957240000000 1.0
C      1  0.5728100000000  0.5393240000000  0.5089670000000 1.0
C      1  0.4409050000000  0.5445060000000  0.5667230000000 1.0
C      1  0.5315970000000  0.5556320000000  0.5082700000000 1.0
C      1  0.4897390000000  0.5402320000000  0.4983720000000 1.0
C      1  0.5009250000000  0.5349170000000  0.5930790000000 1.0
C      1  0.4573900000000  0.4990920000000  0.4684990000000 1.0
C      1  0.4932750000000  0.4587730000000  0.5431950000000 1.0
C      1  0.5663710000000  0.4540030000000  0.4504960000000 1.0
C      1  0.4729350000000  0.5775870000000  0.5274470000000 1.0
C      1  0.4442770000000  0.4507070000000  0.4793230000000 1.0
C      1  0.5102730000000  0.5079740000000  0.5908660000000 1.0
C      1  0.4404270000000  0.5522310000000  0.4804330000000 1.0
C      1  0.5549520000000  0.5379080000000  0.5376210000000 1.0
C      1  0.5245020000000  0.4972820000000  0.4680370000000 1.0
C      1  0.5293740000000  0.4520760000000  0.4888080000000 1.0
C      1  0.4062160000000  0.5457510000000  0.5174960000000 1.0
C      1  0.5674640000000  0.5156310000000  0.4460780000000 1.0
C      1  0.5499440000000  0.4688930000000  0.4246870000000 1.0
C      1  0.4198820000000  0.5299880000000  0.5442040000000 1.0
C      1  0.5523290000000  0.5622320000000  0.4570070000000 1.0
C      1  0.4206900000000  0.5045800000000  0.4537450000000 1.0
C      1  0.5769070000000  0.5567760000000  0.4799630000000 1.0
C      1  0.5478020000000  0.5389100000000  0.4338100000000 1.0
C      1  0.4793340000000  0.5589070000000  0.4741120000000 1.0
C      1  0.4460020000000  0.5511940000000  0.4504870000000 1.0
C      1  0.5008920000000  0.4756000000000  0.4741280000000 1.0
C      1  0.4756960000000  0.4567960000000  0.4375650000000 1.0
C      1  0.4806760000000  0.5867940000000  0.4599650000000 1.0
C      1  0.5010590000000  0.5901160000000  0.5150430000000 1.0
C      1  0.5396750000000  0.5439290000000  0.4814510000000 1.0
C      1  0.5168150000000  0.5351670000000  0.4584980000000 1.0
C      1  0.4376750000000  0.5340630000000  0.5158440000000 1.0
C      1  0.4927520000000  0.5626600000000  0.5746190000000 1.0
C      1  0.4887560000000  0.5274440000000  0.4066240000000 1.0
C      1  0.4215350000000  0.4993190000000  0.5476490000000 1.0
C      1  0.5038910000000  0.4923180000000  0.5037370000000 1.0
C      1  0.4625250000000  0.4798090000000  0.4162770000000 1.0
C      1  0.5610110000000  0.4873860000000  0.4495220000000 1.0
C      1  0.5088320000000  0.4127980000000  0.5533190000000 1.0
C      1  0.4541330000000  0.5232860000000  0.4920310000000 1.0
C      1  0.4652350000000  0.4984200000000  0.5991930000000 1.0
C      1  0.4644990000000  0.4360320000000  0.4573870000000 1.0
C      1  0.5336930000000  0.5629730000000  0.5409090000000 1.0
C      1  0.5141660000000  0.5291250000000  0.5559040000000 1.0
C      1  0.4706710000000  0.3959720000000  0.4914720000000 1.0
C      1  0.4855120000000  0.5343510000000  0.5289790000000 1.0
C      1  0.4900330000000  0.4878710000000  0.5942810000000 1.0
C      1  0.5180690000000  0.5301160000000  0.5245500000000 1.0
C      1  0.5303490000000  0.5496470000000  0.5705840000000 1.0
C      1  0.4572700000000  0.5423660000000  0.5377570000000 1.0
C      1  0.5669090000000  0.4854150000000  0.5052620000000 1.0
C      1  0.4936700000000  0.4638490000000  0.5772400000000 1.0
C      1  0.5474950000000  0.4506790000000  0.5370770000000 1.0
C      1  0.5340430000000  0.4776240000000  0.5108200000000 1.0
C      1  0.4653560000000  0.5669400000000  0.5589000000000 1.0
C      1  0.5090800000000  0.4340490000000  0.5702730000000 1.0
C      1  0.4266490000000  0.4739790000000  0.4681110000000 1.0
C      1  0.4566200000000  0.5186250000000  0.5759490000000 1.0
C      1  0.5257440000000  0.4851410000000  0.5429730000000 1.0
C      1  0.5644230000000  0.4798730000000  0.5366190000000 1.0
C      1  0.5173660000000  0.5422740000000  0.4183990000000 1.0
C      1  0.4890110000000  0.4936720000000  0.4012370000000 1.0
C      1  0.4701610000000  0.4964060000000  0.5057330000000 1.0
C      1  0.5227590000000  0.5760710000000  0.4648370000000 1.0
C      1  0.5346770000000  0.5002200000000  0.5789200000000 1.0
C      1  0.5640530000000  0.4283190000000  0.5405630000000 1.0
C      1  0.5235850000000  0.4594320000000  0.4217740000000 1.0
C      1  0.5491270000000  0.5120450000000  0.4813420000000 1.0
C      1  0.4822860000000  0.5180430000000  0.5587980000000 1.0
C      1  0.4497500000000  0.4688830000000  0.5765750000000 1.0
C      1  0.5019960000000  0.4493170000000  0.4586430000000 1.0
C      1  0.4439400000000  0.4600740000000  0.5303790000000 1.0
END
