TITL C-2778422-5617-229 -0.00176852596772418 125000 -651.8649611363 0 0 112 (C1) n - 1
REM
REM in /home/nfs/bkarasulu/CARBON/AIRSS/Generating-Clusters/REBO/Only-C1/SD-CG/HFTN-CG
REM
REM
REM
REM
REM
REM ./C.cell (11c1c37f851c82e70ff6c80c92926a4b)
REM
REM compiler GCC version 9.2.1 20190827 (Red Hat 9.2.1-1)
REM options -cpp -mtune=generic -march=x86-64 -g -O0 -fpre-include=/usr/include/finclude/math-vector-fortran.h
REM seed 1905480405 -126010722 -767238652 -2077870050 2131060655 -2042295181 -941402695 -617772193 -1575772853 -1883357290 1046906195 297958223 1796583182 -328330056 1805838158 -9797086 944990832 -1864830758 -1900109989 1472463410 -1329802182 -1065861285 -277698659 2002332744 -1521676255 771919338 443733142 -1877563455 2083166087 -171535935 -622525818 27091107 -1998385202
REM
CELL 1.54180   50.00000   50.00000   50.00000   90.00000   90.00000   90.00000
LATT -1
SFAC C  
C      1  0.5203180000000  0.4263620000000  0.5189850000000 1.0
C      1  0.4981880000000  0.3997630000000  0.5385630000000 1.0
C      1  0.5385010000000  0.5362390000000  0.4276320000000 1.0
C      1  0.5677130000000  0.5190690000000  0.4740470000000 1.0
C      1  0.4509080000000  0.4432500000000  0.5474420000000 1.0
C      1  0.5259110000000  0.4036830000000  0.4865930000000 1.0
C      1  0.4619280000000  0.4655580000000  0.4872790000000 1.0
C      1  0.4994590000000  0.5149110000000  0.4101580000000 1.0
C      1  0.5147000000000  0.4683930000000  0.4382720000000 1.0
C      1  0.5060410000000  0.4254440000000  0.4723220000000 1.0
C      1  0.4973900000000  0.5922960000000  0.5094750000000 1.0
C      1  0.4566250000000  0.5405520000000  0.4535040000000 1.0
C      1  0.4593890000000  0.5241400000000  0.5076770000000 1.0
C      1  0.4080020000000  0.5112810000000  0.4618550000000 1.0
C      1  0.5377370000000  0.5156560000000  0.5187760000000 1.0
C      1  0.5924610000000  0.5047280000000  0.5405250000000 1.0
C      1  0.5822700000000  0.4838970000000  0.4619810000000 1.0
C      1  0.4508760000000  0.5408090000000  0.5672850000000 1.0
C      1  0.4958400000000  0.5062980000000  0.4848470000000 1.0
C      1  0.5032750000000  0.5045690000000  0.5762730000000 1.0
C      1  0.5456530000000  0.4376190000000  0.5118620000000 1.0
C      1  0.4495290000000  0.4955960000000  0.4973860000000 1.0
C      1  0.5473220000000  0.5723200000000  0.4962880000000 1.0
C      1  0.4905960000000  0.5575530000000  0.4909890000000 1.0
C      1  0.5812620000000  0.5546880000000  0.4642370000000 1.0
C      1  0.5456130000000  0.4264650000000  0.4737410000000 1.0
C      1  0.4441540000000  0.5620470000000  0.4773710000000 1.0
C      1  0.4781080000000  0.4232530000000  0.5531300000000 1.0
C      1  0.4839360000000  0.4707670000000  0.5369790000000 1.0
C      1  0.4324370000000  0.4712860000000  0.4122590000000 1.0
C      1  0.4348800000000  0.4339460000000  0.5203470000000 1.0
C      1  0.4784050000000  0.5707110000000  0.5556260000000 1.0
C      1  0.5325730000000  0.5034170000000  0.4657610000000 1.0
C      1  0.4855690000000  0.5247780000000  0.4591800000000 1.0
C      1  0.4704020000000  0.5218640000000  0.5380360000000 1.0
C      1  0.4248140000000  0.5397220000000  0.4658600000000 1.0
C      1  0.5004110000000  0.5027620000000  0.5241680000000 1.0
C      1  0.4989680000000  0.5686590000000  0.4399680000000 1.0
C      1  0.5218530000000  0.4423860000000  0.5704870000000 1.0
C      1  0.4920800000000  0.5444770000000  0.5443300000000 1.0
C      1  0.4195760000000  0.4815110000000  0.5296000000000 1.0
C      1  0.5718060000000  0.5545040000000  0.5083520000000 1.0
C      1  0.4729550000000  0.5280090000000  0.4043620000000 1.0
C      1  0.4133230000000  0.4582480000000  0.5144400000000 1.0
C      1  0.4851330000000  0.4792800000000  0.5699840000000 1.0
C      1  0.4546770000000  0.4873340000000  0.5765900000000 1.0
C      1  0.4144380000000  0.4751120000000  0.4606570000000 1.0
C      1  0.4414570000000  0.5696020000000  0.5104920000000 1.0
C      1  0.5885420000000  0.5326310000000  0.5263280000000 1.0
C      1  0.5119260000000  0.5329170000000  0.5642000000000 1.0
C      1  0.4714400000000  0.5164470000000  0.5716200000000 1.0
C      1  0.5029890000000  0.5671640000000  0.4685720000000 1.0
C      1  0.5716110000000  0.4314100000000  0.4913940000000 1.0
C      1  0.5053000000000  0.5539820000000  0.5176520000000 1.0
C      1  0.5471760000000  0.5732590000000  0.4461220000000 1.0
C      1  0.5187930000000  0.5310480000000  0.4636580000000 1.0
C      1  0.5517140000000  0.5413660000000  0.5308170000000 1.0
C      1  0.5501370000000  0.5003530000000  0.4947400000000 1.0
C      1  0.4404320000000  0.4429990000000  0.4897280000000 1.0
C      1  0.5143870000000  0.4790830000000  0.4766600000000 1.0
C      1  0.5350030000000  0.4869900000000  0.4294050000000 1.0
C      1  0.5336910000000  0.4915940000000  0.5743880000000 1.0
C      1  0.4646090000000  0.4684250000000  0.4547750000000 1.0
C      1  0.4521900000000  0.5288120000000  0.4234450000000 1.0
C      1  0.5726200000000  0.5782520000000  0.4762330000000 1.0
C      1  0.4354210000000  0.4626830000000  0.4385770000000 1.0
C      1  0.5919200000000  0.5345340000000  0.4884840000000 1.0
C      1  0.5181710000000  0.4203570000000  0.5516860000000 1.0
C      1  0.5341980000000  0.5611620000000  0.4685840000000 1.0
C      1  0.5254980000000  0.4700280000000  0.5029060000000 1.0
C      1  0.4398680000000  0.4312730000000  0.4436780000000 1.0
C      1  0.5109480000000  0.5263270000000  0.5052830000000 1.0
C      1  0.5267930000000  0.5776720000000  0.5165890000000 1.0
C      1  0.4427560000000  0.4920430000000  0.4646520000000 1.0
C      1  0.5231230000000  0.4494860000000  0.4622300000000 1.0
C      1  0.4357770000000  0.5475790000000  0.5489780000000 1.0
C      1  0.4252040000000  0.5411420000000  0.5195850000000 1.0
C      1  0.5807310000000  0.5029650000000  0.5648180000000 1.0
C      1  0.5597690000000  0.5354180000000  0.4478680000000 1.0
C      1  0.5588670000000  0.4678750000000  0.5011450000000 1.0
C      1  0.5436730000000  0.5371720000000  0.5625480000000 1.0
C      1  0.4581090000000  0.4918430000000  0.5301030000000 1.0
C      1  0.4854980000000  0.4797320000000  0.5040220000000 1.0
C      1  0.5423530000000  0.4614360000000  0.5695360000000 1.0
C      1  0.4182290000000  0.5076760000000  0.5200960000000 1.0
C      1  0.4927170000000  0.4493230000000  0.5619530000000 1.0
C      1  0.4755350000000  0.4154470000000  0.4734650000000 1.0
C      1  0.5585700000000  0.4901850000000  0.4481130000000 1.0
C      1  0.5276310000000  0.5117540000000  0.4163330000000 1.0
C      1  0.4883010000000  0.4779880000000  0.4403190000000 1.0
C      1  0.4587130000000  0.5798300000000  0.5381030000000 1.0
C      1  0.5065860000000  0.5768470000000  0.5626220000000 1.0
C      1  0.4493980000000  0.4238790000000  0.4682930000000 1.0
C      1  0.5947450000000  0.5054900000000  0.5064160000000 1.0
C      1  0.4681010000000  0.4268910000000  0.5221460000000 1.0
C      1  0.5592830000000  0.4574410000000  0.5436530000000 1.0
C      1  0.4667200000000  0.5453930000000  0.4915700000000 1.0
C      1  0.5849200000000  0.4817380000000  0.4895190000000 1.0
C      1  0.4124640000000  0.5249550000000  0.4925500000000 1.0
C      1  0.5771820000000  0.4408360000000  0.5236740000000 1.0
C      1  0.4706310000000  0.5878960000000  0.5105330000000 1.0
C      1  0.4420520000000  0.4727710000000  0.5516140000000 1.0
C      1  0.4334860000000  0.5112980000000  0.4393200000000 1.0
C      1  0.4855760000000  0.5052460000000  0.4346780000000 1.0
C      1  0.5184110000000  0.5570590000000  0.4238980000000 1.0
C      1  0.5311070000000  0.5643900000000  0.5463540000000 1.0
C      1  0.4110670000000  0.4576930000000  0.4838780000000 1.0
C      1  0.5334810000000  0.4700030000000  0.5316300000000 1.0
C      1  0.4903130000000  0.4246000000000  0.5028240000000 1.0
C      1  0.5124990000000  0.3926760000000  0.5117030000000 1.0
C      1  0.5567160000000  0.5120790000000  0.5740760000000 1.0
C      1  0.5248610000000  0.4963410000000  0.5436840000000 1.0
END
