TITL C-2778425-5191-1153 0.536416330021595 125000 -655.46220418978 0 0 111 (C1) n - 1
REM
REM in /home/nfs/bkarasulu/CARBON/AIRSS/Generating-Clusters/REBO/Only-C1/SD-CG/HFTN-CG
REM
REM
REM
REM
REM
REM ./C.cell (11c1c37f851c82e70ff6c80c92926a4b)
REM
REM compiler GCC version 9.2.1 20190827 (Red Hat 9.2.1-1)
REM options -cpp -mtune=generic -march=x86-64 -g -O0 -fpre-include=/usr/include/finclude/math-vector-fortran.h
REM seed -1037595953 -1029587861 -1548230511 366208539 -1097711097 -684595908 -1750244614 1328993661 -1342629937 -1729668778 -672291521 1313414875 173357989 -643249370 1465772947 150565342 1457705677 1056019311 115741864 2133074573 424074430 875768859 -1104609640 1077988025 -1217236753 -2005503618 -740425761 1217681410 188748100 -877746646 2011482986 -445459754 -633640950
REM
CELL 1.54180   50.00000   50.00000   50.00000   90.00000   90.00000   90.00000
LATT -1
SFAC C  
C      1  0.5719850000000  0.5316740000000  0.5407540000000 1.0
C      1  0.4750820000000  0.5761280000000  0.4731960000000 1.0
C      1  0.5353580000000  0.4302380000000  0.5099390000000 1.0
C      1  0.4938010000000  0.5889000000000  0.5411820000000 1.0
C      1  0.5290830000000  0.5203860000000  0.4222410000000 1.0
C      1  0.4879670000000  0.4768810000000  0.5494840000000 1.0
C      1  0.5734090000000  0.5497380000000  0.4785820000000 1.0
C      1  0.5365080000000  0.4757140000000  0.4681560000000 1.0
C      1  0.5353680000000  0.5197580000000  0.4526530000000 1.0
C      1  0.4795990000000  0.5238110000000  0.5788820000000 1.0
C      1  0.4811230000000  0.4674100000000  0.4361270000000 1.0
C      1  0.4152650000000  0.5169080000000  0.5325020000000 1.0
C      1  0.4596830000000  0.4070170000000  0.5302590000000 1.0
C      1  0.5611580000000  0.4465010000000  0.5256810000000 1.0
C      1  0.4256120000000  0.4441170000000  0.5245870000000 1.0
C      1  0.4202330000000  0.5480230000000  0.4383140000000 1.0
C      1  0.5760960000000  0.4773050000000  0.5257410000000 1.0
C      1  0.5180790000000  0.4292310000000  0.4502020000000 1.0
C      1  0.4431350000000  0.5813400000000  0.5451990000000 1.0
C      1  0.4138890000000  0.4542370000000  0.4737410000000 1.0
C      1  0.4949260000000  0.5758910000000  0.5697830000000 1.0
C      1  0.5191360000000  0.5354120000000  0.5251490000000 1.0
C      1  0.5532440000000  0.4681250000000  0.4432280000000 1.0
C      1  0.5102490000000  0.4294570000000  0.5333390000000 1.0
C      1  0.5186710000000  0.4531530000000  0.4819880000000 1.0
C      1  0.4466210000000  0.5262950000000  0.5696700000000 1.0
C      1  0.4388800000000  0.5284160000000  0.4803210000000 1.0
C      1  0.5281480000000  0.5426960000000  0.5766800000000 1.0
C      1  0.4428110000000  0.5363640000000  0.4506230000000 1.0
C      1  0.5764520000000  0.4805110000000  0.3810990000000 1.0
C      1  0.4602920000000  0.4616760000000  0.4917750000000 1.0
C      1  0.5079340000000  0.5360280000000  0.4627280000000 1.0
C      1  0.4490670000000  0.5067910000000  0.4394400000000 1.0
C      1  0.5386120000000  0.4607370000000  0.4217140000000 1.0
C      1  0.4654070000000  0.5901520000000  0.5288150000000 1.0
C      1  0.5101260000000  0.5190870000000  0.5840730000000 1.0
C      1  0.4579450000000  0.4498780000000  0.4412000000000 1.0
C      1  0.4381030000000  0.4633880000000  0.4234180000000 1.0
C      1  0.5032640000000  0.5327070000000  0.4172500000000 1.0
C      1  0.5217850000000  0.6053710000000  0.5354480000000 1.0
C      1  0.4852490000000  0.4121190000000  0.4790130000000 1.0
C      1  0.4738080000000  0.4948220000000  0.4315510000000 1.0
C      1  0.5542040000000  0.5566900000000  0.5261300000000 1.0
C      1  0.5035620000000  0.5796760000000  0.4741320000000 1.0
C      1  0.5885410000000  0.5060920000000  0.5256110000000 1.0
C      1  0.5037140000000  0.4424820000000  0.5799780000000 1.0
C      1  0.5157030000000  0.5672810000000  0.5264330000000 1.0
C      1  0.5088180000000  0.4529340000000  0.4293210000000 1.0
C      1  0.4678770000000  0.5567410000000  0.4517790000000 1.0
C      1  0.6002590000000  0.5203840000000  0.5533800000000 1.0
C      1  0.5411700000000  0.5379430000000  0.5504990000000 1.0
C      1  0.5349050000000  0.5171290000000  0.5033440000000 1.0
C      1  0.4749350000000  0.4809760000000  0.3940920000000 1.0
C      1  0.6183180000000  0.5216250000000  0.5714870000000 1.0
C      1  0.5467160000000  0.4940780000000  0.5231160000000 1.0
C      1  0.5463390000000  0.5476190000000  0.4983210000000 1.0
C      1  0.5213870000000  0.4618730000000  0.5134080000000 1.0
C      1  0.4638030000000  0.5802050000000  0.5001470000000 1.0
C      1  0.5622060000000  0.5063290000000  0.4686570000000 1.0
C      1  0.5285300000000  0.5703760000000  0.4802050000000 1.0
C      1  0.4903320000000  0.5246450000000  0.4820650000000 1.0
C      1  0.5747320000000  0.4577910000000  0.4977740000000 1.0
C      1  0.5344030000000  0.4512500000000  0.5435960000000 1.0
C      1  0.4672560000000  0.5000010000000  0.5243740000000 1.0
C      1  0.5547500000000  0.4885040000000  0.3934270000000 1.0
C      1  0.4667150000000  0.5014160000000  0.5575960000000 1.0
C      1  0.4631250000000  0.4246640000000  0.5526050000000 1.0
C      1  0.4643910000000  0.5532780000000  0.5134710000000 1.0
C      1  0.4519260000000  0.4435260000000  0.4675100000000 1.0
C      1  0.4285840000000  0.4862010000000  0.4397000000000 1.0
C      1  0.4878570000000  0.5094350000000  0.4072320000000 1.0
C      1  0.4174230000000  0.5232890000000  0.5064470000000 1.0
C      1  0.4248360000000  0.4733410000000  0.5315040000000 1.0
C      1  0.5291250000000  0.4834050000000  0.5468700000000 1.0
C      1  0.4719330000000  0.4129250000000  0.5064430000000 1.0
C      1  0.4750230000000  0.5539890000000  0.5689280000000 1.0
C      1  0.4337230000000  0.4410530000000  0.4962200000000 1.0
C      1  0.4441960000000  0.5591880000000  0.5612330000000 1.0
C      1  0.5176310000000  0.5037440000000  0.6089500000000 1.0
C      1  0.5239780000000  0.4907700000000  0.6299890000000 1.0
C      1  0.5749520000000  0.4514640000000  0.4504120000000 1.0
C      1  0.5107440000000  0.4675820000000  0.5713510000000 1.0
C      1  0.4732220000000  0.5442510000000  0.5382480000000 1.0
C      1  0.5562090000000  0.5719510000000  0.4683460000000 1.0
C      1  0.4914240000000  0.4579960000000  0.5268870000000 1.0
C      1  0.4419360000000  0.4446830000000  0.5530590000000 1.0
C      1  0.5318670000000  0.4969320000000  0.4064270000000 1.0
C      1  0.5065160000000  0.5041790000000  0.5568430000000 1.0
C      1  0.4263930000000  0.4988270000000  0.4859690000000 1.0
C      1  0.4924460000000  0.4390510000000  0.4985580000000 1.0
C      1  0.4387190000000  0.4903880000000  0.5138900000000 1.0
C      1  0.4979130000000  0.4109140000000  0.4546640000000 1.0
C      1  0.4925870000000  0.5206060000000  0.5340260000000 1.0
C      1  0.5060600000000  0.4784450000000  0.4069340000000 1.0
C      1  0.5700620000000  0.4391150000000  0.4744680000000 1.0
C      1  0.4939140000000  0.4955850000000  0.4842650000000 1.0
C      1  0.4926940000000  0.5462390000000  0.4403050000000 1.0
C      1  0.4183760000000  0.4799470000000  0.4653090000000 1.0
C      1  0.4752310000000  0.4824610000000  0.4997030000000 1.0
C      1  0.4270650000000  0.5061610000000  0.5560400000000 1.0
C      1  0.5431280000000  0.5860230000000  0.5288000000000 1.0
C      1  0.5238110000000  0.5031020000000  0.4787760000000 1.0
C      1  0.5402310000000  0.4287820000000  0.4761910000000 1.0
C      1  0.4505190000000  0.4701820000000  0.3982020000000 1.0
C      1  0.5185630000000  0.5680700000000  0.5812630000000 1.0
C      1  0.5995730000000  0.5141780000000  0.4977000000000 1.0
C      1  0.4656580000000  0.5339150000000  0.4927830000000 1.0
C      1  0.4327880000000  0.4763620000000  0.5615870000000 1.0
C      1  0.5567580000000  0.4847350000000  0.4918570000000 1.0
C      1  0.5834890000000  0.5236510000000  0.4760680000000 1.0
C      1  0.4910580000000  0.4269820000000  0.5593730000000 1.0
END
