TITL C-2778434-4341-649 -0.00477175594356986 125000 -1034.12960217187 0 0 177 (C1) n - 1
REM
REM in /home/nfs/bkarasulu/CARBON/AIRSS/Generating-Clusters/REBO/Only-C1/SD-CG/HFTN-CG
REM
REM
REM
REM
REM
REM ./C.cell (11c1c37f851c82e70ff6c80c92926a4b)
REM
REM compiler GCC version 9.2.1 20190827 (Red Hat 9.2.1-1)
REM options -cpp -mtune=generic -march=x86-64 -g -O0 -fpre-include=/usr/include/finclude/math-vector-fortran.h
REM seed 1534366583 1696973733 515132423 310406204 889723605 1719845474 -1286453198 1742827883 -1326736946 -1028031140 1308692969 -2144299927 -250565910 1270470700 -986586234 -1700226651 -2014211421 538829466 -312358651 -1742250430 -1211158516 110821674 -1542778387 -1796208332 -1611028547 -1330404001 1688051197 1682406487 -1835137479 570428714 648749506 1525272754 -1559028635
REM
CELL 1.54180   50.00000   50.00000   50.00000   90.00000   90.00000   90.00000
LATT -1
SFAC C  
C      1  0.5277210000000  0.4309050000000  0.5296810000000 1.0
C      1  0.5380640000000  0.4008110000000  0.4777660000000 1.0
C      1  0.5732430000000  0.5388200000000  0.4355430000000 1.0
C      1  0.6091690000000  0.4536340000000  0.4878400000000 1.0
C      1  0.4481390000000  0.5566550000000  0.5670370000000 1.0
C      1  0.4947010000000  0.4628090000000  0.4117270000000 1.0
C      1  0.5595300000000  0.4673780000000  0.5404750000000 1.0
C      1  0.4249880000000  0.4598060000000  0.5012840000000 1.0
C      1  0.5572450000000  0.5057230000000  0.4708330000000 1.0
C      1  0.5010540000000  0.5225080000000  0.5536030000000 1.0
C      1  0.5841670000000  0.5137380000000  0.4236670000000 1.0
C      1  0.4733550000000  0.4454830000000  0.5521740000000 1.0
C      1  0.4335980000000  0.4255600000000  0.5516130000000 1.0
C      1  0.4755220000000  0.5551030000000  0.4036080000000 1.0
C      1  0.4800520000000  0.5222950000000  0.3945310000000 1.0
C      1  0.5457770000000  0.5309860000000  0.5226310000000 1.0
C      1  0.4181200000000  0.5165560000000  0.4580450000000 1.0
C      1  0.4599670000000  0.5573050000000  0.5159350000000 1.0
C      1  0.5006770000000  0.5561000000000  0.4837620000000 1.0
C      1  0.3776540000000  0.4810370000000  0.5048230000000 1.0
C      1  0.5649410000000  0.4891120000000  0.5063050000000 1.0
C      1  0.5183760000000  0.4666440000000  0.4903720000000 1.0
C      1  0.5348430000000  0.5306480000000  0.3980800000000 1.0
C      1  0.5440470000000  0.5355440000000  0.5707070000000 1.0
C      1  0.4586240000000  0.4933980000000  0.4229480000000 1.0
C      1  0.5295620000000  0.5605620000000  0.5012210000000 1.0
C      1  0.5507340000000  0.4766520000000  0.4209760000000 1.0
C      1  0.4876810000000  0.4240710000000  0.5318310000000 1.0
C      1  0.4941050000000  0.5497840000000  0.5579990000000 1.0
C      1  0.4967930000000  0.3970140000000  0.5141300000000 1.0
C      1  0.5480230000000  0.5520060000000  0.4215350000000 1.0
C      1  0.5659120000000  0.4417370000000  0.4601570000000 1.0
C      1  0.4786660000000  0.5817060000000  0.4230350000000 1.0
C      1  0.5726090000000  0.5085700000000  0.5636670000000 1.0
C      1  0.4939750000000  0.5957140000000  0.5210730000000 1.0
C      1  0.4838150000000  0.4203940000000  0.6015050000000 1.0
C      1  0.5131590000000  0.4138910000000  0.4342830000000 1.0
C      1  0.5100430000000  0.4072290000000  0.4657560000000 1.0
C      1  0.5710930000000  0.5729150000000  0.4792730000000 1.0
C      1  0.5033640000000  0.5762640000000  0.4435850000000 1.0
C      1  0.4799520000000  0.5119520000000  0.6014330000000 1.0
C      1  0.4408210000000  0.5137970000000  0.4257540000000 1.0
C      1  0.6017840000000  0.4936720000000  0.5210590000000 1.0
C      1  0.4772810000000  0.5040640000000  0.4815370000000 1.0
C      1  0.5230830000000  0.5264380000000  0.6041540000000 1.0
C      1  0.5354270000000  0.4935960000000  0.4922320000000 1.0
C      1  0.5561040000000  0.4692620000000  0.4545170000000 1.0
C      1  0.5011210000000  0.5982500000000  0.4645160000000 1.0
C      1  0.6051340000000  0.4226130000000  0.4946680000000 1.0
C      1  0.4545810000000  0.4442270000000  0.5232020000000 1.0
C      1  0.5331640000000  0.4002880000000  0.5302110000000 1.0
C      1  0.4644470000000  0.5179200000000  0.5190180000000 1.0
C      1  0.4586490000000  0.4649870000000  0.4713730000000 1.0
C      1  0.4392350000000  0.5868210000000  0.4634480000000 1.0
C      1  0.5550370000000  0.5725790000000  0.5534790000000 1.0
C      1  0.5349020000000  0.4445970000000  0.5028030000000 1.0
C      1  0.5884500000000  0.4831340000000  0.5474090000000 1.0
C      1  0.4231110000000  0.4961780000000  0.5591660000000 1.0
C      1  0.4347210000000  0.4627840000000  0.4472660000000 1.0
C      1  0.6020880000000  0.4802830000000  0.4946110000000 1.0
C      1  0.5551590000000  0.4260890000000  0.4861620000000 1.0
C      1  0.4741830000000  0.4922620000000  0.3945750000000 1.0
C      1  0.4233990000000  0.5257460000000  0.5722910000000 1.0
C      1  0.5084620000000  0.4723300000000  0.5328110000000 1.0
C      1  0.3903880000000  0.5290370000000  0.4969410000000 1.0
C      1  0.5032080000000  0.5245690000000  0.4594840000000 1.0
C      1  0.4689390000000  0.4318040000000  0.5820220000000 1.0
C      1  0.5330250000000  0.5504690000000  0.5439610000000 1.0
C      1  0.5103870000000  0.4542880000000  0.4363670000000 1.0
C      1  0.4544500000000  0.5174940000000  0.5713990000000 1.0
C      1  0.3826420000000  0.5009980000000  0.4865940000000 1.0
C      1  0.5635110000000  0.4562130000000  0.5110480000000 1.0
C      1  0.4595440000000  0.5958330000000  0.4409750000000 1.0
C      1  0.5900930000000  0.5462940000000  0.4825340000000 1.0
C      1  0.4641190000000  0.3891060000000  0.4924650000000 1.0
C      1  0.5272900000000  0.5132170000000  0.5569520000000 1.0
C      1  0.4389980000000  0.4319270000000  0.4950660000000 1.0
C      1  0.4690690000000  0.5971510000000  0.6078660000000 1.0
C      1  0.5963840000000  0.4403980000000  0.4603700000000 1.0
C      1  0.4960540000000  0.4857670000000  0.5866380000000 1.0
C      1  0.4564430000000  0.5925590000000  0.4925950000000 1.0
C      1  0.4412110000000  0.4520320000000  0.4159090000000 1.0
C      1  0.5951050000000  0.5453780000000  0.5410940000000 1.0
C      1  0.4793760000000  0.4449030000000  0.4843040000000 1.0
C      1  0.5469660000000  0.5886490000000  0.4638850000000 1.0
C      1  0.4411630000000  0.4397340000000  0.5749460000000 1.0
C      1  0.5532240000000  0.5494380000000  0.4610840000000 1.0
C      1  0.4726750000000  0.4410370000000  0.4368880000000 1.0
C      1  0.4498650000000  0.4037560000000  0.5436580000000 1.0
C      1  0.4418120000000  0.4313130000000  0.4436070000000 1.0
C      1  0.4794710000000  0.5033050000000  0.5547590000000 1.0
C      1  0.4541500000000  0.5457570000000  0.4639630000000 1.0
C      1  0.4885370000000  0.5574400000000  0.5844360000000 1.0
C      1  0.4064720000000  0.4708820000000  0.4543300000000 1.0
C      1  0.6093560000000  0.4115080000000  0.4650710000000 1.0
C      1  0.5737100000000  0.4439550000000  0.5606100000000 1.0
C      1  0.4279370000000  0.5546530000000  0.5153620000000 1.0
C      1  0.4512340000000  0.5489520000000  0.5960790000000 1.0
C      1  0.4594460000000  0.5364130000000  0.5434570000000 1.0
C      1  0.5837190000000  0.5239580000000  0.4622060000000 1.0
C      1  0.5264820000000  0.4990040000000  0.5942120000000 1.0
C      1  0.5779820000000  0.5202170000000  0.5014830000000 1.0
C      1  0.4600580000000  0.5959640000000  0.5252430000000 1.0
C      1  0.5398080000000  0.4450530000000  0.4277610000000 1.0
C      1  0.4362780000000  0.5083810000000  0.5067600000000 1.0
C      1  0.4332740000000  0.5780940000000  0.5371790000000 1.0
C      1  0.4950370000000  0.4915660000000  0.4574630000000 1.0
C      1  0.4863550000000  0.4115020000000  0.4868530000000 1.0
C      1  0.5878830000000  0.4921370000000  0.4707410000000 1.0
C      1  0.4456610000000  0.4800630000000  0.4944450000000 1.0
C      1  0.4366530000000  0.4176740000000  0.4697240000000 1.0
C      1  0.5454450000000  0.5460940000000  0.6028660000000 1.0
C      1  0.4039860000000  0.5331260000000  0.5281520000000 1.0
C      1  0.5440370000000  0.5825680000000  0.5228060000000 1.0
C      1  0.5853630000000  0.5358650000000  0.5664930000000 1.0
C      1  0.4892580000000  0.4227300000000  0.4243480000000 1.0
C      1  0.4382170000000  0.4695830000000  0.5743540000000 1.0
C      1  0.5768250000000  0.4901770000000  0.4382310000000 1.0
C      1  0.4858020000000  0.5297560000000  0.4996350000000 1.0
C      1  0.4446850000000  0.3907590000000  0.4719890000000 1.0
C      1  0.5130990000000  0.4032620000000  0.5542650000000 1.0
C      1  0.4888280000000  0.4711090000000  0.5568020000000 1.0
C      1  0.4662570000000  0.4854210000000  0.5193550000000 1.0
C      1  0.4734030000000  0.5813920000000  0.5856540000000 1.0
C      1  0.4536600000000  0.3876190000000  0.5185310000000 1.0
C      1  0.5245250000000  0.5988840000000  0.4798940000000 1.0
C      1  0.5673650000000  0.5581680000000  0.5810530000000 1.0
C      1  0.4190220000000  0.5688070000000  0.4557280000000 1.0
C      1  0.5746060000000  0.4713620000000  0.5769110000000 1.0
C      1  0.4048610000000  0.5451750000000  0.4705130000000 1.0
C      1  0.4653370000000  0.4599660000000  0.4024790000000 1.0
C      1  0.5760400000000  0.4321920000000  0.5327500000000 1.0
C      1  0.5306620000000  0.5246910000000  0.4306070000000 1.0
C      1  0.4868490000000  0.5470690000000  0.4410550000000 1.0
C      1  0.5239780000000  0.4766300000000  0.4540670000000 1.0
C      1  0.4579760000000  0.5876490000000  0.5582950000000 1.0
C      1  0.5224680000000  0.5527220000000  0.4578510000000 1.0
C      1  0.4500050000000  0.5145520000000  0.4697220000000 1.0
C      1  0.4873000000000  0.4518380000000  0.5153890000000 1.0
C      1  0.4973950000000  0.4891740000000  0.5054190000000 1.0
C      1  0.5526990000000  0.4918880000000  0.5857500000000 1.0
C      1  0.4860250000000  0.5663290000000  0.5318960000000 1.0
C      1  0.5023600000000  0.4390930000000  0.4631860000000 1.0
C      1  0.4172510000000  0.5520500000000  0.5532260000000 1.0
C      1  0.5016000000000  0.5298270000000  0.4199720000000 1.0
C      1  0.4726020000000  0.4746380000000  0.4428430000000 1.0
C      1  0.5788350000000  0.4197350000000  0.5059340000000 1.0
C      1  0.3990600000000  0.4946170000000  0.4644030000000 1.0
C      1  0.4953360000000  0.5356140000000  0.6032110000000 1.0
C      1  0.5203910000000  0.5137670000000  0.5108650000000 1.0
C      1  0.5440710000000  0.4183760000000  0.4485440000000 1.0
C      1  0.5521730000000  0.5400760000000  0.4917060000000 1.0
C      1  0.5339290000000  0.4848950000000  0.5428690000000 1.0
C      1  0.4024110000000  0.4723060000000  0.5211830000000 1.0
C      1  0.5591100000000  0.5065360000000  0.5339330000000 1.0
C      1  0.4825400000000  0.3939220000000  0.5451610000000 1.0
C      1  0.4238960000000  0.5325760000000  0.4939670000000 1.0
C      1  0.4616140000000  0.4882180000000  0.5869510000000 1.0
C      1  0.4253850000000  0.5418960000000  0.4365560000000 1.0
C      1  0.4210260000000  0.4452660000000  0.5307220000000 1.0
C      1  0.5273260000000  0.3872790000000  0.5040090000000 1.0
C      1  0.5050280000000  0.5444630000000  0.3892340000000 1.0
C      1  0.5083520000000  0.5445200000000  0.5210930000000 1.0
C      1  0.4740770000000  0.6051070000000  0.4671060000000 1.0
C      1  0.5316070000000  0.5072240000000  0.4548480000000 1.0
C      1  0.4525180000000  0.4850240000000  0.5481340000000 1.0
C      1  0.5333720000000  0.4967490000000  0.4025010000000 1.0
C      1  0.4689510000000  0.5623440000000  0.4844940000000 1.0
C      1  0.4134290000000  0.5004390000000  0.5302870000000 1.0
C      1  0.5200640000000  0.5984990000000  0.5086580000000 1.0
C      1  0.5728920000000  0.5829170000000  0.5075360000000 1.0
C      1  0.5075010000000  0.4861280000000  0.3977430000000 1.0
C      1  0.5433470000000  0.5798980000000  0.4372600000000 1.0
C      1  0.4562930000000  0.5501630000000  0.4313660000000 1.0
C      1  0.6008550000000  0.5244160000000  0.5226800000000 1.0
C      1  0.5803500000000  0.5691260000000  0.5332320000000 1.0
C      1  0.5156260000000  0.4349600000000  0.5582240000000 1.0
END
