TITL C-2778435-5768-442 0.029935041684432 125000 -314.434944357957 0 0 56 (C1) n - 1
REM
REM in /home/nfs/bkarasulu/CARBON/AIRSS/Generating-Clusters/REBO/Only-C1/SD-CG/HFTN-CG
REM
REM
REM
REM
REM
REM ./C.cell (11c1c37f851c82e70ff6c80c92926a4b)
REM
REM compiler GCC version 9.2.1 20190827 (Red Hat 9.2.1-1)
REM options -cpp -mtune=generic -march=x86-64 -g -O0 -fpre-include=/usr/include/finclude/math-vector-fortran.h
REM seed 1599481907 185886960 -654790179 -877669299 1227262124 699518903 1308093502 -481271857 1633288210 966017976 -936766192 1230791029 2087261524 1880812105 965441828 287786002 990699602 -1575678686 551492179 -597849517 -637139962 106391281 -689261218 -232424587 755996705 707386373 154762308 1136150196 -1692074740 -1935588365 652874997 -1278261182 -1808549374
REM
CELL 1.54180   50.00000   50.00000   50.00000   90.00000   90.00000   90.00000
LATT -1
SFAC C  
C      1  0.4890440000000  0.5224740000000  0.4293500000000 1.0
C      1  0.4944200000000  0.4377500000000  0.4685410000000 1.0
C      1  0.4327530000000  0.4795360000000  0.4531270000000 1.0
C      1  0.5176540000000  0.4838430000000  0.4609760000000 1.0
C      1  0.5266710000000  0.4548190000000  0.5714670000000 1.0
C      1  0.4578440000000  0.5178230000000  0.5016750000000 1.0
C      1  0.4961110000000  0.5208780000000  0.5398610000000 1.0
C      1  0.4701920000000  0.5118210000000  0.4508980000000 1.0
C      1  0.4423790000000  0.4921250000000  0.5508770000000 1.0
C      1  0.4523140000000  0.5334500000000  0.4651980000000 1.0
C      1  0.4231080000000  0.4910750000000  0.4773010000000 1.0
C      1  0.5018760000000  0.4576400000000  0.4475310000000 1.0
C      1  0.5245460000000  0.5280430000000  0.5086810000000 1.0
C      1  0.4701050000000  0.4456800000000  0.5235540000000 1.0
C      1  0.5353880000000  0.4630680000000  0.4440910000000 1.0
C      1  0.5589310000000  0.5122250000000  0.4537620000000 1.0
C      1  0.4307790000000  0.5210870000000  0.4819220000000 1.0
C      1  0.5140860000000  0.5261380000000  0.4206770000000 1.0
C      1  0.5390570000000  0.5274450000000  0.4321740000000 1.0
C      1  0.5370740000000  0.4481100000000  0.5007590000000 1.0
C      1  0.5625810000000  0.5313620000000  0.5591050000000 1.0
C      1  0.4986060000000  0.5083550000000  0.5707820000000 1.0
C      1  0.4502830000000  0.4718090000000  0.5263620000000 1.0
C      1  0.4406180000000  0.4889370000000  0.5026700000000 1.0
C      1  0.5437300000000  0.4718360000000  0.5234430000000 1.0
C      1  0.5290840000000  0.5540590000000  0.4788770000000 1.0
C      1  0.4822920000000  0.5132600000000  0.4822210000000 1.0
C      1  0.4913350000000  0.5670310000000  0.4773080000000 1.0
C      1  0.5120780000000  0.5040330000000  0.4767370000000 1.0
C      1  0.5449860000000  0.4598020000000  0.5518540000000 1.0
C      1  0.4783240000000  0.4841920000000  0.5352970000000 1.0
C      1  0.5573230000000  0.4794620000000  0.4604100000000 1.0
C      1  0.4660090000000  0.5573000000000  0.4702900000000 1.0
C      1  0.5524520000000  0.5219420000000  0.5364210000000 1.0
C      1  0.5312190000000  0.4999060000000  0.5249210000000 1.0
C      1  0.4878210000000  0.4828180000000  0.5643490000000 1.0
C      1  0.5645230000000  0.5030900000000  0.4848060000000 1.0
C      1  0.4476750000000  0.5168560000000  0.5500440000000 1.0
C      1  0.4867030000000  0.4370320000000  0.5485760000000 1.0
C      1  0.4935930000000  0.5033660000000  0.5121170000000 1.0
C      1  0.4981080000000  0.4565250000000  0.5693340000000 1.0
C      1  0.5041050000000  0.4721380000000  0.5187140000000 1.0
C      1  0.5048190000000  0.5530140000000  0.5024710000000 1.0
C      1  0.5049540000000  0.5872650000000  0.4643420000000 1.0
C      1  0.5095550000000  0.4476040000000  0.5297480000000 1.0
C      1  0.4766240000000  0.4672520000000  0.4329070000000 1.0
C      1  0.5148840000000  0.4351680000000  0.4922280000000 1.0
C      1  0.4964640000000  0.5627010000000  0.5504960000000 1.0
C      1  0.5561210000000  0.5231820000000  0.5045610000000 1.0
C      1  0.4854310000000  0.5564360000000  0.5258340000000 1.0
C      1  0.4656890000000  0.5301110000000  0.5277910000000 1.0
C      1  0.5426690000000  0.5412320000000  0.4603450000000 1.0
C      1  0.5047950000000  0.5394720000000  0.5671430000000 1.0
C      1  0.4585010000000  0.4851090000000  0.4427750000000 1.0
C      1  0.4829770000000  0.4397310000000  0.4992720000000 1.0
C      1  0.5587360000000  0.4715820000000  0.4930280000000 1.0
END
