TITL C-2778428-5639-346 0.132442784490193 125000 -450.428549378273 0 0 79 (C1) n - 1
REM
REM in /home/nfs/bkarasulu/CARBON/AIRSS/Generating-Clusters/REBO/Only-C1/SD-CG/HFTN-CG
REM
REM
REM
REM
REM
REM ./C.cell (11c1c37f851c82e70ff6c80c92926a4b)
REM
REM compiler GCC version 9.2.1 20190827 (Red Hat 9.2.1-1)
REM options -cpp -mtune=generic -march=x86-64 -g -O0 -fpre-include=/usr/include/finclude/math-vector-fortran.h
REM seed -1920759896 1367263464 -468211674 -1938505739 -1976851789 -1949624561 377002767 -399549734 344869622 370199466 -873496794 -1817907825 98263644 1399603769 -1154984747 1906217572 -1496435749 1434804517 1675790882 -868316130 1078490858 -280628956 1142572988 -1109469728 -1656072271 1756625905 364770531 1720407367 504616898 -938853915 -1738026889 1000199717 2126169225
REM
CELL 1.54180   50.00000   50.00000   50.00000   90.00000   90.00000   90.00000
LATT -1
SFAC C  
C      1  0.5505860000000  0.4430960000000  0.5121730000000 1.0
C      1  0.4828500000000  0.5612830000000  0.4634010000000 1.0
C      1  0.5347980000000  0.5072950000000  0.5895470000000 1.0
C      1  0.4906650000000  0.5053370000000  0.4648790000000 1.0
C      1  0.5566410000000  0.5378200000000  0.4511960000000 1.0
C      1  0.4300100000000  0.4757900000000  0.4764080000000 1.0
C      1  0.4894110000000  0.5629390000000  0.5378900000000 1.0
C      1  0.5401910000000  0.5120660000000  0.4448360000000 1.0
C      1  0.4567580000000  0.4835110000000  0.4982110000000 1.0
C      1  0.4480500000000  0.5190280000000  0.5298740000000 1.0
C      1  0.4556110000000  0.5347090000000  0.5580410000000 1.0
C      1  0.5519450000000  0.5156880000000  0.5369170000000 1.0
C      1  0.5758260000000  0.4660570000000  0.4796110000000 1.0
C      1  0.5185600000000  0.5099060000000  0.5412420000000 1.0
C      1  0.4936850000000  0.5063900000000  0.4107200000000 1.0
C      1  0.5045830000000  0.4820240000000  0.5947020000000 1.0
C      1  0.5268530000000  0.5139750000000  0.4137140000000 1.0
C      1  0.5156140000000  0.4740290000000  0.4768550000000 1.0
C      1  0.5704530000000  0.4421870000000  0.4919670000000 1.0
C      1  0.5258720000000  0.5320890000000  0.5784780000000 1.0
C      1  0.5086570000000  0.5312810000000  0.4600190000000 1.0
C      1  0.5818810000000  0.5155880000000  0.4911340000000 1.0
C      1  0.4994250000000  0.4324350000000  0.5079500000000 1.0
C      1  0.4683750000000  0.4928530000000  0.5266590000000 1.0
C      1  0.4370110000000  0.5120540000000  0.5673890000000 1.0
C      1  0.4344880000000  0.5277430000000  0.5033220000000 1.0
C      1  0.5359050000000  0.5014060000000  0.4764820000000 1.0
C      1  0.4455070000000  0.4451850000000  0.5126910000000 1.0
C      1  0.4756280000000  0.4196490000000  0.5482160000000 1.0
C      1  0.5090530000000  0.5475030000000  0.4900180000000 1.0
C      1  0.4967200000000  0.4164590000000  0.5298480000000 1.0
C      1  0.4888720000000  0.4599630000000  0.4438010000000 1.0
C      1  0.5427150000000  0.4649160000000  0.4287340000000 1.0
C      1  0.5538060000000  0.4606000000000  0.5625460000000 1.0
C      1  0.4398110000000  0.4658540000000  0.5367720000000 1.0
C      1  0.4633880000000  0.4502280000000  0.5553300000000 1.0
C      1  0.4743420000000  0.5316490000000  0.4791440000000 1.0
C      1  0.5111250000000  0.4354090000000  0.4655060000000 1.0
C      1  0.4461470000000  0.4265020000000  0.5375190000000 1.0
C      1  0.5096650000000  0.4976540000000  0.4390800000000 1.0
C      1  0.5088150000000  0.5368740000000  0.4314210000000 1.0
C      1  0.5316590000000  0.4768110000000  0.5769210000000 1.0
C      1  0.4244040000000  0.5748590000000  0.4910430000000 1.0
C      1  0.5569520000000  0.4601610000000  0.5354200000000 1.0
C      1  0.4819160000000  0.4407700000000  0.4689190000000 1.0
C      1  0.4667560000000  0.4769650000000  0.4339300000000 1.0
C      1  0.4319000000000  0.5032450000000  0.4904980000000 1.0
C      1  0.5221570000000  0.4507050000000  0.5007490000000 1.0
C      1  0.4329580000000  0.4914880000000  0.5448300000000 1.0
C      1  0.4991020000000  0.5417310000000  0.5801300000000 1.0
C      1  0.4784920000000  0.4773540000000  0.5530490000000 1.0
C      1  0.4539920000000  0.5316920000000  0.4323540000000 1.0
C      1  0.4607280000000  0.5022270000000  0.4165070000000 1.0
C      1  0.5107570000000  0.4811030000000  0.5525640000000 1.0
C      1  0.5223920000000  0.4751600000000  0.5222210000000 1.0
C      1  0.4808030000000  0.5365300000000  0.4183490000000 1.0
C      1  0.4442780000000  0.4976140000000  0.3942470000000 1.0
C      1  0.4820370000000  0.4795790000000  0.4779760000000 1.0
C      1  0.4794820000000  0.5489880000000  0.5606500000000 1.0
C      1  0.5109470000000  0.5620360000000  0.5198690000000 1.0
C      1  0.5798590000000  0.5319210000000  0.4674360000000 1.0
C      1  0.5368100000000  0.5556170000000  0.5304430000000 1.0
C      1  0.4543970000000  0.4704790000000  0.4607020000000 1.0
C      1  0.4831190000000  0.4876120000000  0.5827890000000 1.0
C      1  0.5227940000000  0.4606190000000  0.4464100000000 1.0
C      1  0.5379800000000  0.5342610000000  0.4860300000000 1.0
C      1  0.4350290000000  0.5499070000000  0.4857930000000 1.0
C      1  0.5513370000000  0.4884910000000  0.5203180000000 1.0
C      1  0.4972940000000  0.5232880000000  0.5313240000000 1.0
C      1  0.5086110000000  0.5710600000000  0.4579400000000 1.0
C      1  0.5763750000000  0.5281850000000  0.5166650000000 1.0
C      1  0.4865670000000  0.5324810000000  0.5088160000000 1.0
C      1  0.4527810000000  0.5458030000000  0.4592980000000 1.0
C      1  0.5361570000000  0.5594520000000  0.4622110000000 1.0
C      1  0.5534450000000  0.5452740000000  0.5101430000000 1.0
C      1  0.5627200000000  0.4917620000000  0.4910650000000 1.0
C      1  0.4723010000000  0.4467180000000  0.4983150000000 1.0
C      1  0.5399620000000  0.5403060000000  0.5556340000000 1.0
C      1  0.4904500000000  0.4707200000000  0.5142000000000 1.0
END
