TITL C-2778425-5191-1329 0.00123846582326165 125000 -682.001399454385 0 0 116 (C1) n - 1
REM
REM in /home/nfs/bkarasulu/CARBON/AIRSS/Generating-Clusters/REBO/Only-C1/SD-CG/HFTN-CG
REM
REM
REM
REM
REM
REM ./C.cell (11c1c37f851c82e70ff6c80c92926a4b)
REM
REM compiler GCC version 9.2.1 20190827 (Red Hat 9.2.1-1)
REM options -cpp -mtune=generic -march=x86-64 -g -O0 -fpre-include=/usr/include/finclude/math-vector-fortran.h
REM seed -1124515073 1920381007 1946174738 301597690 -533842728 296304958 -1492876316 -28519463 -484495321 2103319221 1094605834 412203005 1726999893 221586101 163737772 -952681937 -1862418768 -273692275 2126463486 1850324652 -1612043307 -24231462 826229102 975500154 -915606974 -334656813 -23409762 893300738 -1829891394 -1836307766 -303795066 904052904 -2142121400
REM
CELL 1.54180   50.00000   50.00000   50.00000   90.00000   90.00000   90.00000
LATT -1
SFAC C  
C      1  0.5860410000000  0.5056830000000  0.4639650000000 1.0
C      1  0.5046830000000  0.5020680000000  0.4261940000000 1.0
C      1  0.4560450000000  0.5426990000000  0.5267610000000 1.0
C      1  0.5365470000000  0.4308150000000  0.4832400000000 1.0
C      1  0.5813370000000  0.4831340000000  0.5394160000000 1.0
C      1  0.5151650000000  0.5194480000000  0.6001400000000 1.0
C      1  0.5627440000000  0.4437920000000  0.4656840000000 1.0
C      1  0.4902610000000  0.4530850000000  0.5709120000000 1.0
C      1  0.4071890000000  0.5055150000000  0.5156100000000 1.0
C      1  0.4904900000000  0.5187170000000  0.6143610000000 1.0
C      1  0.4457400000000  0.4782500000000  0.4164760000000 1.0
C      1  0.5077630000000  0.4598070000000  0.5182620000000 1.0
C      1  0.5150490000000  0.4961110000000  0.5780510000000 1.0
C      1  0.4678070000000  0.5082660000000  0.6029300000000 1.0
C      1  0.5355910000000  0.5858260000000  0.4625820000000 1.0
C      1  0.5126820000000  0.5781100000000  0.5576320000000 1.0
C      1  0.4518040000000  0.5509210000000  0.4702480000000 1.0
C      1  0.5734110000000  0.5341000000000  0.4787380000000 1.0
C      1  0.5279230000000  0.4513370000000  0.4411680000000 1.0
C      1  0.4613320000000  0.4579390000000  0.5739830000000 1.0
C      1  0.4382670000000  0.5784770000000  0.5124360000000 1.0
C      1  0.5335520000000  0.5201960000000  0.4804160000000 1.0
C      1  0.4702610000000  0.4324430000000  0.4358580000000 1.0
C      1  0.4665500000000  0.5145540000000  0.4624630000000 1.0
C      1  0.4318680000000  0.5310300000000  0.4513040000000 1.0
C      1  0.4598720000000  0.5516360000000  0.5531510000000 1.0
C      1  0.4448190000000  0.5045730000000  0.4377440000000 1.0
C      1  0.4957070000000  0.5224510000000  0.5656310000000 1.0
C      1  0.5043270000000  0.5621380000000  0.4554630000000 1.0
C      1  0.5126640000000  0.4166740000000  0.5480070000000 1.0
C      1  0.5660440000000  0.4859310000000  0.4355220000000 1.0
C      1  0.4234690000000  0.4677560000000  0.5364420000000 1.0
C      1  0.5325240000000  0.5600540000000  0.5674580000000 1.0
C      1  0.4539360000000  0.4450500000000  0.4157050000000 1.0
C      1  0.4365130000000  0.4888950000000  0.5156490000000 1.0
C      1  0.5028180000000  0.5851160000000  0.5322100000000 1.0
C      1  0.5419190000000  0.4951170000000  0.5250310000000 1.0
C      1  0.5413600000000  0.5811280000000  0.4949360000000 1.0
C      1  0.4958760000000  0.4052450000000  0.5042140000000 1.0
C      1  0.4678790000000  0.5202540000000  0.4935830000000 1.0
C      1  0.5640170000000  0.4412670000000  0.4998960000000 1.0
C      1  0.4941380000000  0.5641490000000  0.5102290000000 1.0
C      1  0.4442720000000  0.5783350000000  0.4813150000000 1.0
C      1  0.5403120000000  0.4835240000000  0.4942660000000 1.0
C      1  0.5687390000000  0.5197960000000  0.4384630000000 1.0
C      1  0.5926700000000  0.4404970000000  0.5629510000000 1.0
C      1  0.4688480000000  0.5314370000000  0.5704340000000 1.0
C      1  0.5095720000000  0.4472960000000  0.4924530000000 1.0
C      1  0.5351530000000  0.4792590000000  0.4228700000000 1.0
C      1  0.4683360000000  0.5525210000000  0.5000410000000 1.0
C      1  0.4082250000000  0.5200630000000  0.4710320000000 1.0
C      1  0.4660780000000  0.5938130000000  0.4981380000000 1.0
C      1  0.5398580000000  0.4985830000000  0.5588040000000 1.0
C      1  0.5349710000000  0.4154230000000  0.5294830000000 1.0
C      1  0.5868230000000  0.4884280000000  0.5121610000000 1.0
C      1  0.5417190000000  0.4703450000000  0.4630570000000 1.0
C      1  0.4895670000000  0.4064080000000  0.5330270000000 1.0
C      1  0.4933100000000  0.5006580000000  0.4551220000000 1.0
C      1  0.5095310000000  0.5208550000000  0.5187160000000 1.0
C      1  0.5337000000000  0.4644990000000  0.5287200000000 1.0
C      1  0.4194600000000  0.4583590000000  0.4868100000000 1.0
C      1  0.5466630000000  0.5027780000000  0.4587000000000 1.0
C      1  0.5126430000000  0.4935180000000  0.4773680000000 1.0
C      1  0.4191590000000  0.4466890000000  0.5143660000000 1.0
C      1  0.4968050000000  0.4646280000000  0.4718640000000 1.0
C      1  0.4638690000000  0.4977950000000  0.5721300000000 1.0
C      1  0.4365740000000  0.5181290000000  0.4886070000000 1.0
C      1  0.4149070000000  0.4990890000000  0.5481400000000 1.0
C      1  0.4742080000000  0.4668960000000  0.4014680000000 1.0
C      1  0.5153540000000  0.4288520000000  0.4494310000000 1.0
C      1  0.5245600000000  0.5478330000000  0.4687980000000 1.0
C      1  0.5652220000000  0.5287610000000  0.5362200000000 1.0
C      1  0.5720410000000  0.4551130000000  0.5508210000000 1.0
C      1  0.5120820000000  0.5317810000000  0.4195990000000 1.0
C      1  0.4443260000000  0.4459350000000  0.4750550000000 1.0
C      1  0.4349130000000  0.4219870000000  0.5130430000000 1.0
C      1  0.5146050000000  0.4395970000000  0.5652640000000 1.0
C      1  0.5408640000000  0.5128320000000  0.4204420000000 1.0
C      1  0.4200920000000  0.5322330000000  0.5405940000000 1.0
C      1  0.4911740000000  0.5491010000000  0.4338230000000 1.0
C      1  0.5518650000000  0.5534430000000  0.5478530000000 1.0
C      1  0.4477280000000  0.4866070000000  0.4858440000000 1.0
C      1  0.4653600000000  0.4661260000000  0.4731610000000 1.0
C      1  0.4145440000000  0.4872330000000  0.4771670000000 1.0
C      1  0.5544370000000  0.5541640000000  0.4779630000000 1.0
C      1  0.4712190000000  0.4838190000000  0.4375670000000 1.0
C      1  0.5813860000000  0.4721050000000  0.4610220000000 1.0
C      1  0.4443680000000  0.5160170000000  0.5275890000000 1.0
C      1  0.4637290000000  0.5400710000000  0.4411910000000 1.0
C      1  0.5693820000000  0.5051750000000  0.5521250000000 1.0
C      1  0.4884920000000  0.4574570000000  0.4418890000000 1.0
C      1  0.5151710000000  0.5459220000000  0.5079700000000 1.0
C      1  0.4933050000000  0.5997630000000  0.4881280000000 1.0
C      1  0.4196500000000  0.5584630000000  0.5222230000000 1.0
C      1  0.4886190000000  0.4200790000000  0.4562490000000 1.0
C      1  0.4891450000000  0.4834120000000  0.5608740000000 1.0
C      1  0.4871520000000  0.5047490000000  0.5120030000000 1.0
C      1  0.5415300000000  0.5462990000000  0.4277400000000 1.0
C      1  0.5153810000000  0.5976100000000  0.5073270000000 1.0
C      1  0.5707200000000  0.4716380000000  0.4927250000000 1.0
C      1  0.5025620000000  0.4721830000000  0.4156240000000 1.0
C      1  0.5478350000000  0.5230810000000  0.5074090000000 1.0
C      1  0.5452960000000  0.5687680000000  0.4418040000000 1.0
C      1  0.5173360000000  0.5188450000000  0.5456800000000 1.0
C      1  0.4521980000000  0.4213920000000  0.4892220000000 1.0
C      1  0.5414550000000  0.4510960000000  0.5653130000000 1.0
C      1  0.5273190000000  0.5432630000000  0.5900380000000 1.0
C      1  0.4888240000000  0.4803370000000  0.5279420000000 1.0
C      1  0.5535060000000  0.4399950000000  0.5288440000000 1.0
C      1  0.5443140000000  0.5560260000000  0.5163280000000 1.0
C      1  0.4386220000000  0.4803910000000  0.5638690000000 1.0
C      1  0.4786420000000  0.4122660000000  0.4824810000000 1.0
C      1  0.4102200000000  0.5347180000000  0.5019210000000 1.0
C      1  0.5245130000000  0.4098870000000  0.5029830000000 1.0
C      1  0.5907320000000  0.5123310000000  0.4964870000000 1.0
C      1  0.5042560000000  0.5918610000000  0.4621470000000 1.0
END
