TITL C-2778430-5657-392 0.00711639267518363 125000 -570.234995197797 0 0 98 (C1) n - 1
REM
REM in /home/nfs/bkarasulu/CARBON/AIRSS/Generating-Clusters/REBO/Only-C1/SD-CG/HFTN-CG
REM
REM
REM
REM
REM
REM ./C.cell (11c1c37f851c82e70ff6c80c92926a4b)
REM
REM compiler GCC version 9.2.1 20190827 (Red Hat 9.2.1-1)
REM options -cpp -mtune=generic -march=x86-64 -g -O0 -fpre-include=/usr/include/finclude/math-vector-fortran.h
REM seed 1898371853 467760500 -619114508 1476377048 -1456185619 1033426161 326099680 1436395501 -60725911 2069930703 732943589 -330483008 -1032679569 -742394589 1066375447 -327701982 487480513 2070702501 485989731 391202255 -2117430419 -422247788 -470765501 773337921 -507092299 -1892075407 -327372974 1241963446 -669932354 584839277 -792453090 -81049059 1270698641
REM
CELL 1.54180   50.00000   50.00000   50.00000   90.00000   90.00000   90.00000
LATT -1
SFAC C  
C      1  0.4835330000000  0.5762790000000  0.4818780000000 1.0
C      1  0.4404690000000  0.5557710000000  0.5081580000000 1.0
C      1  0.4819090000000  0.5027210000000  0.5125680000000 1.0
C      1  0.5350300000000  0.5052750000000  0.5743810000000 1.0
C      1  0.5355330000000  0.4409500000000  0.5381360000000 1.0
C      1  0.5358690000000  0.4771590000000  0.5734930000000 1.0
C      1  0.5138980000000  0.4547390000000  0.5163120000000 1.0
C      1  0.4840800000000  0.4577190000000  0.5742510000000 1.0
C      1  0.4958180000000  0.5638600000000  0.5573300000000 1.0
C      1  0.4784670000000  0.4423190000000  0.5501600000000 1.0
C      1  0.4747790000000  0.4851820000000  0.4855940000000 1.0
C      1  0.5209210000000  0.5747150000000  0.5282480000000 1.0
C      1  0.4321250000000  0.4794390000000  0.5706950000000 1.0
C      1  0.5166010000000  0.4690340000000  0.4142350000000 1.0
C      1  0.5115960000000  0.4635040000000  0.5794480000000 1.0
C      1  0.5655120000000  0.5254600000000  0.4357810000000 1.0
C      1  0.5283380000000  0.5024100000000  0.4846730000000 1.0
C      1  0.5193860000000  0.5729180000000  0.4509940000000 1.0
C      1  0.4731670000000  0.5100550000000  0.5637090000000 1.0
C      1  0.4986960000000  0.4541860000000  0.4794700000000 1.0
C      1  0.5676420000000  0.4957660000000  0.5534900000000 1.0
C      1  0.5115040000000  0.5765460000000  0.4772530000000 1.0
C      1  0.4364470000000  0.5014190000000  0.5460600000000 1.0
C      1  0.5108710000000  0.5432030000000  0.5237520000000 1.0
C      1  0.4482860000000  0.5064660000000  0.5836920000000 1.0
C      1  0.5007380000000  0.4951890000000  0.5573570000000 1.0
C      1  0.4824200000000  0.5359860000000  0.4731650000000 1.0
C      1  0.5252590000000  0.5253290000000  0.5483870000000 1.0
C      1  0.4678910000000  0.5276070000000  0.5007970000000 1.0
C      1  0.5222770000000  0.4729200000000  0.4686180000000 1.0
C      1  0.4889230000000  0.5831000000000  0.5322060000000 1.0
C      1  0.4714750000000  0.5409510000000  0.5552010000000 1.0
C      1  0.4811440000000  0.4307110000000  0.4720990000000 1.0
C      1  0.5199610000000  0.5443360000000  0.4384660000000 1.0
C      1  0.4861000000000  0.4198400000000  0.5329890000000 1.0
C      1  0.4458010000000  0.5283870000000  0.4381370000000 1.0
C      1  0.4293000000000  0.5238490000000  0.4655130000000 1.0
C      1  0.4658770000000  0.4620710000000  0.5307850000000 1.0
C      1  0.4539760000000  0.4720370000000  0.4681370000000 1.0
C      1  0.5215070000000  0.5007210000000  0.4110090000000 1.0
C      1  0.4319930000000  0.5369400000000  0.5286820000000 1.0
C      1  0.4661550000000  0.4915710000000  0.5377450000000 1.0
C      1  0.5454120000000  0.5372130000000  0.4221370000000 1.0
C      1  0.4850780000000  0.4657310000000  0.4167860000000 1.0
C      1  0.5466900000000  0.5154040000000  0.5067200000000 1.0
C      1  0.5571640000000  0.4327050000000  0.4952170000000 1.0
C      1  0.5671430000000  0.5332590000000  0.4658310000000 1.0
C      1  0.4218910000000  0.5060990000000  0.5179730000000 1.0
C      1  0.5713770000000  0.5250240000000  0.5540180000000 1.0
C      1  0.5328090000000  0.5700830000000  0.4975300000000 1.0
C      1  0.5225250000000  0.4340630000000  0.4555210000000 1.0
C      1  0.5060650000000  0.4912620000000  0.5293030000000 1.0
C      1  0.4819480000000  0.4060130000000  0.4875980000000 1.0
C      1  0.5466870000000  0.4547530000000  0.4531360000000 1.0
C      1  0.4994750000000  0.5438540000000  0.5835180000000 1.0
C      1  0.4957160000000  0.5140610000000  0.4089030000000 1.0
C      1  0.5196720000000  0.5264570000000  0.4625990000000 1.0
C      1  0.5783620000000  0.5018340000000  0.4563730000000 1.0
C      1  0.4745250000000  0.4944510000000  0.4087550000000 1.0
C      1  0.4668710000000  0.4118240000000  0.5124060000000 1.0
C      1  0.5272330000000  0.4859610000000  0.4391590000000 1.0
C      1  0.4400410000000  0.5170270000000  0.4950670000000 1.0
C      1  0.5352160000000  0.4785330000000  0.5159930000000 1.0
C      1  0.4797570000000  0.5448230000000  0.5253500000000 1.0
C      1  0.4708700000000  0.5428190000000  0.4440090000000 1.0
C      1  0.4937300000000  0.5377620000000  0.4243730000000 1.0
C      1  0.5578020000000  0.5476530000000  0.5426830000000 1.0
C      1  0.5293090000000  0.5573690000000  0.5561410000000 1.0
C      1  0.5735660000000  0.5177520000000  0.5020360000000 1.0
C      1  0.4684830000000  0.5708640000000  0.4595570000000 1.0
C      1  0.5815560000000  0.4960030000000  0.4875920000000 1.0
C      1  0.5288830000000  0.4250140000000  0.4876780000000 1.0
C      1  0.5073580000000  0.5169600000000  0.5830350000000 1.0
C      1  0.4700800000000  0.4572200000000  0.4444290000000 1.0
C      1  0.4300190000000  0.4897510000000  0.4630440000000 1.0
C      1  0.5559000000000  0.4638570000000  0.5529230000000 1.0
C      1  0.5637490000000  0.4484940000000  0.5240050000000 1.0
C      1  0.4449850000000  0.4315000000000  0.5028520000000 1.0
C      1  0.5100850000000  0.5374730000000  0.4933460000000 1.0
C      1  0.4398840000000  0.5313830000000  0.5612870000000 1.0
C      1  0.4283810000000  0.5529950000000  0.4830300000000 1.0
C      1  0.4531650000000  0.4407460000000  0.4759850000000 1.0
C      1  0.5572850000000  0.5497700000000  0.4845910000000 1.0
C      1  0.5709570000000  0.4517790000000  0.4738230000000 1.0
C      1  0.5429500000000  0.5041810000000  0.5352310000000 1.0
C      1  0.4956990000000  0.5051620000000  0.4751040000000 1.0
C      1  0.5001250000000  0.4441270000000  0.4398570000000 1.0
C      1  0.4388440000000  0.4536440000000  0.5202200000000 1.0
C      1  0.4497620000000  0.5035710000000  0.4162290000000 1.0
C      1  0.4204720000000  0.4737620000000  0.5184930000000 1.0
C      1  0.5743080000000  0.4728140000000  0.4477750000000 1.0
C      1  0.4627070000000  0.4750260000000  0.5821600000000 1.0
C      1  0.5150460000000  0.4221100000000  0.5187660000000 1.0
C      1  0.4859430000000  0.4634410000000  0.5078410000000 1.0
C      1  0.5644580000000  0.4714320000000  0.4996760000000 1.0
C      1  0.4696420000000  0.5718790000000  0.5091420000000 1.0
C      1  0.5561680000000  0.5531790000000  0.5157820000000 1.0
C      1  0.4249000000000  0.4994340000000  0.4343610000000 1.0
END
