TITL C-2778436-5916-616 0.00215698337470509 125000 -706.500012070538 0 0 122 (C1) n - 1
REM
REM in /home/nfs/bkarasulu/CARBON/AIRSS/Generating-Clusters/REBO/Only-C1/SD-CG/HFTN-CG
REM
REM
REM
REM
REM
REM ./C.cell (11c1c37f851c82e70ff6c80c92926a4b)
REM
REM compiler GCC version 9.2.1 20190827 (Red Hat 9.2.1-1)
REM options -cpp -mtune=generic -march=x86-64 -g -O0 -fpre-include=/usr/include/finclude/math-vector-fortran.h
REM seed -575552206 1706445001 -103696550 1348297114 -194820658 1199822776 -558997238 -142681235 2005087151 742250639 1840245820 -830944830 -503000092 -631276440 472983345 -1197598230 1023366234 1484144239 -298858412 1070173463 1373188082 -454536129 -43652227 -1545139145 -1480119175 1381218115 -1868852156 388274958 -985022833 1884427082 1596705435 -741643171 1618263395
REM
CELL 1.54180   50.00000   50.00000   50.00000   90.00000   90.00000   90.00000
LATT -1
SFAC C  
C      1  0.4238310000000  0.4993630000000  0.4557090000000 1.0
C      1  0.5346630000000  0.5630610000000  0.5391760000000 1.0
C      1  0.4921810000000  0.4033100000000  0.5066900000000 1.0
C      1  0.4848360000000  0.5604200000000  0.4894120000000 1.0
C      1  0.4875540000000  0.5474680000000  0.4604150000000 1.0
C      1  0.4481570000000  0.4329380000000  0.5134960000000 1.0
C      1  0.5245430000000  0.5250420000000  0.4088880000000 1.0
C      1  0.4813890000000  0.4769550000000  0.4149080000000 1.0
C      1  0.5095720000000  0.5631490000000  0.5702380000000 1.0
C      1  0.4587390000000  0.6034000000000  0.4992630000000 1.0
C      1  0.4962500000000  0.5291300000000  0.5476670000000 1.0
C      1  0.4325890000000  0.5275850000000  0.5739580000000 1.0
C      1  0.5863350000000  0.5152760000000  0.4806630000000 1.0
C      1  0.4683160000000  0.5376730000000  0.5077850000000 1.0
C      1  0.5299470000000  0.4564540000000  0.4638280000000 1.0
C      1  0.5616000000000  0.5714690000000  0.5244240000000 1.0
C      1  0.4634820000000  0.4761640000000  0.5770690000000 1.0
C      1  0.4278770000000  0.5432590000000  0.4715560000000 1.0
C      1  0.4938490000000  0.5147440000000  0.4142720000000 1.0
C      1  0.5535720000000  0.5503190000000  0.4542730000000 1.0
C      1  0.5480170000000  0.5330000000000  0.4244110000000 1.0
C      1  0.5974390000000  0.5112100000000  0.5560150000000 1.0
C      1  0.4208610000000  0.5212550000000  0.5245440000000 1.0
C      1  0.4616990000000  0.4599990000000  0.5218850000000 1.0
C      1  0.4356290000000  0.5141030000000  0.4305310000000 1.0
C      1  0.5476240000000  0.5000470000000  0.5926520000000 1.0
C      1  0.5660680000000  0.5566520000000  0.5007680000000 1.0
C      1  0.4829080000000  0.4788050000000  0.5391620000000 1.0
C      1  0.4494610000000  0.5065850000000  0.5752620000000 1.0
C      1  0.5049990000000  0.5093250000000  0.5721090000000 1.0
C      1  0.4898150000000  0.5473740000000  0.4206760000000 1.0
C      1  0.5699430000000  0.5312500000000  0.5565570000000 1.0
C      1  0.4445380000000  0.5086170000000  0.5331760000000 1.0
C      1  0.5140490000000  0.4342640000000  0.5760680000000 1.0
C      1  0.4669680000000  0.5773810000000  0.5990930000000 1.0
C      1  0.5116810000000  0.4381440000000  0.5043270000000 1.0
C      1  0.5036540000000  0.5195630000000  0.4718150000000 1.0
C      1  0.4178830000000  0.5154360000000  0.4087380000000 1.0
C      1  0.4650450000000  0.4354720000000  0.4247090000000 1.0
C      1  0.4119190000000  0.4760680000000  0.5095460000000 1.0
C      1  0.5138730000000  0.5590800000000  0.4984030000000 1.0
C      1  0.5642960000000  0.4207710000000  0.4500090000000 1.0
C      1  0.4710120000000  0.5250170000000  0.4771470000000 1.0
C      1  0.5272850000000  0.4341790000000  0.4178240000000 1.0
C      1  0.4981070000000  0.5964550000000  0.5005480000000 1.0
C      1  0.5431340000000  0.5608260000000  0.4809870000000 1.0
C      1  0.5612890000000  0.4922960000000  0.5403400000000 1.0
C      1  0.5124060000000  0.4728280000000  0.5549980000000 1.0
C      1  0.5159420000000  0.5407740000000  0.5271440000000 1.0
C      1  0.4386770000000  0.4851850000000  0.4813330000000 1.0
C      1  0.4766910000000  0.4333910000000  0.5475230000000 1.0
C      1  0.4886400000000  0.4546750000000  0.5703820000000 1.0
C      1  0.4155190000000  0.4421790000000  0.5105300000000 1.0
C      1  0.4539950000000  0.5489770000000  0.5306710000000 1.0
C      1  0.4577840000000  0.5764120000000  0.4933450000000 1.0
C      1  0.4150210000000  0.5175210000000  0.4779250000000 1.0
C      1  0.4968400000000  0.5910790000000  0.5269090000000 1.0
C      1  0.4680050000000  0.4116950000000  0.5240180000000 1.0
C      1  0.4594830000000  0.4356660000000  0.4512900000000 1.0
C      1  0.5183280000000  0.4029400000000  0.4635880000000 1.0
C      1  0.5438300000000  0.5183750000000  0.5651340000000 1.0
C      1  0.5249370000000  0.5426940000000  0.5799570000000 1.0
C      1  0.4219350000000  0.5535430000000  0.5220560000000 1.0
C      1  0.5075280000000  0.4934890000000  0.5212280000000 1.0
C      1  0.5332680000000  0.5246030000000  0.6029950000000 1.0
C      1  0.5480960000000  0.4118000000000  0.4754690000000 1.0
C      1  0.5820240000000  0.5329140000000  0.5035990000000 1.0
C      1  0.5316900000000  0.4349580000000  0.4854790000000 1.0
C      1  0.4295370000000  0.4209430000000  0.4882640000000 1.0
C      1  0.5222340000000  0.5748590000000  0.4581400000000 1.0
C      1  0.5402020000000  0.4619310000000  0.5644540000000 1.0
C      1  0.5050720000000  0.4536780000000  0.4161250000000 1.0
C      1  0.4889680000000  0.4804620000000  0.4954520000000 1.0
C      1  0.5301160000000  0.4992620000000  0.5427220000000 1.0
C      1  0.5643030000000  0.5221030000000  0.4592410000000 1.0
C      1  0.5105140000000  0.5645020000000  0.4280760000000 1.0
C      1  0.5002710000000  0.5796530000000  0.5510360000000 1.0
C      1  0.5626460000000  0.5059860000000  0.4323490000000 1.0
C      1  0.4337830000000  0.5609360000000  0.4932190000000 1.0
C      1  0.4712530000000  0.5059300000000  0.5510960000000 1.0
C      1  0.4264490000000  0.4670870000000  0.5390360000000 1.0
C      1  0.5346890000000  0.4126480000000  0.4380580000000 1.0
C      1  0.4630270000000  0.5034240000000  0.4233830000000 1.0
C      1  0.4208840000000  0.4589910000000  0.4812220000000 1.0
C      1  0.5246580000000  0.5277270000000  0.4966810000000 1.0
C      1  0.5819930000000  0.4795190000000  0.4723400000000 1.0
C      1  0.5629100000000  0.5603420000000  0.5542020000000 1.0
C      1  0.5882080000000  0.5242550000000  0.5288810000000 1.0
C      1  0.5721150000000  0.4608080000000  0.4929290000000 1.0
C      1  0.5702420000000  0.4766950000000  0.4451430000000 1.0
C      1  0.4914900000000  0.4920950000000  0.5837570000000 1.0
C      1  0.5050600000000  0.4235120000000  0.5311680000000 1.0
C      1  0.5421750000000  0.5657040000000  0.4284610000000 1.0
C      1  0.6102550000000  0.4945130000000  0.4760600000000 1.0
C      1  0.4332410000000  0.4358300000000  0.4618230000000 1.0
C      1  0.5725680000000  0.4699860000000  0.5425560000000 1.0
C      1  0.4655840000000  0.5519110000000  0.4380590000000 1.0
C      1  0.4405840000000  0.5416300000000  0.4451650000000 1.0
C      1  0.4897990000000  0.4515020000000  0.4918190000000 1.0
C      1  0.5014650000000  0.4646270000000  0.4469980000000 1.0
C      1  0.5503630000000  0.4729310000000  0.5871120000000 1.0
C      1  0.5470100000000  0.5099100000000  0.4838240000000 1.0
C      1  0.4734030000000  0.5496040000000  0.5547460000000 1.0
C      1  0.4701670000000  0.5635730000000  0.5770490000000 1.0
C      1  0.5045470000000  0.5924890000000  0.4745180000000 1.0
C      1  0.4297410000000  0.5460210000000  0.5544670000000 1.0
C      1  0.5104670000000  0.4912350000000  0.4634990000000 1.0
C      1  0.4783750000000  0.5081430000000  0.5121490000000 1.0
C      1  0.5502850000000  0.4494230000000  0.4379380000000 1.0
C      1  0.4525770000000  0.4569790000000  0.5538090000000 1.0
C      1  0.5540150000000  0.4414700000000  0.5423750000000 1.0
C      1  0.5140600000000  0.4869540000000  0.4142800000000 1.0
C      1  0.4746300000000  0.4838550000000  0.4476500000000 1.0
C      1  0.5366820000000  0.4848220000000  0.4763980000000 1.0
C      1  0.5631470000000  0.4470340000000  0.5113650000000 1.0
C      1  0.4525630000000  0.4870810000000  0.5103990000000 1.0
C      1  0.4686700000000  0.4938430000000  0.4745890000000 1.0
C      1  0.4097630000000  0.5061480000000  0.5036470000000 1.0
C      1  0.5269430000000  0.4264670000000  0.5518710000000 1.0
C      1  0.4800300000000  0.4336610000000  0.4714600000000 1.0
C      1  0.4942290000000  0.4082330000000  0.4782860000000 1.0
C      1  0.5429250000000  0.4810210000000  0.4240930000000 1.0
END
