TITL C-2778431-5191-1285 0.00411333954819034 125000 -695.221577965018 0 0 122 (C1) n - 1
REM
REM in /home/nfs/bkarasulu/CARBON/AIRSS/Generating-Clusters/REBO/Only-C1/SD-CG/HFTN-CG
REM
REM
REM
REM
REM
REM ./C.cell (11c1c37f851c82e70ff6c80c92926a4b)
REM
REM compiler GCC version 9.2.1 20190827 (Red Hat 9.2.1-1)
REM options -cpp -mtune=generic -march=x86-64 -g -O0 -fpre-include=/usr/include/finclude/math-vector-fortran.h
REM seed -1070942602 -1062384912 1321237147 1224625863 801006396 995271324 1610207835 -507640759 -1346029383 -371209570 1609597170 1304125466 941256857 1819723932 859603827 -1757183260 844208383 -1557578111 -39903579 -410590571 -815631954 1696695937 1668724737 1759305671 807050163 365830163 -329999202 1250980259 550194671 44953778 1323826096 -302149556 -486495063
REM
CELL 1.54180   50.00000   50.00000   50.00000   90.00000   90.00000   90.00000
LATT -1
SFAC C  
C      1  0.4352820000000  0.5143140000000  0.4605670000000 1.0
C      1  0.5167130000000  0.4426540000000  0.5006110000000 1.0
C      1  0.5364230000000  0.5090380000000  0.4772720000000 1.0
C      1  0.4668350000000  0.4221280000000  0.4381660000000 1.0
C      1  0.4394220000000  0.5447010000000  0.5519140000000 1.0
C      1  0.5105360000000  0.5470620000000  0.4130930000000 1.0
C      1  0.5096990000000  0.5732730000000  0.5388990000000 1.0
C      1  0.5830540000000  0.4612500000000  0.4636070000000 1.0
C      1  0.5135140000000  0.5536370000000  0.5739630000000 1.0
C      1  0.4143610000000  0.5170740000000  0.4941250000000 1.0
C      1  0.4383780000000  0.4401960000000  0.4427750000000 1.0
C      1  0.5242800000000  0.5773490000000  0.5020150000000 1.0
C      1  0.5674470000000  0.5502210000000  0.4670830000000 1.0
C      1  0.4734490000000  0.5451060000000  0.5741880000000 1.0
C      1  0.5000800000000  0.4540290000000  0.6002540000000 1.0
C      1  0.4626090000000  0.5844320000000  0.5243860000000 1.0
C      1  0.5195470000000  0.4652170000000  0.4645330000000 1.0
C      1  0.4864500000000  0.5529620000000  0.5285780000000 1.0
C      1  0.5110380000000  0.4841960000000  0.5493700000000 1.0
C      1  0.5162390000000  0.4979880000000  0.4994380000000 1.0
C      1  0.4313500000000  0.4773280000000  0.4476350000000 1.0
C      1  0.4801490000000  0.5258540000000  0.4533570000000 1.0
C      1  0.4470840000000  0.5325120000000  0.5225610000000 1.0
C      1  0.4680970000000  0.5591700000000  0.5013920000000 1.0
C      1  0.5501170000000  0.4323310000000  0.5256450000000 1.0
C      1  0.4973340000000  0.4705130000000  0.4970040000000 1.0
C      1  0.5336190000000  0.4969210000000  0.4086750000000 1.0
C      1  0.4960650000000  0.4204130000000  0.5498150000000 1.0
C      1  0.4647890000000  0.5379140000000  0.4783970000000 1.0
C      1  0.4300470000000  0.5468430000000  0.5011500000000 1.0
C      1  0.4727760000000  0.5699090000000  0.4559720000000 1.0
C      1  0.4240750000000  0.4612030000000  0.5061440000000 1.0
C      1  0.5049520000000  0.4826820000000  0.6094580000000 1.0
C      1  0.4643620000000  0.4226360000000  0.5424110000000 1.0
C      1  0.5474550000000  0.4934140000000  0.5123140000000 1.0
C      1  0.4483980000000  0.4203210000000  0.4675610000000 1.0
C      1  0.5776720000000  0.4798750000000  0.5370930000000 1.0
C      1  0.4674130000000  0.4427330000000  0.4849100000000 1.0
C      1  0.5007240000000  0.5224690000000  0.5524940000000 1.0
C      1  0.4227520000000  0.4875970000000  0.4786820000000 1.0
C      1  0.5879740000000  0.5348190000000  0.4842730000000 1.0
C      1  0.4670050000000  0.5271930000000  0.4044850000000 1.0
C      1  0.5242590000000  0.5004300000000  0.4465520000000 1.0
C      1  0.4933340000000  0.4939470000000  0.5218620000000 1.0
C      1  0.5730190000000  0.5788940000000  0.4941480000000 1.0
C      1  0.4992720000000  0.4316190000000  0.4329330000000 1.0
C      1  0.5325850000000  0.4386210000000  0.4409580000000 1.0
C      1  0.5420880000000  0.4695940000000  0.4279180000000 1.0
C      1  0.5767080000000  0.4662660000000  0.5120660000000 1.0
C      1  0.5395970000000  0.5040280000000  0.5822320000000 1.0
C      1  0.5008130000000  0.5328090000000  0.5910770000000 1.0
C      1  0.4562630000000  0.5025830000000  0.4126510000000 1.0
C      1  0.4536670000000  0.5188600000000  0.5644870000000 1.0
C      1  0.5393200000000  0.5641280000000  0.5297320000000 1.0
C      1  0.5920450000000  0.5054320000000  0.4731250000000 1.0
C      1  0.4756850000000  0.4699710000000  0.5521030000000 1.0
C      1  0.4946930000000  0.5892690000000  0.5141070000000 1.0
C      1  0.4903590000000  0.5731880000000  0.5643910000000 1.0
C      1  0.5144180000000  0.4543460000000  0.4163920000000 1.0
C      1  0.5165390000000  0.5735390000000  0.4194590000000 1.0
C      1  0.4535230000000  0.5102800000000  0.4899640000000 1.0
C      1  0.5318770000000  0.4504280000000  0.5475480000000 1.0
C      1  0.4150000000000  0.4920810000000  0.5174600000000 1.0
C      1  0.4825170000000  0.5070680000000  0.5666440000000 1.0
C      1  0.4885590000000  0.4693580000000  0.4641090000000 1.0
C      1  0.4402210000000  0.5787540000000  0.5001200000000 1.0
C      1  0.4994510000000  0.5606520000000  0.4573370000000 1.0
C      1  0.4706180000000  0.4964350000000  0.4652270000000 1.0
C      1  0.4220820000000  0.5179920000000  0.5384070000000 1.0
C      1  0.5578140000000  0.4972290000000  0.4401370000000 1.0
C      1  0.4857560000000  0.5372660000000  0.4228760000000 1.0
C      1  0.4527200000000  0.4716040000000  0.4807340000000 1.0
C      1  0.5007060000000  0.4568160000000  0.5341410000000 1.0
C      1  0.5649840000000  0.4627070000000  0.4861320000000 1.0
C      1  0.4408320000000  0.4436400000000  0.5289210000000 1.0
C      1  0.5063440000000  0.4123410000000  0.4769680000000 1.0
C      1  0.5370790000000  0.5499500000000  0.5583560000000 1.0
C      1  0.4852160000000  0.4881870000000  0.5864030000000 1.0
C      1  0.4221970000000  0.5406990000000  0.4699720000000 1.0
C      1  0.5739600000000  0.5043160000000  0.5002030000000 1.0
C      1  0.5371930000000  0.4768290000000  0.5683150000000 1.0
C      1  0.5426690000000  0.5179230000000  0.5322650000000 1.0
C      1  0.5155250000000  0.5522060000000  0.4842390000000 1.0
C      1  0.4338030000000  0.5031410000000  0.4299720000000 1.0
C      1  0.5166470000000  0.5096810000000  0.5985030000000 1.0
C      1  0.4867260000000  0.4294960000000  0.4626980000000 1.0
C      1  0.5420270000000  0.5371820000000  0.4829730000000 1.0
C      1  0.5336920000000  0.4292180000000  0.4738240000000 1.0
C      1  0.4597320000000  0.5697840000000  0.5533810000000 1.0
C      1  0.5664360000000  0.4669150000000  0.5586360000000 1.0
C      1  0.5596680000000  0.5536680000000  0.5070220000000 1.0
C      1  0.4509850000000  0.4921330000000  0.5472770000000 1.0
C      1  0.5532550000000  0.4267510000000  0.5014500000000 1.0
C      1  0.4334710000000  0.4700580000000  0.5580390000000 1.0
C      1  0.4753520000000  0.4837280000000  0.4217810000000 1.0
C      1  0.4475020000000  0.4436520000000  0.5626210000000 1.0
C      1  0.5814890000000  0.5325680000000  0.5168790000000 1.0
C      1  0.5745620000000  0.5103850000000  0.5396460000000 1.0
C      1  0.5842680000000  0.4878210000000  0.4530240000000 1.0
C      1  0.5274170000000  0.5791350000000  0.4507970000000 1.0
C      1  0.5054340000000  0.4843640000000  0.4230390000000 1.0
C      1  0.4479640000000  0.4936300000000  0.5135810000000 1.0
C      1  0.5536150000000  0.5230990000000  0.5632760000000 1.0
C      1  0.5620190000000  0.5309990000000  0.4394290000000 1.0
C      1  0.5007330000000  0.4344600000000  0.5737540000000 1.0
C      1  0.5115790000000  0.5286930000000  0.4521590000000 1.0
C      1  0.5118740000000  0.4197150000000  0.5259490000000 1.0
C      1  0.4958800000000  0.4086870000000  0.5027650000000 1.0
C      1  0.5306390000000  0.4664490000000  0.5186330000000 1.0
C      1  0.4733930000000  0.4524690000000  0.5798390000000 1.0
C      1  0.4641750000000  0.4659870000000  0.5202710000000 1.0
C      1  0.5001820000000  0.5354410000000  0.5029860000000 1.0
C      1  0.4454350000000  0.5651420000000  0.4692700000000 1.0
C      1  0.5154740000000  0.5260470000000  0.5304550000000 1.0
C      1  0.4625140000000  0.4644610000000  0.4427380000000 1.0
C      1  0.4768540000000  0.4347890000000  0.5139970000000 1.0
C      1  0.4758070000000  0.5210420000000  0.5213380000000 1.0
C      1  0.5350610000000  0.5484160000000  0.4442890000000 1.0
C      1  0.5410330000000  0.4765990000000  0.4767520000000 1.0
C      1  0.5366770000000  0.5265680000000  0.4168430000000 1.0
C      1  0.5464230000000  0.5761800000000  0.4759450000000 1.0
C      1  0.4291270000000  0.4476790000000  0.4752340000000 1.0
END
