TITL C-2778430-5657-234 0.000660627197056077 125000 -470.250967806022 0 0 82 (C1) n - 1
REM
REM in /home/nfs/bkarasulu/CARBON/AIRSS/Generating-Clusters/REBO/Only-C1/SD-CG/HFTN-CG
REM
REM
REM
REM
REM
REM ./C.cell (11c1c37f851c82e70ff6c80c92926a4b)
REM
REM compiler GCC version 9.2.1 20190827 (Red Hat 9.2.1-1)
REM options -cpp -mtune=generic -march=x86-64 -g -O0 -fpre-include=/usr/include/finclude/math-vector-fortran.h
REM seed 904636755 -300297337 -1199548145 -1256623597 -1681862050 -355235260 -730371401 1029327157 -1248499858 1852383856 1797906486 -2027723834 -1583992726 1046910671 -94308226 455708876 1854738626 -664524707 1850099373 -2114532852 1547345116 -2029304032 303033426 -2092336167 -649527053 -1915890426 -769810123 145792603 -1312394647 -2019282271 1248245112 -965400531 -975532078
REM
CELL 1.54180   50.00000   50.00000   50.00000   90.00000   90.00000   90.00000
LATT -1
SFAC C  
C      1  0.4622000000000  0.5172990000000  0.4836630000000 1.0
C      1  0.4228580000000  0.4896490000000  0.5336380000000 1.0
C      1  0.5002400000000  0.5265820000000  0.4571700000000 1.0
C      1  0.5303190000000  0.5280250000000  0.4110270000000 1.0
C      1  0.4856140000000  0.5609860000000  0.5385480000000 1.0
C      1  0.4165020000000  0.5543980000000  0.5612030000000 1.0
C      1  0.5375960000000  0.5050170000000  0.4690080000000 1.0
C      1  0.5409360000000  0.5156180000000  0.5262930000000 1.0
C      1  0.5189620000000  0.4620620000000  0.4622430000000 1.0
C      1  0.5054530000000  0.4935600000000  0.4652890000000 1.0
C      1  0.4578530000000  0.5668730000000  0.5327590000000 1.0
C      1  0.5229590000000  0.4738670000000  0.5937010000000 1.0
C      1  0.4607650000000  0.4976260000000  0.5274390000000 1.0
C      1  0.4370750000000  0.5207270000000  0.5289900000000 1.0
C      1  0.4499050000000  0.5656090000000  0.5054920000000 1.0
C      1  0.4852360000000  0.4464000000000  0.4476550000000 1.0
C      1  0.5612600000000  0.4989890000000  0.5153600000000 1.0
C      1  0.5353000000000  0.5615710000000  0.4520760000000 1.0
C      1  0.4859120000000  0.4781040000000  0.5507770000000 1.0
C      1  0.5575170000000  0.4685570000000  0.4472100000000 1.0
C      1  0.4644840000000  0.4900860000000  0.4974770000000 1.0
C      1  0.4486080000000  0.5147190000000  0.4565760000000 1.0
C      1  0.4418860000000  0.5343250000000  0.5008580000000 1.0
C      1  0.4496370000000  0.4671770000000  0.5384700000000 1.0
C      1  0.5735360000000  0.4908840000000  0.4592220000000 1.0
C      1  0.4956310000000  0.5606540000000  0.4517270000000 1.0
C      1  0.5220250000000  0.5336990000000  0.5476460000000 1.0
C      1  0.4664360000000  0.4955840000000  0.5693620000000 1.0
C      1  0.5626350000000  0.5476310000000  0.5160830000000 1.0
C      1  0.5121460000000  0.5151240000000  0.5697180000000 1.0
C      1  0.5149130000000  0.5787020000000  0.4701270000000 1.0
C      1  0.5656920000000  0.5030430000000  0.4875820000000 1.0
C      1  0.5296920000000  0.4888120000000  0.5701980000000 1.0
C      1  0.5494860000000  0.5400650000000  0.4918790000000 1.0
C      1  0.4407870000000  0.5446090000000  0.5508000000000 1.0
C      1  0.5573340000000  0.4963620000000  0.5701880000000 1.0
C      1  0.4822960000000  0.5360230000000  0.5511270000000 1.0
C      1  0.4394640000000  0.4465250000000  0.5131040000000 1.0
C      1  0.5124500000000  0.4931840000000  0.4200830000000 1.0
C      1  0.5159350000000  0.5436860000000  0.4320720000000 1.0
C      1  0.4865760000000  0.5006420000000  0.4300390000000 1.0
C      1  0.5208760000000  0.5423810000000  0.4961050000000 1.0
C      1  0.5555990000000  0.4475800000000  0.4683220000000 1.0
C      1  0.5403630000000  0.4810050000000  0.4258310000000 1.0
C      1  0.4681280000000  0.4348030000000  0.5244110000000 1.0
C      1  0.5242860000000  0.4706350000000  0.5449050000000 1.0
C      1  0.5142190000000  0.5636730000000  0.5291390000000 1.0
C      1  0.5644420000000  0.4635950000000  0.4932440000000 1.0
C      1  0.4945180000000  0.4813500000000  0.4952060000000 1.0
C      1  0.4402390000000  0.4980470000000  0.5617530000000 1.0
C      1  0.5083230000000  0.5114650000000  0.5173490000000 1.0
C      1  0.4674550000000  0.5226540000000  0.4348390000000 1.0
C      1  0.5561900000000  0.4425800000000  0.5261650000000 1.0
C      1  0.5043420000000  0.4326740000000  0.4716710000000 1.0
C      1  0.5691100000000  0.4699480000000  0.5233800000000 1.0
C      1  0.5355060000000  0.4768860000000  0.4865380000000 1.0
C      1  0.5147250000000  0.4450390000000  0.4351880000000 1.0
C      1  0.5068090000000  0.4443290000000  0.5513910000000 1.0
C      1  0.4876370000000  0.5097510000000  0.5386020000000 1.0
C      1  0.4334540000000  0.4771430000000  0.5036770000000 1.0
C      1  0.5141740000000  0.5717530000000  0.4977050000000 1.0
C      1  0.4784850000000  0.4781520000000  0.4502760000000 1.0
C      1  0.5351640000000  0.4308340000000  0.4810920000000 1.0
C      1  0.5078250000000  0.4331870000000  0.5208530000000 1.0
C      1  0.4886180000000  0.4618140000000  0.5208160000000 1.0
C      1  0.4564360000000  0.4363780000000  0.4868290000000 1.0
C      1  0.4280640000000  0.4957740000000  0.4564610000000 1.0
C      1  0.4323480000000  0.4736650000000  0.4717290000000 1.0
C      1  0.4522160000000  0.5548790000000  0.4749040000000 1.0
C      1  0.4562740000000  0.4560230000000  0.4627680000000 1.0
C      1  0.4670980000000  0.5496800000000  0.4518020000000 1.0
C      1  0.5223750000000  0.4820130000000  0.5153870000000 1.0
C      1  0.4621150000000  0.5349560000000  0.5742500000000 1.0
C      1  0.4862680000000  0.4279580000000  0.4962130000000 1.0
C      1  0.5608960000000  0.5185430000000  0.4478620000000 1.0
C      1  0.5550100000000  0.5445880000000  0.4640620000000 1.0
C      1  0.4730210000000  0.4479980000000  0.5546530000000 1.0
C      1  0.5485990000000  0.5102390000000  0.4206600000000 1.0
C      1  0.4951340000000  0.5234100000000  0.4897280000000 1.0
C      1  0.5456790000000  0.5544820000000  0.5366510000000 1.0
C      1  0.5357660000000  0.4311560000000  0.5098800000000 1.0
C      1  0.4861030000000  0.5139200000000  0.5838240000000 1.0
END
