TITL C-2778431-5191-913 0.000985889228297181 125000 -450.588162779404 0 0 76 (C1) n - 1
REM
REM in /home/nfs/bkarasulu/CARBON/AIRSS/Generating-Clusters/REBO/Only-C1/SD-CG/HFTN-CG
REM
REM
REM
REM
REM
REM ./C.cell (11c1c37f851c82e70ff6c80c92926a4b)
REM
REM compiler GCC version 9.2.1 20190827 (Red Hat 9.2.1-1)
REM options -cpp -mtune=generic -march=x86-64 -g -O0 -fpre-include=/usr/include/finclude/math-vector-fortran.h
REM seed 2074746392 1775402636 1473402888 514965858 -46941368 -1624849089 1161834425 -412926569 4308808 2052011719 -83433546 1445812018 -1975682155 2117141786 2073636408 1415742071 -425425122 1306613261 616168993 1484547632 746851174 -727343915 2004825492 -2083747297 -1475854630 -1220935345 -70072897 -1643928932 -1934834829 -548517031 -828634297 -1723329099 1596021702
REM
CELL 1.54180   50.00000   50.00000   50.00000   90.00000   90.00000   90.00000
LATT -1
SFAC C  
C      1  0.4881790000000  0.4899600000000  0.5038290000000 1.0
C      1  0.4974850000000  0.5711550000000  0.4643230000000 1.0
C      1  0.5145220000000  0.4508420000000  0.5654340000000 1.0
C      1  0.5511580000000  0.4740820000000  0.4404370000000 1.0
C      1  0.5230000000000  0.5582290000000  0.4678240000000 1.0
C      1  0.4788640000000  0.4897060000000  0.4222960000000 1.0
C      1  0.5330150000000  0.5598190000000  0.4963060000000 1.0
C      1  0.4957380000000  0.4755650000000  0.5782810000000 1.0
C      1  0.5115790000000  0.5801570000000  0.5092730000000 1.0
C      1  0.4507840000000  0.5462920000000  0.4556950000000 1.0
C      1  0.4959590000000  0.5730690000000  0.5373210000000 1.0
C      1  0.4875900000000  0.4258880000000  0.4976450000000 1.0
C      1  0.4627900000000  0.4698770000000  0.4454010000000 1.0
C      1  0.4722980000000  0.4959130000000  0.5642900000000 1.0
C      1  0.4446390000000  0.4613570000000  0.4687600000000 1.0
C      1  0.4715550000000  0.4401700000000  0.5488770000000 1.0
C      1  0.4749500000000  0.5038540000000  0.5313010000000 1.0
C      1  0.5584080000000  0.5592980000000  0.5188840000000 1.0
C      1  0.5340600000000  0.4376770000000  0.4689270000000 1.0
C      1  0.4932700000000  0.5284590000000  0.4964550000000 1.0
C      1  0.4520940000000  0.5560250000000  0.4875780000000 1.0
C      1  0.4520130000000  0.5003290000000  0.4337350000000 1.0
C      1  0.5240050000000  0.4893440000000  0.5667350000000 1.0
C      1  0.4244070000000  0.4995500000000  0.5247770000000 1.0
C      1  0.4897090000000  0.4212550000000  0.4710700000000 1.0
C      1  0.5172420000000  0.5059550000000  0.4962470000000 1.0
C      1  0.5706640000000  0.4950810000000  0.4438040000000 1.0
C      1  0.5562750000000  0.4522310000000  0.4579970000000 1.0
C      1  0.5228580000000  0.4863070000000  0.4443810000000 1.0
C      1  0.5297310000000  0.5676180000000  0.5353570000000 1.0
C      1  0.5108550000000  0.4219940000000  0.5186600000000 1.0
C      1  0.4606250000000  0.4426580000000  0.5213170000000 1.0
C      1  0.5030850000000  0.5027800000000  0.4260290000000 1.0
C      1  0.5116970000000  0.5270890000000  0.5715370000000 1.0
C      1  0.4465820000000  0.5501460000000  0.5346430000000 1.0
C      1  0.4511380000000  0.5231370000000  0.4889060000000 1.0
C      1  0.4966260000000  0.4652920000000  0.4491250000000 1.0
C      1  0.5636960000000  0.4509120000000  0.5071880000000 1.0
C      1  0.4296910000000  0.4502130000000  0.5145100000000 1.0
C      1  0.4846600000000  0.5253300000000  0.5636070000000 1.0
C      1  0.5383230000000  0.5053270000000  0.5211360000000 1.0
C      1  0.4283560000000  0.5083470000000  0.4734340000000 1.0
C      1  0.4198940000000  0.4765560000000  0.5080890000000 1.0
C      1  0.5077350000000  0.4645170000000  0.5268900000000 1.0
C      1  0.5381080000000  0.4314860000000  0.5000590000000 1.0
C      1  0.5323650000000  0.5083200000000  0.4685280000000 1.0
C      1  0.5784210000000  0.4815520000000  0.5020990000000 1.0
C      1  0.4991690000000  0.4322760000000  0.5489020000000 1.0
C      1  0.4258400000000  0.4813450000000  0.4797670000000 1.0
C      1  0.4769540000000  0.5456130000000  0.5093090000000 1.0
C      1  0.4483950000000  0.4417450000000  0.4893670000000 1.0
C      1  0.4643870000000  0.5820170000000  0.4988030000000 1.0
C      1  0.4670700000000  0.4624590000000  0.5665460000000 1.0
C      1  0.5031170000000  0.4869440000000  0.5407170000000 1.0
C      1  0.4882720000000  0.4946150000000  0.4621610000000 1.0
C      1  0.5077840000000  0.4384520000000  0.4580330000000 1.0
C      1  0.5475420000000  0.5303250000000  0.5052440000000 1.0
C      1  0.4854020000000  0.4574890000000  0.5055520000000 1.0
C      1  0.4636560000000  0.5784150000000  0.5277180000000 1.0
C      1  0.5244450000000  0.5343410000000  0.4538590000000 1.0
C      1  0.4785760000000  0.5451100000000  0.5428010000000 1.0
C      1  0.5430680000000  0.4650720000000  0.5535880000000 1.0
C      1  0.5330050000000  0.5144170000000  0.5491170000000 1.0
C      1  0.4904660000000  0.5853950000000  0.4879820000000 1.0
C      1  0.4792980000000  0.5222470000000  0.4695680000000 1.0
C      1  0.5032560000000  0.5295960000000  0.4348170000000 1.0
C      1  0.4814580000000  0.5490230000000  0.4485200000000 1.0
C      1  0.5804890000000  0.5353380000000  0.5085870000000 1.0
C      1  0.5331110000000  0.5466480000000  0.5576330000000 1.0
C      1  0.5763090000000  0.4576520000000  0.4778840000000 1.0
C      1  0.5542660000000  0.4779200000000  0.5253940000000 1.0
C      1  0.4398590000000  0.5204020000000  0.4493930000000 1.0
C      1  0.5319050000000  0.4451530000000  0.5300980000000 1.0
C      1  0.5639970000000  0.5106270000000  0.4672630000000 1.0
C      1  0.5787920000000  0.5095490000000  0.4914080000000 1.0
C      1  0.4494170000000  0.5190990000000  0.5209740000000 1.0
END
