TITL C-2778433-5640-1147 -0.00609138278041632 125000 -1046.92100434199 0 0 180 (C1) n - 1
REM
REM in /home/nfs/bkarasulu/CARBON/AIRSS/Generating-Clusters/REBO/Only-C1/SD-CG/HFTN-CG
REM
REM
REM
REM
REM
REM ./C.cell (11c1c37f851c82e70ff6c80c92926a4b)
REM
REM compiler GCC version 9.2.1 20190827 (Red Hat 9.2.1-1)
REM options -cpp -mtune=generic -march=x86-64 -g -O0 -fpre-include=/usr/include/finclude/math-vector-fortran.h
REM seed -1832345700 1608416760 435605229 -597294974 -2137505913 -1284768559 -1413305300 2013228871 -857385755 -1689942459 -1417155901 -1739982013 1771202171 1116954167 -4508470 2089742945 829362008 1081643150 -1577237143 -2012946592 1001099061 1177817165 1876104844 -1857774763 -2130362073 -1006849829 1311469035 243557435 -1112856 1078727674 -468386968 -1648168459 -2067390185
REM
CELL 1.54180   50.00000   50.00000   50.00000   90.00000   90.00000   90.00000
LATT -1
SFAC C  
C      1  0.5373920000000  0.6055560000000  0.5331570000000 1.0
C      1  0.5752020000000  0.5311330000000  0.4249030000000 1.0
C      1  0.4637670000000  0.5394390000000  0.5845110000000 1.0
C      1  0.4129380000000  0.4222650000000  0.5233600000000 1.0
C      1  0.4795150000000  0.3996480000000  0.5020470000000 1.0
C      1  0.4997860000000  0.5989880000000  0.4869730000000 1.0
C      1  0.4434720000000  0.4617200000000  0.5780240000000 1.0
C      1  0.4692850000000  0.6037960000000  0.5018050000000 1.0
C      1  0.5339320000000  0.4931010000000  0.4835880000000 1.0
C      1  0.5088120000000  0.4708820000000  0.4048860000000 1.0
C      1  0.5469880000000  0.5705260000000  0.5165400000000 1.0
C      1  0.5732330000000  0.5634280000000  0.4708870000000 1.0
C      1  0.4902900000000  0.4628270000000  0.4318990000000 1.0
C      1  0.4414340000000  0.5354490000000  0.4369890000000 1.0
C      1  0.5324720000000  0.4957410000000  0.3990250000000 1.0
C      1  0.5827000000000  0.5385970000000  0.5250400000000 1.0
C      1  0.5003040000000  0.5776400000000  0.5593490000000 1.0
C      1  0.4244180000000  0.4065180000000  0.4990410000000 1.0
C      1  0.5698440000000  0.5298070000000  0.4763700000000 1.0
C      1  0.4618780000000  0.5538680000000  0.5353700000000 1.0
C      1  0.5153820000000  0.4505630000000  0.4600800000000 1.0
C      1  0.4674770000000  0.5362390000000  0.3909460000000 1.0
C      1  0.4446400000000  0.4424190000000  0.4263850000000 1.0
C      1  0.5704270000000  0.4689480000000  0.4307930000000 1.0
C      1  0.4687940000000  0.4279490000000  0.5081540000000 1.0
C      1  0.4538490000000  0.4688270000000  0.4175150000000 1.0
C      1  0.4190500000000  0.4366880000000  0.4734600000000 1.0
C      1  0.4304020000000  0.5184150000000  0.5797180000000 1.0
C      1  0.5402150000000  0.4698750000000  0.4185710000000 1.0
C      1  0.5196100000000  0.5122280000000  0.5227260000000 1.0
C      1  0.4763950000000  0.5666340000000  0.4469460000000 1.0
C      1  0.4999440000000  0.5021600000000  0.3996760000000 1.0
C      1  0.5762960000000  0.5085440000000  0.5195560000000 1.0
C      1  0.4917830000000  0.5576310000000  0.3957330000000 1.0
C      1  0.5930590000000  0.5169450000000  0.5569930000000 1.0
C      1  0.4689300000000  0.4604310000000  0.6007840000000 1.0
C      1  0.4006590000000  0.5413270000000  0.5301000000000 1.0
C      1  0.4235250000000  0.4684960000000  0.5562420000000 1.0
C      1  0.4983580000000  0.5197190000000  0.4250400000000 1.0
C      1  0.5673010000000  0.4412800000000  0.4500450000000 1.0
C      1  0.4696120000000  0.4872100000000  0.4408740000000 1.0
C      1  0.5661800000000  0.4779040000000  0.5077100000000 1.0
C      1  0.5976080000000  0.5539740000000  0.5023150000000 1.0
C      1  0.3948180000000  0.4690690000000  0.5128050000000 1.0
C      1  0.4279520000000  0.5058520000000  0.3998670000000 1.0
C      1  0.5894710000000  0.4704510000000  0.5673290000000 1.0
C      1  0.5648830000000  0.5136080000000  0.5579220000000 1.0
C      1  0.5439680000000  0.5871840000000  0.5527330000000 1.0
C      1  0.5365310000000  0.5621150000000  0.5647520000000 1.0
C      1  0.4407080000000  0.4662830000000  0.5302610000000 1.0
C      1  0.5295640000000  0.5083440000000  0.5864290000000 1.0
C      1  0.5361630000000  0.3985990000000  0.5271850000000 1.0
C      1  0.4476280000000  0.4289270000000  0.5789370000000 1.0
C      1  0.6063720000000  0.5077120000000  0.4927770000000 1.0
C      1  0.5484970000000  0.5234360000000  0.4043320000000 1.0
C      1  0.5575130000000  0.4359610000000  0.5613030000000 1.0
C      1  0.5077110000000  0.4646260000000  0.5151930000000 1.0
C      1  0.4680460000000  0.5017820000000  0.5259430000000 1.0
C      1  0.4700870000000  0.3823120000000  0.4847850000000 1.0
C      1  0.5328350000000  0.5268370000000  0.4622900000000 1.0
C      1  0.3955050000000  0.5114650000000  0.5360650000000 1.0
C      1  0.5676490000000  0.4768170000000  0.5861610000000 1.0
C      1  0.4489180000000  0.5811020000000  0.4590310000000 1.0
C      1  0.4913070000000  0.5341240000000  0.4837770000000 1.0
C      1  0.4665980000000  0.4059600000000  0.5652840000000 1.0
C      1  0.5529910000000  0.5857530000000  0.4866860000000 1.0
C      1  0.5893770000000  0.4732410000000  0.4587790000000 1.0
C      1  0.5047010000000  0.4904070000000  0.5367050000000 1.0
C      1  0.4711940000000  0.5828780000000  0.5485270000000 1.0
C      1  0.5617400000000  0.5018210000000  0.4277060000000 1.0
C      1  0.5177450000000  0.4670260000000  0.6041190000000 1.0
C      1  0.4874590000000  0.5059750000000  0.5603990000000 1.0
C      1  0.4869910000000  0.4345060000000  0.4487820000000 1.0
C      1  0.5410130000000  0.4388960000000  0.5121150000000 1.0
C      1  0.4345350000000  0.5480590000000  0.4882780000000 1.0
C      1  0.5261780000000  0.5918840000000  0.4719720000000 1.0
C      1  0.5540020000000  0.5779920000000  0.4470120000000 1.0
C      1  0.4287580000000  0.5326620000000  0.5424330000000 1.0
C      1  0.4704510000000  0.4829090000000  0.5762890000000 1.0
C      1  0.4834380000000  0.5108550000000  0.4607990000000 1.0
C      1  0.5770680000000  0.4961280000000  0.4809030000000 1.0
C      1  0.4794360000000  0.5721630000000  0.4803670000000 1.0
C      1  0.4165440000000  0.4841080000000  0.4117100000000 1.0
C      1  0.4147670000000  0.4988230000000  0.5579730000000 1.0
C      1  0.6038990000000  0.4911020000000  0.5520710000000 1.0
C      1  0.4947110000000  0.4376040000000  0.5272670000000 1.0
C      1  0.4289120000000  0.5631090000000  0.4400130000000 1.0
C      1  0.5095430000000  0.4375700000000  0.5784610000000 1.0
C      1  0.5155530000000  0.5711320000000  0.5296140000000 1.0
C      1  0.5174060000000  0.6080630000000  0.5149340000000 1.0
C      1  0.4181630000000  0.5709290000000  0.4700200000000 1.0
C      1  0.4550140000000  0.5098990000000  0.5984420000000 1.0
C      1  0.5177330000000  0.5184600000000  0.5624760000000 1.0
C      1  0.4271720000000  0.5171740000000  0.5124150000000 1.0
C      1  0.5697950000000  0.4253090000000  0.5041980000000 1.0
C      1  0.5164300000000  0.4191260000000  0.4992250000000 1.0
C      1  0.4203260000000  0.4715200000000  0.4391070000000 1.0
C      1  0.4937670000000  0.5437990000000  0.5956820000000 1.0
C      1  0.4442170000000  0.5282510000000  0.4064410000000 1.0
C      1  0.5045960000000  0.3956100000000  0.5210830000000 1.0
C      1  0.5438930000000  0.4667760000000  0.5317940000000 1.0
C      1  0.4326240000000  0.5211210000000  0.4667680000000 1.0
C      1  0.4503390000000  0.5048830000000  0.4906130000000 1.0
C      1  0.4706180000000  0.4619810000000  0.5294080000000 1.0
C      1  0.5410270000000  0.4177590000000  0.5485060000000 1.0
C      1  0.4879440000000  0.5801370000000  0.4210240000000 1.0
C      1  0.5185110000000  0.4776980000000  0.4426410000000 1.0
C      1  0.3955880000000  0.5479430000000  0.4806510000000 1.0
C      1  0.6014980000000  0.5447460000000  0.5512110000000 1.0
C      1  0.4259860000000  0.5843710000000  0.5206580000000 1.0
C      1  0.4407370000000  0.4150700000000  0.4738280000000 1.0
C      1  0.4462320000000  0.5043990000000  0.5459120000000 1.0
C      1  0.4650870000000  0.4462240000000  0.4796730000000 1.0
C      1  0.5913990000000  0.4342710000000  0.4899050000000 1.0
C      1  0.5567640000000  0.5029580000000  0.5828580000000 1.0
C      1  0.5532440000000  0.5441440000000  0.4427770000000 1.0
C      1  0.5868730000000  0.3928500000000  0.4530420000000 1.0
C      1  0.4868760000000  0.5134340000000  0.6040510000000 1.0
C      1  0.4401370000000  0.4901080000000  0.4549960000000 1.0
C      1  0.4620380000000  0.3919360000000  0.4365040000000 1.0
C      1  0.4045990000000  0.4499650000000  0.5347860000000 1.0
C      1  0.5518940000000  0.4013010000000  0.5039250000000 1.0
C      1  0.5809630000000  0.4487690000000  0.5498310000000 1.0
C      1  0.5802300000000  0.6030310000000  0.4980240000000 1.0
C      1  0.5916570000000  0.5405820000000  0.4532160000000 1.0
C      1  0.5255290000000  0.5607480000000  0.4382240000000 1.0
C      1  0.4095980000000  0.5610520000000  0.5078230000000 1.0
C      1  0.5078050000000  0.5985130000000  0.4249810000000 1.0
C      1  0.4776520000000  0.5250160000000  0.5129130000000 1.0
C      1  0.4485500000000  0.4571900000000  0.4563330000000 1.0
C      1  0.5873600000000  0.4568580000000  0.5226560000000 1.0
C      1  0.4311380000000  0.4844800000000  0.5071640000000 1.0
C      1  0.4356380000000  0.5501310000000  0.5684670000000 1.0
C      1  0.4205870000000  0.4533070000000  0.4983190000000 1.0
C      1  0.3928070000000  0.4969740000000  0.5113470000000 1.0
C      1  0.5242130000000  0.5440240000000  0.3917290000000 1.0
C      1  0.4799630000000  0.4665050000000  0.4988380000000 1.0
C      1  0.5770700000000  0.4171080000000  0.4515400000000 1.0
C      1  0.5288110000000  0.5584160000000  0.4709950000000 1.0
C      1  0.5145310000000  0.5065580000000  0.4495820000000 1.0
C      1  0.5079590000000  0.5081990000000  0.4929350000000 1.0
C      1  0.4727510000000  0.5361690000000  0.4406460000000 1.0
C      1  0.4198930000000  0.4247020000000  0.4253380000000 1.0
C      1  0.5440040000000  0.4562020000000  0.5853650000000 1.0
C      1  0.6030300000000  0.4870080000000  0.5196500000000 1.0
C      1  0.5105500000000  0.4951270000000  0.6029870000000 1.0
C      1  0.4390630000000  0.5752650000000  0.5473090000000 1.0
C      1  0.5496440000000  0.5385920000000  0.5211350000000 1.0
C      1  0.4801850000000  0.5136460000000  0.3799060000000 1.0
C      1  0.4620130000000  0.4142040000000  0.4533960000000 1.0
C      1  0.5345260000000  0.5379410000000  0.5492100000000 1.0
C      1  0.5805800000000  0.5767540000000  0.5134190000000 1.0
C      1  0.4943880000000  0.4486930000000  0.6051290000000 1.0
C      1  0.5099070000000  0.4227770000000  0.5497730000000 1.0
C      1  0.4901120000000  0.3967150000000  0.5503080000000 1.0
C      1  0.5098930000000  0.5470190000000  0.4198300000000 1.0
C      1  0.4913350000000  0.4651480000000  0.5560100000000 1.0
C      1  0.5467290000000  0.5007030000000  0.5333920000000 1.0
C      1  0.5448200000000  0.5235530000000  0.4942210000000 1.0
C      1  0.4110170000000  0.4437020000000  0.4477360000000 1.0
C      1  0.5073250000000  0.5601210000000  0.4920780000000 1.0
C      1  0.5108910000000  0.5623840000000  0.5830470000000 1.0
C      1  0.4041260000000  0.5170250000000  0.4866610000000 1.0
C      1  0.4975300000000  0.4348320000000  0.4814110000000 1.0
C      1  0.4782920000000  0.4935770000000  0.4882470000000 1.0
C      1  0.5348560000000  0.3985910000000  0.4789500000000 1.0
C      1  0.4428340000000  0.6000190000000  0.5054470000000 1.0
C      1  0.6000780000000  0.4512450000000  0.4706920000000 1.0
C      1  0.5066160000000  0.5414730000000  0.5198920000000 1.0
C      1  0.4669980000000  0.5304680000000  0.5535930000000 1.0
C      1  0.5525070000000  0.4926220000000  0.4570600000000 1.0
C      1  0.5290780000000  0.6003930000000  0.4414960000000 1.0
C      1  0.5313070000000  0.4640120000000  0.4941660000000 1.0
C      1  0.5466980000000  0.4603690000000  0.4645480000000 1.0
C      1  0.4784520000000  0.4367990000000  0.5700110000000 1.0
C      1  0.5252610000000  0.4589700000000  0.5570680000000 1.0
C      1  0.4611960000000  0.5528610000000  0.5016130000000 1.0
C      1  0.6084560000000  0.5360820000000  0.4827800000000 1.0
C      1  0.4418960000000  0.4364040000000  0.5188790000000 1.0
C      1  0.4896890000000  0.5936550000000  0.5248680000000 1.0
END
