TITL C-2778435-5768-458 0.00102758006455835 125000 -780.561425062828 0 0 136 (C1) n - 1
REM
REM in /home/nfs/bkarasulu/CARBON/AIRSS/Generating-Clusters/REBO/Only-C1/SD-CG/HFTN-CG
REM
REM
REM
REM
REM
REM ./C.cell (11c1c37f851c82e70ff6c80c92926a4b)
REM
REM compiler GCC version 9.2.1 20190827 (Red Hat 9.2.1-1)
REM options -cpp -mtune=generic -march=x86-64 -g -O0 -fpre-include=/usr/include/finclude/math-vector-fortran.h
REM seed -408609718 -586058449 -1588090803 -1948449815 -1353888772 -838926586 -729352227 -1501238015 -1103272199 1802846243 43395750 1915366391 -1155809173 -1955280594 -354028122 311068859 1988716562 844440385 206167865 -1880788294 -1503025655 1175625634 93961011 -1351025309 -1466898697 2082622262 190990688 -1220270373 1391026830 155229271 -287535998 697654968 -1336149916
REM
CELL 1.54180   50.00000   50.00000   50.00000   90.00000   90.00000   90.00000
LATT -1
SFAC C  
C      1  0.5272710000000  0.5714370000000  0.4972810000000 1.0
C      1  0.5133160000000  0.4728620000000  0.4375360000000 1.0
C      1  0.4447890000000  0.5562590000000  0.4275520000000 1.0
C      1  0.4982230000000  0.3975740000000  0.5351760000000 1.0
C      1  0.4208690000000  0.4835240000000  0.4490910000000 1.0
C      1  0.4822110000000  0.4871320000000  0.6039180000000 1.0
C      1  0.5502000000000  0.4921140000000  0.4427120000000 1.0
C      1  0.4649940000000  0.4037660000000  0.5319810000000 1.0
C      1  0.5177310000000  0.5848000000000  0.4394150000000 1.0
C      1  0.4321580000000  0.4866630000000  0.5223910000000 1.0
C      1  0.5790620000000  0.4863080000000  0.4551940000000 1.0
C      1  0.5773960000000  0.5539530000000  0.4745980000000 1.0
C      1  0.4301780000000  0.4414780000000  0.4807190000000 1.0
C      1  0.5493220000000  0.5803080000000  0.5295090000000 1.0
C      1  0.5489650000000  0.4167380000000  0.4874400000000 1.0
C      1  0.4474200000000  0.4990040000000  0.4127050000000 1.0
C      1  0.4524270000000  0.4339370000000  0.5002780000000 1.0
C      1  0.4598670000000  0.4916680000000  0.4499700000000 1.0
C      1  0.4837680000000  0.5958960000000  0.5244250000000 1.0
C      1  0.5128680000000  0.4795500000000  0.5946090000000 1.0
C      1  0.5238160000000  0.4841550000000  0.4867160000000 1.0
C      1  0.4992730000000  0.5126410000000  0.4660450000000 1.0
C      1  0.5921020000000  0.5309000000000  0.4868570000000 1.0
C      1  0.5127060000000  0.6017790000000  0.4975970000000 1.0
C      1  0.4470740000000  0.5764550000000  0.4510970000000 1.0
C      1  0.4904100000000  0.4607350000000  0.5757900000000 1.0
C      1  0.4460580000000  0.5718260000000  0.4917620000000 1.0
C      1  0.4798040000000  0.5647530000000  0.5112470000000 1.0
C      1  0.4765250000000  0.5536330000000  0.4369840000000 1.0
C      1  0.5154620000000  0.5108110000000  0.5184370000000 1.0
C      1  0.4938210000000  0.4311890000000  0.5310290000000 1.0
C      1  0.5655050000000  0.5736730000000  0.4999530000000 1.0
C      1  0.5106400000000  0.5298360000000  0.4928230000000 1.0
C      1  0.5288040000000  0.4651430000000  0.4630710000000 1.0
C      1  0.5063310000000  0.4853790000000  0.5342920000000 1.0
C      1  0.4505450000000  0.5019680000000  0.5897000000000 1.0
C      1  0.4625930000000  0.4366930000000  0.5388130000000 1.0
C      1  0.5943180000000  0.4897870000000  0.5425100000000 1.0
C      1  0.5516590000000  0.5292590000000  0.4182590000000 1.0
C      1  0.5508990000000  0.4816100000000  0.5260820000000 1.0
C      1  0.4460480000000  0.5365090000000  0.5848870000000 1.0
C      1  0.4993360000000  0.4460510000000  0.4265560000000 1.0
C      1  0.4511570000000  0.5549010000000  0.5272210000000 1.0
C      1  0.6037790000000  0.4671540000000  0.4981670000000 1.0
C      1  0.5173930000000  0.5569090000000  0.5263510000000 1.0
C      1  0.5125660000000  0.5900340000000  0.4656330000000 1.0
C      1  0.4565080000000  0.3942660000000  0.4755750000000 1.0
C      1  0.4679040000000  0.5181710000000  0.5119740000000 1.0
C      1  0.4812510000000  0.5917480000000  0.4904110000000 1.0
C      1  0.4818420000000  0.4091870000000  0.5618470000000 1.0
C      1  0.5312670000000  0.4612780000000  0.5070220000000 1.0
C      1  0.4908860000000  0.4565470000000  0.4721690000000 1.0
C      1  0.4759370000000  0.5749850000000  0.4636030000000 1.0
C      1  0.5128480000000  0.4551180000000  0.5418870000000 1.0
C      1  0.5386670000000  0.5441260000000  0.4836980000000 1.0
C      1  0.4298780000000  0.5135460000000  0.5651750000000 1.0
C      1  0.5075430000000  0.4412210000000  0.5048300000000 1.0
C      1  0.4070270000000  0.5467580000000  0.4601230000000 1.0
C      1  0.5471580000000  0.5051650000000  0.4858640000000 1.0
C      1  0.5336080000000  0.5215440000000  0.5594290000000 1.0
C      1  0.5773640000000  0.5539240000000  0.5226000000000 1.0
C      1  0.5573580000000  0.4453780000000  0.4929060000000 1.0
C      1  0.5685540000000  0.5457870000000  0.4427980000000 1.0
C      1  0.4231710000000  0.5041980000000  0.4281110000000 1.0
C      1  0.4728740000000  0.4713250000000  0.4521480000000 1.0
C      1  0.4882660000000  0.5057090000000  0.5772240000000 1.0
C      1  0.5170310000000  0.5911560000000  0.5298320000000 1.0
C      1  0.4538510000000  0.5220830000000  0.4458630000000 1.0
C      1  0.4124420000000  0.5503900000000  0.4918860000000 1.0
C      1  0.5468000000000  0.5427050000000  0.5166830000000 1.0
C      1  0.4915560000000  0.4873730000000  0.4868770000000 1.0
C      1  0.5343740000000  0.4145650000000  0.4584300000000 1.0
C      1  0.5269520000000  0.4718250000000  0.5653870000000 1.0
C      1  0.5473520000000  0.5137620000000  0.5309850000000 1.0
C      1  0.4188820000000  0.4641310000000  0.5522810000000 1.0
C      1  0.5274650000000  0.4284520000000  0.5524660000000 1.0
C      1  0.4561160000000  0.4712320000000  0.4158300000000 1.0
C      1  0.4379670000000  0.4359290000000  0.4538240000000 1.0
C      1  0.4720760000000  0.4844450000000  0.5146630000000 1.0
C      1  0.4633660000000  0.5126240000000  0.5586240000000 1.0
C      1  0.5388990000000  0.5436290000000  0.4530420000000 1.0
C      1  0.5238950000000  0.5525620000000  0.5654380000000 1.0
C      1  0.5521050000000  0.5597210000000  0.5524470000000 1.0
C      1  0.4652250000000  0.5436580000000  0.4909850000000 1.0
C      1  0.5798010000000  0.5052540000000  0.4813770000000 1.0
C      1  0.4768610000000  0.4731080000000  0.5465980000000 1.0
C      1  0.4995090000000  0.5390170000000  0.4186020000000 1.0
C      1  0.5813050000000  0.5168030000000  0.5368470000000 1.0
C      1  0.4746830000000  0.5350540000000  0.4647140000000 1.0
C      1  0.5971230000000  0.5340530000000  0.5146330000000 1.0
C      1  0.5074240000000  0.4925600000000  0.4037100000000 1.0
C      1  0.4376040000000  0.4596500000000  0.4373910000000 1.0
C      1  0.4500530000000  0.4096370000000  0.4528600000000 1.0
C      1  0.5371870000000  0.4797470000000  0.4141210000000 1.0
C      1  0.5474530000000  0.4050850000000  0.5128860000000 1.0
C      1  0.5566220000000  0.5176210000000  0.5831520000000 1.0
C      1  0.4206660000000  0.4873820000000  0.4791210000000 1.0
C      1  0.4080640000000  0.4551730000000  0.5234030000000 1.0
C      1  0.5916420000000  0.4681460000000  0.5239990000000 1.0
C      1  0.5973690000000  0.4706970000000  0.4716520000000 1.0
C      1  0.4927860000000  0.5475740000000  0.5586910000000 1.0
C      1  0.5258520000000  0.5204110000000  0.4112470000000 1.0
C      1  0.4232140000000  0.5341600000000  0.4381880000000 1.0
C      1  0.4417490000000  0.4560930000000  0.5206710000000 1.0
C      1  0.4590030000000  0.5453150000000  0.5541780000000 1.0
C      1  0.5502640000000  0.4582360000000  0.4374700000000 1.0
C      1  0.5205990000000  0.5581190000000  0.4337490000000 1.0
C      1  0.4934040000000  0.5329640000000  0.5287430000000 1.0
C      1  0.5023490000000  0.5599520000000  0.4789430000000 1.0
C      1  0.4488700000000  0.4578750000000  0.5597290000000 1.0
C      1  0.4574890000000  0.4042040000000  0.5011660000000 1.0
C      1  0.4844880000000  0.4681060000000  0.4105770000000 1.0
C      1  0.4140100000000  0.4620660000000  0.4925610000000 1.0
C      1  0.5122160000000  0.5342960000000  0.5910100000000 1.0
C      1  0.4592970000000  0.4699260000000  0.5868440000000 1.0
C      1  0.5087400000000  0.4231120000000  0.4376450000000 1.0
C      1  0.5326190000000  0.5133100000000  0.4589360000000 1.0
C      1  0.5648980000000  0.4504640000000  0.5257520000000 1.0
C      1  0.4373170000000  0.5077910000000  0.5007210000000 1.0
C      1  0.5124650000000  0.5015570000000  0.5614860000000 1.0
C      1  0.5702280000000  0.5367370000000  0.5603490000000 1.0
C      1  0.4766490000000  0.4535590000000  0.5015600000000 1.0
C      1  0.6079470000000  0.4864850000000  0.5664280000000 1.0
C      1  0.4960050000000  0.5004260000000  0.4353840000000 1.0
C      1  0.4787350000000  0.5357990000000  0.5873640000000 1.0
C      1  0.5285220000000  0.5097450000000  0.5971410000000 1.0
C      1  0.4166090000000  0.4943970000000  0.5478230000000 1.0
C      1  0.4726410000000  0.5181990000000  0.4188790000000 1.0
C      1  0.5654440000000  0.4779840000000  0.4955010000000 1.0
C      1  0.4504810000000  0.5887160000000  0.5201190000000 1.0
C      1  0.5533070000000  0.4300460000000  0.4366530000000 1.0
C      1  0.4221830000000  0.5750070000000  0.4705210000000 1.0
C      1  0.5003810000000  0.4304420000000  0.5704590000000 1.0
C      1  0.5176660000000  0.4374580000000  0.4738240000000 1.0
C      1  0.5497250000000  0.4236040000000  0.5355380000000 1.0
C      1  0.4305590000000  0.5378980000000  0.5097650000000 1.0
END
