TITL C-2778433-5640-1382 -0.00725865528925225 125000 -63.0482765181073 0 0 12 (Cs) n - 1
REM
REM in /home/nfs/bkarasulu/CARBON/AIRSS/Generating-Clusters/REBO/Only-C1/SD-CG/HFTN-CG
REM
REM
REM
REM
REM
REM ./C.cell (11c1c37f851c82e70ff6c80c92926a4b)
REM
REM compiler GCC version 9.2.1 20190827 (Red Hat 9.2.1-1)
REM options -cpp -mtune=generic -march=x86-64 -g -O0 -fpre-include=/usr/include/finclude/math-vector-fortran.h
REM seed -2022201242 -1951530988 -1273357002 -758283733 2143551821 1335594534 337728144 -1990371795 -222096385 331922796 -808151545 -1666164003 1096518192 -351253152 -518298802 503664796 -1252447153 -1150422714 2119240032 633914831 -1084848644 580606395 717128981 778528136 1346576891 1597634425 1104889290 -225286071 -1895063575 -1799358269 902031480 948829937 1099141946
REM
CELL 1.54180   50.00000   50.00000   50.00000   90.00000   90.00000   90.00000
LATT -1
SFAC C  
C      1  0.5013010000000  0.4161970000000  0.4956250000000 1.0
C      1  0.4996490000000  0.5324360000000  0.5004200000000 1.0
C      1  0.5093790000000  0.5343450000000  0.4191950000000 1.0
C      1  0.5033130000000  0.5225910000000  0.4706550000000 1.0
C      1  0.4995950000000  0.4683180000000  0.5058170000000 1.0
C      1  0.4946180000000  0.5137880000000  0.5437830000000 1.0
C      1  0.5004590000000  0.4419040000000  0.5006520000000 1.0
C      1  0.4968500000000  0.4916650000000  0.5268920000000 1.0
C      1  0.4913980000000  0.5133790000000  0.5706470000000 1.0
C      1  0.5007410000000  0.4991580000000  0.4938930000000 1.0
C      1  0.4963100000000  0.5376700000000  0.5278440000000 1.0
C      1  0.5063870000000  0.5285480000000  0.4445770000000 1.0
END
