TITL C-2778431-5191-366 -0.00489671819287713 125000 -210.340902543306 0 0 37 (C1) n - 1
REM
REM in /home/nfs/bkarasulu/CARBON/AIRSS/Generating-Clusters/REBO/Only-C1/SD-CG/HFTN-CG
REM
REM
REM
REM
REM
REM ./C.cell (11c1c37f851c82e70ff6c80c92926a4b)
REM
REM compiler GCC version 9.2.1 20190827 (Red Hat 9.2.1-1)
REM options -cpp -mtune=generic -march=x86-64 -g -O0 -fpre-include=/usr/include/finclude/math-vector-fortran.h
REM seed -806972058 39910112 -2063467245 1219194062 1465292703 -1348711900 904273438 462721744 2043784426 -1395649224 -1020517640 -1243178366 428845202 -2125158100 1604720157 -2107862356 -1103416700 194357285 -2072699612 848895040 1117200412 -1999224854 -1934695062 -2087848810 1363578560 1676921096 -1924241059 255529607 -1148155300 1642135551 -1028341256 1283434107 -1574379491
REM
CELL 1.54180   50.00000   50.00000   50.00000   90.00000   90.00000   90.00000
LATT -1
SFAC C  
C      1  0.4994560000000  0.5002310000000  0.4931300000000 1.0
C      1  0.5339760000000  0.4979110000000  0.5529800000000 1.0
C      1  0.5339090000000  0.5238000000000  0.4797270000000 1.0
C      1  0.5073640000000  0.5402470000000  0.4650520000000 1.0
C      1  0.4952230000000  0.5270150000000  0.5006910000000 1.0
C      1  0.5065240000000  0.5047510000000  0.4368070000000 1.0
C      1  0.5257380000000  0.4659980000000  0.4667860000000 1.0
C      1  0.4706910000000  0.5414910000000  0.5042590000000 1.0
C      1  0.4853010000000  0.5076430000000  0.5534140000000 1.0
C      1  0.5218950000000  0.5543690000000  0.4889610000000 1.0
C      1  0.4912230000000  0.5353510000000  0.5469690000000 1.0
C      1  0.5200380000000  0.5606570000000  0.5160590000000 1.0
C      1  0.4532380000000  0.5365710000000  0.4819510000000 1.0
C      1  0.5381420000000  0.5210690000000  0.5366280000000 1.0
C      1  0.4588400000000  0.4983190000000  0.5487170000000 1.0
C      1  0.4486120000000  0.4682490000000  0.4468130000000 1.0
C      1  0.5072460000000  0.4606910000000  0.5386170000000 1.0
C      1  0.4939440000000  0.4542990000000  0.5121730000000 1.0
C      1  0.4700540000000  0.5487190000000  0.5320390000000 1.0
C      1  0.5182350000000  0.5417970000000  0.5375150000000 1.0
C      1  0.4741560000000  0.4902500000000  0.4785310000000 1.0
C      1  0.4770780000000  0.4421280000000  0.4851100000000 1.0
C      1  0.4534160000000  0.4833670000000  0.5264420000000 1.0
C      1  0.5197650000000  0.4758530000000  0.4369910000000 1.0
C      1  0.5308550000000  0.4991940000000  0.4602510000000 1.0
C      1  0.5528410000000  0.4793340000000  0.5052290000000 1.0
C      1  0.5154320000000  0.4526660000000  0.4872890000000 1.0
C      1  0.4662330000000  0.4612040000000  0.4685790000000 1.0
C      1  0.4636560000000  0.5149180000000  0.4611190000000 1.0
C      1  0.5346430000000  0.4517390000000  0.5436480000000 1.0
C      1  0.4456380000000  0.4956640000000  0.4426560000000 1.0
C      1  0.5504800000000  0.4736880000000  0.5521660000000 1.0
C      1  0.5059290000000  0.4880120000000  0.5508400000000 1.0
C      1  0.5237540000000  0.4900960000000  0.4985340000000 1.0
C      1  0.4904320000000  0.5251450000000  0.4484080000000 1.0
C      1  0.4694770000000  0.4748230000000  0.5065500000000 1.0
C      1  0.5465650000000  0.5127410000000  0.5083650000000 1.0
END
