TITL C-2778427-5640-1458 0.00437932380593659 125000 -994.213484130279 0 0 170 (C1) n - 1
REM
REM in /home/nfs/bkarasulu/CARBON/AIRSS/Generating-Clusters/REBO/Only-C1/SD-CG/HFTN-CG
REM
REM
REM
REM
REM
REM ./C.cell (11c1c37f851c82e70ff6c80c92926a4b)
REM
REM compiler GCC version 9.2.1 20190827 (Red Hat 9.2.1-1)
REM options -cpp -mtune=generic -march=x86-64 -g -O0 -fpre-include=/usr/include/finclude/math-vector-fortran.h
REM seed 1826378630 -1121966061 -1535469589 1291505142 65408445 -778876177 104697467 -1809704465 408135021 -7077644 -283481851 197477446 -1484483181 825202935 1185578121 -573503185 465424179 839043324 -1611991674 -1424021447 1622446271 389769814 335795202 -2089417577 -1783797460 -1281858905 1351640347 -1188481965 -1344685986 1906017677 1773858900 199212912 -1685332324
REM
CELL 1.54180   50.00000   50.00000   50.00000   90.00000   90.00000   90.00000
LATT -1
SFAC C  
C      1  0.5090050000000  0.4456770000000  0.5112090000000 1.0
C      1  0.5121050000000  0.3861090000000  0.4677470000000 1.0
C      1  0.5690890000000  0.5524090000000  0.4570890000000 1.0
C      1  0.5248340000000  0.5962960000000  0.5863650000000 1.0
C      1  0.4801800000000  0.5325950000000  0.4617620000000 1.0
C      1  0.4847770000000  0.4874970000000  0.4381410000000 1.0
C      1  0.4309150000000  0.4331740000000  0.4500600000000 1.0
C      1  0.5699640000000  0.4631930000000  0.5051650000000 1.0
C      1  0.4515630000000  0.4410390000000  0.4833630000000 1.0
C      1  0.4880830000000  0.5013360000000  0.4110350000000 1.0
C      1  0.4176420000000  0.4534400000000  0.5005160000000 1.0
C      1  0.4712040000000  0.5401820000000  0.5788800000000 1.0
C      1  0.5482440000000  0.4490140000000  0.5664000000000 1.0
C      1  0.4737330000000  0.3972870000000  0.4972490000000 1.0
C      1  0.6073670000000  0.5343460000000  0.5259180000000 1.0
C      1  0.5737640000000  0.4185170000000  0.4959850000000 1.0
C      1  0.5368320000000  0.4865360000000  0.5419270000000 1.0
C      1  0.4365040000000  0.5019850000000  0.4539810000000 1.0
C      1  0.4733190000000  0.5298900000000  0.5075380000000 1.0
C      1  0.5305860000000  0.5117190000000  0.4390050000000 1.0
C      1  0.4000680000000  0.5010300000000  0.5204480000000 1.0
C      1  0.5056950000000  0.4890900000000  0.5298710000000 1.0
C      1  0.5206560000000  0.5323260000000  0.6027490000000 1.0
C      1  0.5495790000000  0.5295880000000  0.5845540000000 1.0
C      1  0.4931730000000  0.5100340000000  0.5452570000000 1.0
C      1  0.4570720000000  0.5483560000000  0.4785450000000 1.0
C      1  0.5952670000000  0.5521010000000  0.5014870000000 1.0
C      1  0.5347320000000  0.4721930000000  0.4026330000000 1.0
C      1  0.5583390000000  0.4975240000000  0.4776140000000 1.0
C      1  0.5076240000000  0.4811220000000  0.5685610000000 1.0
C      1  0.5352910000000  0.4252620000000  0.4374280000000 1.0
C      1  0.4138100000000  0.4495270000000  0.4729790000000 1.0
C      1  0.5098010000000  0.5445350000000  0.4034160000000 1.0
C      1  0.5526530000000  0.5853290000000  0.5116450000000 1.0
C      1  0.4578460000000  0.5791880000000  0.4822540000000 1.0
C      1  0.4669710000000  0.4642650000000  0.5405190000000 1.0
C      1  0.5553150000000  0.5779570000000  0.5451540000000 1.0
C      1  0.4579730000000  0.5958810000000  0.5182550000000 1.0
C      1  0.5448250000000  0.5601910000000  0.5695630000000 1.0
C      1  0.4776870000000  0.4095290000000  0.4492660000000 1.0
C      1  0.4830410000000  0.5038110000000  0.4913970000000 1.0
C      1  0.4361310000000  0.4135680000000  0.4732390000000 1.0
C      1  0.4765700000000  0.4763230000000  0.5659640000000 1.0
C      1  0.5520370000000  0.4327570000000  0.4820310000000 1.0
C      1  0.4428950000000  0.5078970000000  0.5409790000000 1.0
C      1  0.4615850000000  0.5317250000000  0.4067300000000 1.0
C      1  0.5360930000000  0.5013060000000  0.4009540000000 1.0
C      1  0.5427620000000  0.4078610000000  0.5364340000000 1.0
C      1  0.5691660000000  0.5672160000000  0.4879070000000 1.0
C      1  0.4407190000000  0.4425110000000  0.5613850000000 1.0
C      1  0.4473500000000  0.4813330000000  0.5208560000000 1.0
C      1  0.5059630000000  0.4619520000000  0.6033420000000 1.0
C      1  0.4950320000000  0.4754380000000  0.5025120000000 1.0
C      1  0.5157280000000  0.4526050000000  0.3972230000000 1.0
C      1  0.4299420000000  0.5715730000000  0.5298890000000 1.0
C      1  0.5671910000000  0.5185930000000  0.4531940000000 1.0
C      1  0.4823840000000  0.4538640000000  0.5890830000000 1.0
C      1  0.4197820000000  0.4060710000000  0.5368020000000 1.0
C      1  0.4456420000000  0.5662330000000  0.4469630000000 1.0
C      1  0.4597280000000  0.5619480000000  0.5181650000000 1.0
C      1  0.4672400000000  0.4351110000000  0.5712050000000 1.0
C      1  0.4404820000000  0.5441910000000  0.5895810000000 1.0
C      1  0.5393210000000  0.5013890000000  0.5123480000000 1.0
C      1  0.4989690000000  0.3910210000000  0.5168490000000 1.0
C      1  0.4628810000000  0.5009110000000  0.3936180000000 1.0
C      1  0.5349880000000  0.5877490000000  0.4848950000000 1.0
C      1  0.4285530000000  0.4992780000000  0.5030310000000 1.0
C      1  0.5313950000000  0.4624240000000  0.5835970000000 1.0
C      1  0.4230080000000  0.5361290000000  0.5613810000000 1.0
C      1  0.5947140000000  0.4396700000000  0.5069410000000 1.0
C      1  0.5239540000000  0.5382630000000  0.4401400000000 1.0
C      1  0.5486600000000  0.4663860000000  0.4782840000000 1.0
C      1  0.5755920000000  0.4773440000000  0.4292480000000 1.0
C      1  0.4825330000000  0.4391720000000  0.5305000000000 1.0
C      1  0.4664290000000  0.5227270000000  0.5500440000000 1.0
C      1  0.5119650000000  0.5859190000000  0.5610350000000 1.0
C      1  0.4198570000000  0.5272110000000  0.5298330000000 1.0
C      1  0.5780440000000  0.4586310000000  0.4522830000000 1.0
C      1  0.4656280000000  0.4696220000000  0.4020450000000 1.0
C      1  0.4831840000000  0.5702790000000  0.5682770000000 1.0
C      1  0.5416910000000  0.5473060000000  0.4854510000000 1.0
C      1  0.5600830000000  0.5356110000000  0.5101480000000 1.0
C      1  0.5299960000000  0.5828270000000  0.4534090000000 1.0
C      1  0.4596370000000  0.4345360000000  0.4349310000000 1.0
C      1  0.4768650000000  0.5513420000000  0.5410120000000 1.0
C      1  0.5231060000000  0.4269610000000  0.4877530000000 1.0
C      1  0.5117300000000  0.5276080000000  0.5567260000000 1.0
C      1  0.5425830000000  0.4218720000000  0.5653490000000 1.0
C      1  0.5122070000000  0.4895830000000  0.4501690000000 1.0
C      1  0.4604440000000  0.4650150000000  0.4409250000000 1.0
C      1  0.5339250000000  0.5526150000000  0.5242260000000 1.0
C      1  0.4773700000000  0.5717970000000  0.4349530000000 1.0
C      1  0.4489270000000  0.4679270000000  0.4703000000000 1.0
C      1  0.5063510000000  0.5122840000000  0.4708130000000 1.0
C      1  0.4302870000000  0.5667320000000  0.5579420000000 1.0
C      1  0.4840500000000  0.5532690000000  0.4133290000000 1.0
C      1  0.4668170000000  0.5007750000000  0.5833500000000 1.0
C      1  0.4221530000000  0.5659940000000  0.4715870000000 1.0
C      1  0.4577380000000  0.5373840000000  0.4400800000000 1.0
C      1  0.5361600000000  0.5555980000000  0.4157820000000 1.0
C      1  0.5695610000000  0.4147370000000  0.5253430000000 1.0
C      1  0.3678780000000  0.5036850000000  0.4506120000000 1.0
C      1  0.4512260000000  0.5781300000000  0.5718520000000 1.0
C      1  0.4693110000000  0.4014640000000  0.5305240000000 1.0
C      1  0.5724720000000  0.5068580000000  0.5062720000000 1.0
C      1  0.4097130000000  0.4687990000000  0.5255480000000 1.0
C      1  0.4077630000000  0.5428330000000  0.4787180000000 1.0
C      1  0.6016000000000  0.5075230000000  0.5160940000000 1.0
C      1  0.4798770000000  0.6104730000000  0.5230630000000 1.0
C      1  0.5596880000000  0.5052720000000  0.4251410000000 1.0
C      1  0.5051510000000  0.5498090000000  0.4573790000000 1.0
C      1  0.5405130000000  0.5262540000000  0.5433920000000 1.0
C      1  0.5758080000000  0.5580860000000  0.5294280000000 1.0
C      1  0.4866670000000  0.4167450000000  0.5532240000000 1.0
C      1  0.4990950000000  0.4509710000000  0.4491220000000 1.0
C      1  0.5149540000000  0.4083430000000  0.5568790000000 1.0
C      1  0.4386670000000  0.5124620000000  0.5804050000000 1.0
C      1  0.4190300000000  0.5117720000000  0.4751520000000 1.0
C      1  0.5292720000000  0.5970880000000  0.5338300000000 1.0
C      1  0.5581030000000  0.4362250000000  0.4519590000000 1.0
C      1  0.5996740000000  0.4985550000000  0.4772840000000 1.0
C      1  0.5894810000000  0.5311070000000  0.4753200000000 1.0
C      1  0.5496010000000  0.5687350000000  0.4394300000000 1.0
C      1  0.4901080000000  0.5192050000000  0.5970750000000 1.0
C      1  0.5161700000000  0.5491670000000  0.5761250000000 1.0
C      1  0.5663780000000  0.5169350000000  0.5506690000000 1.0
C      1  0.5300770000000  0.4646620000000  0.4523770000000 1.0
C      1  0.5812770000000  0.5238630000000  0.5803770000000 1.0
C      1  0.5811750000000  0.4409230000000  0.5363570000000 1.0
C      1  0.5172140000000  0.5250930000000  0.5173930000000 1.0
C      1  0.4980450000000  0.5506600000000  0.5071600000000 1.0
C      1  0.5143460000000  0.5616170000000  0.4834590000000 1.0
C      1  0.6225830000000  0.4968850000000  0.4974170000000 1.0
C      1  0.4285180000000  0.4881250000000  0.5629290000000 1.0
C      1  0.4939250000000  0.6071750000000  0.4677120000000 1.0
C      1  0.3889260000000  0.5229950000000  0.4985910000000 1.0
C      1  0.5358850000000  0.5004570000000  0.5732010000000 1.0
C      1  0.4226200000000  0.4634120000000  0.5516320000000 1.0
C      1  0.5073330000000  0.6112350000000  0.5164550000000 1.0
C      1  0.5179550000000  0.4263420000000  0.4134000000000 1.0
C      1  0.4314340000000  0.5831700000000  0.4995110000000 1.0
C      1  0.5138830000000  0.4949510000000  0.5987990000000 1.0
C      1  0.4404820000000  0.5309550000000  0.5027530000000 1.0
C      1  0.5130830000000  0.6092040000000  0.4889770000000 1.0
C      1  0.4893450000000  0.4538080000000  0.4163350000000 1.0
C      1  0.4435860000000  0.4472640000000  0.5217890000000 1.0
C      1  0.5479700000000  0.4653080000000  0.4267630000000 1.0
C      1  0.5067670000000  0.5644190000000  0.5368300000000 1.0
C      1  0.4221370000000  0.4718280000000  0.4487560000000 1.0
C      1  0.4844230000000  0.4522600000000  0.4798030000000 1.0
C      1  0.5013750000000  0.5880780000000  0.4468450000000 1.0
C      1  0.5189010000000  0.4134790000000  0.5174770000000 1.0
C      1  0.5060880000000  0.3751150000000  0.4895400000000 1.0
C      1  0.4741190000000  0.4290240000000  0.5020960000000 1.0
C      1  0.5336660000000  0.5173580000000  0.4822970000000 1.0
C      1  0.4605840000000  0.3968750000000  0.4706990000000 1.0
C      1  0.4400000000000  0.5131500000000  0.4240320000000 1.0
C      1  0.5583480000000  0.4638930000000  0.5374510000000 1.0
C      1  0.5798350000000  0.4917470000000  0.5692090000000 1.0
C      1  0.3859210000000  0.5110290000000  0.4692980000000 1.0
C      1  0.4863920000000  0.4201160000000  0.4194400000000 1.0
C      1  0.4392030000000  0.4807790000000  0.4204250000000 1.0
C      1  0.5850410000000  0.4669010000000  0.5724000000000 1.0
C      1  0.5092300000000  0.4188190000000  0.4587690000000 1.0
C      1  0.4426250000000  0.4176460000000  0.5301210000000 1.0
C      1  0.4675420000000  0.6034020000000  0.4749070000000 1.0
C      1  0.5880080000000  0.4710880000000  0.4769390000000 1.0
C      1  0.4662650000000  0.4955530000000  0.4656600000000 1.0
C      1  0.5113250000000  0.5155380000000  0.4012130000000 1.0
C      1  0.5914400000000  0.5402510000000  0.5526150000000 1.0
END
