TITL C-2778427-5640-1086 -0.00294697143271248 125000 -909.758591870702 0 0 155 (C1) n - 1
REM
REM in /home/nfs/bkarasulu/CARBON/AIRSS/Generating-Clusters/REBO/Only-C1/SD-CG/HFTN-CG
REM
REM
REM
REM
REM
REM ./C.cell (11c1c37f851c82e70ff6c80c92926a4b)
REM
REM compiler GCC version 9.2.1 20190827 (Red Hat 9.2.1-1)
REM options -cpp -mtune=generic -march=x86-64 -g -O0 -fpre-include=/usr/include/finclude/math-vector-fortran.h
REM seed -2024581775 -1497351409 -1682305423 -840156316 -1435150099 -1183554578 -587947905 929491090 1379070402 1504044457 -543057892 -760615310 2038454700 -2025380701 -481420319 -1961650623 512298227 -300265177 -1697133230 -300288130 153956908 -1448373596 -333071962 -1618598377 1540449925 537835479 -1324075269 -208722926 -983926961 309959250 2076067352 1082671205 421486988
REM
CELL 1.54180   50.00000   50.00000   50.00000   90.00000   90.00000   90.00000
LATT -1
SFAC C  
C      1  0.5008230000000  0.4207480000000  0.4319930000000 1.0
C      1  0.5960800000000  0.5190210000000  0.5340720000000 1.0
C      1  0.5470140000000  0.5499960000000  0.5639540000000 1.0
C      1  0.4881850000000  0.4346850000000  0.4729880000000 1.0
C      1  0.4711900000000  0.5764730000000  0.5304120000000 1.0
C      1  0.4425780000000  0.4927430000000  0.4881550000000 1.0
C      1  0.4412580000000  0.4661930000000  0.4371170000000 1.0
C      1  0.5569230000000  0.5423940000000  0.4679730000000 1.0
C      1  0.5232010000000  0.4375970000000  0.4423020000000 1.0
C      1  0.4697420000000  0.5257410000000  0.5181600000000 1.0
C      1  0.5705960000000  0.4413360000000  0.4473690000000 1.0
C      1  0.5093230000000  0.3911840000000  0.5194210000000 1.0
C      1  0.5817460000000  0.4676560000000  0.4448760000000 1.0
C      1  0.4965840000000  0.4811050000000  0.3882640000000 1.0
C      1  0.5826520000000  0.4971000000000  0.5713190000000 1.0
C      1  0.5113400000000  0.4440080000000  0.5773540000000 1.0
C      1  0.4492720000000  0.5177900000000  0.4367280000000 1.0
C      1  0.5376910000000  0.5013200000000  0.4475420000000 1.0
C      1  0.4697460000000  0.5858350000000  0.4853190000000 1.0
C      1  0.4583500000000  0.5374340000000  0.4923100000000 1.0
C      1  0.4196720000000  0.5371240000000  0.5432240000000 1.0
C      1  0.4299530000000  0.5049810000000  0.5390230000000 1.0
C      1  0.4798530000000  0.4896490000000  0.4741270000000 1.0
C      1  0.4386900000000  0.4294050000000  0.4740090000000 1.0
C      1  0.4347420000000  0.5926640000000  0.5332010000000 1.0
C      1  0.4927410000000  0.5555110000000  0.5816890000000 1.0
C      1  0.5036610000000  0.5211060000000  0.5475770000000 1.0
C      1  0.4717600000000  0.4597710000000  0.4621390000000 1.0
C      1  0.4780800000000  0.5386640000000  0.4738150000000 1.0
C      1  0.5301810000000  0.5165640000000  0.4012690000000 1.0
C      1  0.5759120000000  0.4772830000000  0.4831470000000 1.0
C      1  0.6105640000000  0.4982700000000  0.5149140000000 1.0
C      1  0.4038560000000  0.4941920000000  0.4304860000000 1.0
C      1  0.5129880000000  0.4819810000000  0.4721140000000 1.0
C      1  0.5581390000000  0.5120080000000  0.4704480000000 1.0
C      1  0.4815870000000  0.4062970000000  0.4547590000000 1.0
C      1  0.5027330000000  0.5182570000000  0.5143130000000 1.0
C      1  0.4209990000000  0.4999450000000  0.5093070000000 1.0
C      1  0.5107910000000  0.5669220000000  0.5086850000000 1.0
C      1  0.5825380000000  0.5260600000000  0.4420710000000 1.0
C      1  0.5278420000000  0.5924650000000  0.4432840000000 1.0
C      1  0.5264400000000  0.5033330000000  0.5607850000000 1.0
C      1  0.4293700000000  0.4876840000000  0.4195140000000 1.0
C      1  0.4831020000000  0.5932080000000  0.4620350000000 1.0
C      1  0.4890160000000  0.4135950000000  0.5236670000000 1.0
C      1  0.5368950000000  0.4692960000000  0.4429290000000 1.0
C      1  0.3901520000000  0.5118380000000  0.4735270000000 1.0
C      1  0.5100420000000  0.6013760000000  0.4638450000000 1.0
C      1  0.4879980000000  0.4179420000000  0.5559640000000 1.0
C      1  0.4115280000000  0.4336750000000  0.5130240000000 1.0
C      1  0.5726260000000  0.4861720000000  0.5459480000000 1.0
C      1  0.6006130000000  0.5215590000000  0.4655390000000 1.0
C      1  0.5012180000000  0.5314300000000  0.4343280000000 1.0
C      1  0.5528860000000  0.5057730000000  0.4986400000000 1.0
C      1  0.5452200000000  0.5000720000000  0.5368660000000 1.0
C      1  0.4837430000000  0.4388050000000  0.5106840000000 1.0
C      1  0.4661300000000  0.5444440000000  0.4470090000000 1.0
C      1  0.5249320000000  0.5698870000000  0.5371820000000 1.0
C      1  0.3977210000000  0.4553140000000  0.4971060000000 1.0
C      1  0.4516480000000  0.4933910000000  0.4549730000000 1.0
C      1  0.4426260000000  0.4451340000000  0.5557360000000 1.0
C      1  0.5163600000000  0.4480490000000  0.4719640000000 1.0
C      1  0.4715910000000  0.4430660000000  0.5637410000000 1.0
C      1  0.5136040000000  0.5341180000000  0.5982650000000 1.0
C      1  0.5058550000000  0.4648680000000  0.5107260000000 1.0
C      1  0.4048660000000  0.5343290000000  0.4945780000000 1.0
C      1  0.4869170000000  0.4707360000000  0.5513880000000 1.0
C      1  0.5738270000000  0.4552780000000  0.5445830000000 1.0
C      1  0.4509120000000  0.5776690000000  0.5556350000000 1.0
C      1  0.5212630000000  0.6034920000000  0.4907770000000 1.0
C      1  0.5299450000000  0.5533420000000  0.4855770000000 1.0
C      1  0.5215530000000  0.4667180000000  0.3882290000000 1.0
C      1  0.5361720000000  0.4523320000000  0.5002880000000 1.0
C      1  0.5054640000000  0.5948080000000  0.5386970000000 1.0
C      1  0.4845450000000  0.5765380000000  0.5070850000000 1.0
C      1  0.5996170000000  0.5017350000000  0.4838300000000 1.0
C      1  0.3986170000000  0.4896270000000  0.4583210000000 1.0
C      1  0.4843100000000  0.5809590000000  0.5615350000000 1.0
C      1  0.5708770000000  0.5258340000000  0.5849960000000 1.0
C      1  0.5422460000000  0.4141470000000  0.4900610000000 1.0
C      1  0.4349480000000  0.4268780000000  0.5319000000000 1.0
C      1  0.5662300000000  0.5693980000000  0.4839230000000 1.0
C      1  0.3878980000000  0.5082270000000  0.5057650000000 1.0
C      1  0.4539080000000  0.4519920000000  0.5181320000000 1.0
C      1  0.5628120000000  0.4293610000000  0.4724930000000 1.0
C      1  0.5769790000000  0.4949720000000  0.4474030000000 1.0
C      1  0.5375550000000  0.4814180000000  0.5960980000000 1.0
C      1  0.5514030000000  0.4358550000000  0.4268100000000 1.0
C      1  0.5881730000000  0.4501320000000  0.5181030000000 1.0
C      1  0.4258850000000  0.5758810000000  0.5123710000000 1.0
C      1  0.4091940000000  0.4663050000000  0.4729000000000 1.0
C      1  0.5466300000000  0.5194830000000  0.4235410000000 1.0
C      1  0.4334200000000  0.6202350000000  0.5334960000000 1.0
C      1  0.5118650000000  0.4996510000000  0.5992690000000 1.0
C      1  0.5434240000000  0.4606720000000  0.5328970000000 1.0
C      1  0.5642110000000  0.5251510000000  0.5243230000000 1.0
C      1  0.4976050000000  0.5592440000000  0.4273890000000 1.0
C      1  0.5366630000000  0.4586860000000  0.4105170000000 1.0
C      1  0.5551150000000  0.4394800000000  0.5647380000000 1.0
C      1  0.5697330000000  0.5447230000000  0.5485400000000 1.0
C      1  0.4135610000000  0.5513880000000  0.5189320000000 1.0
C      1  0.5693800000000  0.4414710000000  0.4996910000000 1.0
C      1  0.4626400000000  0.5400070000000  0.5848070000000 1.0
C      1  0.5375530000000  0.4549370000000  0.5833660000000 1.0
C      1  0.4362630000000  0.4885380000000  0.5850090000000 1.0
C      1  0.4897800000000  0.4870610000000  0.5813460000000 1.0
C      1  0.4624770000000  0.4144650000000  0.4812190000000 1.0
C      1  0.5615350000000  0.4951830000000  0.5955340000000 1.0
C      1  0.3946790000000  0.4791440000000  0.5166580000000 1.0
C      1  0.5427300000000  0.5846260000000  0.4930060000000 1.0
C      1  0.4396910000000  0.5770360000000  0.4837760000000 1.0
C      1  0.4493440000000  0.5070050000000  0.4060440000000 1.0
C      1  0.4305780000000  0.4765820000000  0.5566100000000 1.0
C      1  0.4563660000000  0.5071210000000  0.5891900000000 1.0
C      1  0.5126060000000  0.5707470000000  0.4070630000000 1.0
C      1  0.5096540000000  0.5135930000000  0.4597000000000 1.0
C      1  0.5518300000000  0.5777860000000  0.5357250000000 1.0
C      1  0.4806280000000  0.4633180000000  0.4322870000000 1.0
C      1  0.4809050000000  0.4382970000000  0.4178300000000 1.0
C      1  0.5073590000000  0.6095070000000  0.5154920000000 1.0
C      1  0.5141080000000  0.5483970000000  0.5579840000000 1.0
C      1  0.5464270000000  0.4740040000000  0.4752960000000 1.0
C      1  0.5112170000000  0.4399570000000  0.5438470000000 1.0
C      1  0.4425650000000  0.5690440000000  0.4512510000000 1.0
C      1  0.5427730000000  0.4170520000000  0.5515200000000 1.0
C      1  0.4733840000000  0.5060640000000  0.3910710000000 1.0
C      1  0.4781550000000  0.5107570000000  0.5625670000000 1.0
C      1  0.4406560000000  0.4379640000000  0.4444410000000 1.0
C      1  0.5254790000000  0.3905180000000  0.4962980000000 1.0
C      1  0.5372050000000  0.5245340000000  0.5810320000000 1.0
C      1  0.4608430000000  0.4207620000000  0.4319540000000 1.0
C      1  0.4735410000000  0.5759990000000  0.4389500000000 1.0
C      1  0.4843370000000  0.5203720000000  0.6023940000000 1.0
C      1  0.4409630000000  0.4617710000000  0.4765370000000 1.0
C      1  0.5167060000000  0.4007630000000  0.5490220000000 1.0
C      1  0.5308520000000  0.4248250000000  0.5205020000000 1.0
C      1  0.5778710000000  0.4892090000000  0.5146600000000 1.0
C      1  0.4297880000000  0.5446390000000  0.4800390000000 1.0
C      1  0.6087030000000  0.4655950000000  0.5058160000000 1.0
C      1  0.4566300000000  0.5235470000000  0.5449660000000 1.0
C      1  0.5005470000000  0.5143980000000  0.4095580000000 1.0
C      1  0.5067040000000  0.5320190000000  0.4852600000000 1.0
C      1  0.5576400000000  0.5471250000000  0.4363700000000 1.0
C      1  0.5953190000000  0.5328790000000  0.5626160000000 1.0
C      1  0.4271680000000  0.5389470000000  0.4478090000000 1.0
C      1  0.4231340000000  0.4641810000000  0.5266790000000 1.0
C      1  0.4701780000000  0.4976710000000  0.5035830000000 1.0
C      1  0.5237660000000  0.4937680000000  0.5115400000000 1.0
C      1  0.4865840000000  0.4567670000000  0.5885450000000 1.0
C      1  0.4762540000000  0.4755340000000  0.5227060000000 1.0
C      1  0.5198230000000  0.4725830000000  0.5508570000000 1.0
C      1  0.4430450000000  0.5497140000000  0.5623520000000 1.0
C      1  0.5440330000000  0.5742390000000  0.4315410000000 1.0
C      1  0.4900440000000  0.4844710000000  0.4196120000000 1.0
C      1  0.6063330000000  0.4633210000000  0.4761250000000 1.0
END
