TITL C-2778431-5191-1339 0.0016787227645336 125000 -167.091074106858 0 0 29 (C1) n - 1
REM
REM in /home/nfs/bkarasulu/CARBON/AIRSS/Generating-Clusters/REBO/Only-C1/SD-CG/HFTN-CG
REM
REM
REM
REM
REM
REM ./C.cell (11c1c37f851c82e70ff6c80c92926a4b)
REM
REM compiler GCC version 9.2.1 20190827 (Red Hat 9.2.1-1)
REM options -cpp -mtune=generic -march=x86-64 -g -O0 -fpre-include=/usr/include/finclude/math-vector-fortran.h
REM seed 1221943224 -1084615421 1605206934 -247668230 -821686065 716939298 113395148 256131567 -2081986094 1663694573 -1424629867 1455339050 585426484 2093669509 -1785787823 670564619 1556664837 -273535556 -1129000816 1207025500 1811898193 983013085 1918846608 -1678856409 376868773 -2092485941 799571297 1542866879 -1583739244 -1235265255 -2026762546 695362401 -1269363621
REM
CELL 1.54180   50.00000   50.00000   50.00000   90.00000   90.00000   90.00000
LATT -1
SFAC C  
C      1  0.4389800000000  0.5192530000000  0.4794310000000 1.0
C      1  0.4715290000000  0.4655930000000  0.5114290000000 1.0
C      1  0.4909950000000  0.5292900000000  0.4897650000000 1.0
C      1  0.4915520000000  0.5150300000000  0.5206220000000 1.0
C      1  0.5190150000000  0.5576730000000  0.5291250000000 1.0
C      1  0.5005240000000  0.4550990000000  0.5142310000000 1.0
C      1  0.5416650000000  0.5248900000000  0.4716490000000 1.0
C      1  0.5061530000000  0.4926600000000  0.4626740000000 1.0
C      1  0.4777060000000  0.4900540000000  0.4679200000000 1.0
C      1  0.5347150000000  0.5374830000000  0.5391670000000 1.0
C      1  0.4636420000000  0.4689210000000  0.4814600000000 1.0
C      1  0.5355750000000  0.4827410000000  0.5347290000000 1.0
C      1  0.4257690000000  0.5103930000000  0.5076910000000 1.0
C      1  0.4208260000000  0.4921740000000  0.4808740000000 1.0
C      1  0.5178680000000  0.5096760000000  0.5353690000000 1.0
C      1  0.5813820000000  0.5068730000000  0.4923860000000 1.0
C      1  0.4533740000000  0.4478980000000  0.5245490000000 1.0
C      1  0.5626870000000  0.5054550000000  0.4712790000000 1.0
C      1  0.5143740000000  0.5185980000000  0.4729750000000 1.0
C      1  0.4695860000000  0.4945250000000  0.5239820000000 1.0
C      1  0.4967150000000  0.5484990000000  0.5159390000000 1.0
C      1  0.5539900000000  0.5103470000000  0.5361190000000 1.0
C      1  0.4354630000000  0.4680580000000  0.4763800000000 1.0
C      1  0.5785350000000  0.5103240000000  0.5191480000000 1.0
C      1  0.4667820000000  0.5168620000000  0.4747960000000 1.0
C      1  0.5243920000000  0.4606460000000  0.5251880000000 1.0
C      1  0.5275650000000  0.4758370000000  0.4546590000000 1.0
C      1  0.4441020000000  0.5038600000000  0.5282170000000 1.0
C      1  0.5545410000000  0.4812880000000  0.4582480000000 1.0
END
