TITL C-2778435-5768-328 -0.00222763019889653 125000 -738.2330114419 0 0 126 (C1) n - 1
REM
REM in /home/nfs/bkarasulu/CARBON/AIRSS/Generating-Clusters/REBO/Only-C1/SD-CG/HFTN-CG
REM
REM
REM
REM
REM
REM ./C.cell (11c1c37f851c82e70ff6c80c92926a4b)
REM
REM compiler GCC version 9.2.1 20190827 (Red Hat 9.2.1-1)
REM options -cpp -mtune=generic -march=x86-64 -g -O0 -fpre-include=/usr/include/finclude/math-vector-fortran.h
REM seed -1545304194 -1773637978 1909217045 -996222152 -1303067603 -1606785715 -1054899439 610043784 692549242 155382826 -550866406 1992850066 -1839979769 1635335073 -1801765875 330735821 960135788 -1883129580 -675177578 1207339439 936795383 257828131 296969322 -146889041 -1235633426 704167458 418625992 1457571750 284040373 -750200848 33875545 1275545068 265408993
REM
CELL 1.54180   50.00000   50.00000   50.00000   90.00000   90.00000   90.00000
LATT -1
SFAC C  
C      1  0.4958230000000  0.4704100000000  0.4422280000000 1.0
C      1  0.5353780000000  0.5231220000000  0.4874880000000 1.0
C      1  0.4779930000000  0.4343460000000  0.5365170000000 1.0
C      1  0.4696360000000  0.4974000000000  0.4670860000000 1.0
C      1  0.5908540000000  0.5258070000000  0.4589890000000 1.0
C      1  0.4649020000000  0.4945100000000  0.5744580000000 1.0
C      1  0.4843830000000  0.6037400000000  0.5081090000000 1.0
C      1  0.4715170000000  0.4039880000000  0.5225850000000 1.0
C      1  0.4162890000000  0.5819420000000  0.4995410000000 1.0
C      1  0.5130880000000  0.5616290000000  0.4382950000000 1.0
C      1  0.5587740000000  0.4048720000000  0.4930560000000 1.0
C      1  0.4660210000000  0.4428870000000  0.5667900000000 1.0
C      1  0.5178610000000  0.4085330000000  0.4950470000000 1.0
C      1  0.4773010000000  0.4224560000000  0.4590080000000 1.0
C      1  0.4940080000000  0.4779070000000  0.5121730000000 1.0
C      1  0.5279890000000  0.4372980000000  0.4312730000000 1.0
C      1  0.5295060000000  0.5724830000000  0.4585780000000 1.0
C      1  0.5177570000000  0.5190590000000  0.5455080000000 1.0
C      1  0.5243480000000  0.4009640000000  0.4695790000000 1.0
C      1  0.5273900000000  0.4408240000000  0.4708690000000 1.0
C      1  0.4677890000000  0.5540410000000  0.4229460000000 1.0
C      1  0.4743770000000  0.5447780000000  0.5672270000000 1.0
C      1  0.4528380000000  0.4512600000000  0.4270280000000 1.0
C      1  0.4379960000000  0.5164500000000  0.5407790000000 1.0
C      1  0.5536620000000  0.4321780000000  0.4888170000000 1.0
C      1  0.4781280000000  0.4686460000000  0.5787440000000 1.0
C      1  0.6080080000000  0.5109940000000  0.5277650000000 1.0
C      1  0.5502370000000  0.5513970000000  0.4993360000000 1.0
C      1  0.4262480000000  0.5141910000000  0.4920050000000 1.0
C      1  0.4283560000000  0.4367910000000  0.5290640000000 1.0
C      1  0.4485740000000  0.5483970000000  0.5462700000000 1.0
C      1  0.4488920000000  0.5644960000000  0.4448280000000 1.0
C      1  0.4868900000000  0.5730130000000  0.4380410000000 1.0
C      1  0.5212020000000  0.4095780000000  0.5241770000000 1.0
C      1  0.5076620000000  0.5616630000000  0.5807450000000 1.0
C      1  0.4391750000000  0.4993970000000  0.5658060000000 1.0
C      1  0.4545930000000  0.4716480000000  0.5416120000000 1.0
C      1  0.4959220000000  0.4312910000000  0.4930910000000 1.0
C      1  0.5009770000000  0.5314030000000  0.5843580000000 1.0
C      1  0.5546160000000  0.4315120000000  0.4377330000000 1.0
C      1  0.5095380000000  0.4180910000000  0.4480470000000 1.0
C      1  0.5136150000000  0.5302310000000  0.4289000000000 1.0
C      1  0.5608590000000  0.4985530000000  0.5471050000000 1.0
C      1  0.5365660000000  0.5145370000000  0.4485690000000 1.0
C      1  0.5515500000000  0.4829540000000  0.4287170000000 1.0
C      1  0.5170630000000  0.5014630000000  0.5820090000000 1.0
C      1  0.5002090000000  0.5614410000000  0.4940450000000 1.0
C      1  0.4372430000000  0.4936520000000  0.4210520000000 1.0
C      1  0.4639360000000  0.4760530000000  0.5002980000000 1.0
C      1  0.4199530000000  0.5024230000000  0.5199220000000 1.0
C      1  0.5896440000000  0.5325080000000  0.5319490000000 1.0
C      1  0.5091850000000  0.4991020000000  0.4159560000000 1.0
C      1  0.5087490000000  0.5191900000000  0.4667130000000 1.0
C      1  0.5114820000000  0.6062090000000  0.4978870000000 1.0
C      1  0.5742590000000  0.5039560000000  0.4408240000000 1.0
C      1  0.4797570000000  0.4949680000000  0.4084350000000 1.0
C      1  0.4354220000000  0.4488350000000  0.5563350000000 1.0
C      1  0.5802570000000  0.4737660000000  0.5539440000000 1.0
C      1  0.5293410000000  0.6072950000000  0.5208130000000 1.0
C      1  0.4278480000000  0.5155920000000  0.4455970000000 1.0
C      1  0.5064860000000  0.4697700000000  0.5768670000000 1.0
C      1  0.6017090000000  0.5426110000000  0.4811870000000 1.0
C      1  0.4804780000000  0.5260090000000  0.4224110000000 1.0
C      1  0.4994350000000  0.4895710000000  0.4683110000000 1.0
C      1  0.5236890000000  0.4698880000000  0.4256660000000 1.0
C      1  0.4713490000000  0.4094710000000  0.4889760000000 1.0
C      1  0.4565600000000  0.5077510000000  0.4958880000000 1.0
C      1  0.5033740000000  0.5617030000000  0.5255460000000 1.0
C      1  0.4228820000000  0.4770770000000  0.5665120000000 1.0
C      1  0.4896670000000  0.5371440000000  0.5397840000000 1.0
C      1  0.5669200000000  0.4817710000000  0.5827300000000 1.0
C      1  0.4771540000000  0.4858580000000  0.5373810000000 1.0
C      1  0.4673570000000  0.5219820000000  0.5232740000000 1.0
C      1  0.4820660000000  0.5920890000000  0.5400950000000 1.0
C      1  0.4503380000000  0.4347650000000  0.4488250000000 1.0
C      1  0.5607590000000  0.5347380000000  0.4489390000000 1.0
C      1  0.5166160000000  0.4460460000000  0.5632800000000 1.0
C      1  0.5713840000000  0.4725020000000  0.4543000000000 1.0
C      1  0.5479500000000  0.4907730000000  0.4677490000000 1.0
C      1  0.5658600000000  0.4435480000000  0.4600460000000 1.0
C      1  0.5513780000000  0.4487720000000  0.5164680000000 1.0
C      1  0.5724870000000  0.4898580000000  0.4924580000000 1.0
C      1  0.5455020000000  0.4768120000000  0.5050340000000 1.0
C      1  0.5147420000000  0.5835950000000  0.4802180000000 1.0
C      1  0.5359490000000  0.4956660000000  0.5296970000000 1.0
C      1  0.4832950000000  0.5396430000000  0.4762970000000 1.0
C      1  0.5287940000000  0.5677610000000  0.5624420000000 1.0
C      1  0.4265250000000  0.4757050000000  0.4445910000000 1.0
C      1  0.4454860000000  0.4177710000000  0.5080850000000 1.0
C      1  0.4109170000000  0.4764660000000  0.5139930000000 1.0
C      1  0.4532440000000  0.5773450000000  0.5327880000000 1.0
C      1  0.5467340000000  0.4949930000000  0.5886270000000 1.0
C      1  0.4443850000000  0.5440290000000  0.5125400000000 1.0
C      1  0.4994160000000  0.5287590000000  0.5038190000000 1.0
C      1  0.4989660000000  0.4479290000000  0.5180750000000 1.0
C      1  0.4481010000000  0.4736400000000  0.4702790000000 1.0
C      1  0.4826010000000  0.5771440000000  0.5702790000000 1.0
C      1  0.5731030000000  0.4491630000000  0.5355020000000 1.0
C      1  0.4933460000000  0.4224420000000  0.5646790000000 1.0
C      1  0.5147160000000  0.5021270000000  0.5053610000000 1.0
C      1  0.4425310000000  0.5846070000000  0.5073400000000 1.0
C      1  0.4437640000000  0.4507920000000  0.5025740000000 1.0
C      1  0.5354560000000  0.5586940000000  0.5242580000000 1.0
C      1  0.6057890000000  0.4810510000000  0.5385430000000 1.0
C      1  0.5508720000000  0.5569130000000  0.4672180000000 1.0
C      1  0.4148310000000  0.4957550000000  0.4690010000000 1.0
C      1  0.4120530000000  0.4692660000000  0.4869110000000 1.0
C      1  0.5269820000000  0.4399770000000  0.5324650000000 1.0
C      1  0.5680300000000  0.5262440000000  0.5490670000000 1.0
C      1  0.4296480000000  0.5434930000000  0.4567720000000 1.0
C      1  0.4984600000000  0.4005870000000  0.5401700000000 1.0
C      1  0.5160630000000  0.5885600000000  0.5419030000000 1.0
C      1  0.5243960000000  0.4732920000000  0.4795430000000 1.0
C      1  0.4605190000000  0.5092620000000  0.4403000000000 1.0
C      1  0.4922740000000  0.5024260000000  0.5589770000000 1.0
C      1  0.4640940000000  0.5935560000000  0.4900370000000 1.0
C      1  0.4304700000000  0.4448630000000  0.4720000000000 1.0
C      1  0.5420640000000  0.5415000000000  0.5501180000000 1.0
C      1  0.4715150000000  0.4716810000000  0.4232910000000 1.0
C      1  0.5981510000000  0.4867770000000  0.5076650000000 1.0
C      1  0.4950190000000  0.4500840000000  0.4659390000000 1.0
C      1  0.5810570000000  0.5440120000000  0.5059470000000 1.0
C      1  0.4205910000000  0.5456360000000  0.4884450000000 1.0
C      1  0.4545350000000  0.5444050000000  0.4800140000000 1.0
C      1  0.4665090000000  0.5839810000000  0.4629510000000 1.0
C      1  0.5691690000000  0.5197820000000  0.4848820000000 1.0
END
