TITL C-2778428-5639-478 -0.00325150015856417 125000 -1128.72344047104 0 0 192 (C1) n - 1
REM
REM in /home/nfs/bkarasulu/CARBON/AIRSS/Generating-Clusters/REBO/Only-C1/SD-CG/HFTN-CG
REM
REM
REM
REM
REM
REM ./C.cell (11c1c37f851c82e70ff6c80c92926a4b)
REM
REM compiler GCC version 9.2.1 20190827 (Red Hat 9.2.1-1)
REM options -cpp -mtune=generic -march=x86-64 -g -O0 -fpre-include=/usr/include/finclude/math-vector-fortran.h
REM seed 583738245 -55722959 -21584656 509473804 557251000 1654334660 -1932902205 -1297129462 1486643372 -875946555 -1859150494 -2040472935 -73063950 -410911121 498615556 1986688028 -2101156507 -4133678 1072287611 -1914461952 1277091948 1398172891 1115486922 -539860170 69415813 -201341047 864663089 675356421 1893009298 -1852438968 -1048874245 -1164968686 828695740
REM
CELL 1.54180   50.00000   50.00000   50.00000   90.00000   90.00000   90.00000
LATT -1
SFAC C  
C      1  0.5737580000000  0.5711050000000  0.5320540000000 1.0
C      1  0.5323020000000  0.4835710000000  0.6106930000000 1.0
C      1  0.5067460000000  0.5493650000000  0.5743210000000 1.0
C      1  0.4358810000000  0.4932660000000  0.4454700000000 1.0
C      1  0.6031940000000  0.4573790000000  0.5265890000000 1.0
C      1  0.4474850000000  0.5246360000000  0.4419160000000 1.0
C      1  0.4793020000000  0.4779920000000  0.6044490000000 1.0
C      1  0.4635030000000  0.4280090000000  0.4112450000000 1.0
C      1  0.4867000000000  0.5241400000000  0.5148660000000 1.0
C      1  0.4502290000000  0.4356220000000  0.5440700000000 1.0
C      1  0.5290200000000  0.5898120000000  0.5488410000000 1.0
C      1  0.5894790000000  0.4431020000000  0.4855540000000 1.0
C      1  0.5614540000000  0.4353790000000  0.4397410000000 1.0
C      1  0.4289410000000  0.4619010000000  0.5101510000000 1.0
C      1  0.4998770000000  0.4254180000000  0.4822810000000 1.0
C      1  0.4122590000000  0.4468030000000  0.4385900000000 1.0
C      1  0.4608280000000  0.4359100000000  0.5718820000000 1.0
C      1  0.4858910000000  0.4747400000000  0.4486250000000 1.0
C      1  0.4246120000000  0.4659720000000  0.5698120000000 1.0
C      1  0.4615520000000  0.5489320000000  0.5942260000000 1.0
C      1  0.4278180000000  0.4908060000000  0.5388340000000 1.0
C      1  0.5040040000000  0.4148660000000  0.4349740000000 1.0
C      1  0.4084570000000  0.5672540000000  0.4863480000000 1.0
C      1  0.4670600000000  0.4930160000000  0.5773950000000 1.0
C      1  0.5208440000000  0.4939720000000  0.4255740000000 1.0
C      1  0.5073340000000  0.5784570000000  0.5658740000000 1.0
C      1  0.4849500000000  0.4695960000000  0.5504250000000 1.0
C      1  0.5392690000000  0.5120190000000  0.5350300000000 1.0
C      1  0.5700840000000  0.5007140000000  0.4973810000000 1.0
C      1  0.5246530000000  0.4362090000000  0.5407370000000 1.0
C      1  0.4658000000000  0.5630350000000  0.5002150000000 1.0
C      1  0.4885560000000  0.5094240000000  0.3811100000000 1.0
C      1  0.5843900000000  0.4946790000000  0.5476190000000 1.0
C      1  0.5391230000000  0.5480370000000  0.4986050000000 1.0
C      1  0.4817000000000  0.4008050000000  0.4672210000000 1.0
C      1  0.4867520000000  0.4870180000000  0.5011020000000 1.0
C      1  0.5444570000000  0.4473680000000  0.4193670000000 1.0
C      1  0.4544940000000  0.5207620000000  0.5820550000000 1.0
C      1  0.5702740000000  0.5162710000000  0.5907730000000 1.0
C      1  0.5505720000000  0.4120770000000  0.4524240000000 1.0
C      1  0.4852900000000  0.5639230000000  0.4092570000000 1.0
C      1  0.4508810000000  0.5993470000000  0.5156500000000 1.0
C      1  0.4962620000000  0.4543450000000  0.5726060000000 1.0
C      1  0.4899910000000  0.5020370000000  0.4772830000000 1.0
C      1  0.4939460000000  0.5404960000000  0.4675230000000 1.0
C      1  0.5525750000000  0.4583470000000  0.4849170000000 1.0
C      1  0.4500170000000  0.4102830000000  0.4604590000000 1.0
C      1  0.4901770000000  0.5387380000000  0.5979450000000 1.0
C      1  0.4570830000000  0.5713140000000  0.4529530000000 1.0
C      1  0.5022600000000  0.4357000000000  0.5143420000000 1.0
C      1  0.4916210000000  0.4531690000000  0.4735130000000 1.0
C      1  0.5075180000000  0.5253420000000  0.3787170000000 1.0
C      1  0.5360350000000  0.5210130000000  0.4697170000000 1.0
C      1  0.5653010000000  0.5326370000000  0.5005770000000 1.0
C      1  0.5280750000000  0.5365530000000  0.3991090000000 1.0
C      1  0.5318380000000  0.5114890000000  0.6005220000000 1.0
C      1  0.5752810000000  0.4529970000000  0.4601580000000 1.0
C      1  0.5651430000000  0.4876810000000  0.4245630000000 1.0
C      1  0.5209810000000  0.5260700000000  0.4281640000000 1.0
C      1  0.4748840000000  0.5602640000000  0.4723490000000 1.0
C      1  0.4423440000000  0.4046350000000  0.5174550000000 1.0
C      1  0.4658770000000  0.5299900000000  0.4168360000000 1.0
C      1  0.3935150000000  0.5254810000000  0.4487160000000 1.0
C      1  0.5515200000000  0.5699340000000  0.4457220000000 1.0
C      1  0.5279770000000  0.5333730000000  0.6147590000000 1.0
C      1  0.4031890000000  0.5088920000000  0.5010640000000 1.0
C      1  0.5165580000000  0.4723050000000  0.4745720000000 1.0
C      1  0.5536020000000  0.4328680000000  0.5557940000000 1.0
C      1  0.5743480000000  0.5593590000000  0.4613130000000 1.0
C      1  0.4469930000000  0.4875180000000  0.4749300000000 1.0
C      1  0.5709370000000  0.5918110000000  0.5123560000000 1.0
C      1  0.5791120000000  0.4510950000000  0.5689600000000 1.0
C      1  0.5083380000000  0.5333360000000  0.4948370000000 1.0
C      1  0.5468700000000  0.5766020000000  0.4846470000000 1.0
C      1  0.5601640000000  0.4873540000000  0.5257220000000 1.0
C      1  0.5205040000000  0.4117660000000  0.5857760000000 1.0
C      1  0.4152550000000  0.5245980000000  0.4320300000000 1.0
C      1  0.5292690000000  0.4778780000000  0.5017240000000 1.0
C      1  0.5153470000000  0.5834650000000  0.4368370000000 1.0
C      1  0.5133050000000  0.5853580000000  0.4891550000000 1.0
C      1  0.4703600000000  0.4330590000000  0.5199450000000 1.0
C      1  0.5142930000000  0.4378220000000  0.4227950000000 1.0
C      1  0.5707550000000  0.4918890000000  0.5855090000000 1.0
C      1  0.4556640000000  0.5992360000000  0.4865620000000 1.0
C      1  0.5048050000000  0.5536770000000  0.5345940000000 1.0
C      1  0.4544260000000  0.4633820000000  0.5856950000000 1.0
C      1  0.5049640000000  0.3848990000000  0.4843020000000 1.0
C      1  0.5368400000000  0.5114570000000  0.5693560000000 1.0
C      1  0.5744510000000  0.5320390000000  0.4699030000000 1.0
C      1  0.4847010000000  0.5988040000000  0.4764520000000 1.0
C      1  0.4339360000000  0.5800840000000  0.5309480000000 1.0
C      1  0.4012650000000  0.5342780000000  0.5227100000000 1.0
C      1  0.4149680000000  0.4963540000000  0.5684440000000 1.0
C      1  0.4236520000000  0.5053820000000  0.4095890000000 1.0
C      1  0.5248010000000  0.4828630000000  0.5581220000000 1.0
C      1  0.5534580000000  0.5407190000000  0.5743540000000 1.0
C      1  0.5219270000000  0.4676480000000  0.5316640000000 1.0
C      1  0.4970730000000  0.4964400000000  0.5327000000000 1.0
C      1  0.3887060000000  0.5247690000000  0.4756190000000 1.0
C      1  0.5481510000000  0.4743830000000  0.5787760000000 1.0
C      1  0.5841680000000  0.5451910000000  0.5210860000000 1.0
C      1  0.4483470000000  0.4628280000000  0.4438650000000 1.0
C      1  0.4609040000000  0.4588100000000  0.4752540000000 1.0
C      1  0.5317130000000  0.6134440000000  0.4873480000000 1.0
C      1  0.5374670000000  0.3907730000000  0.4757840000000 1.0
C      1  0.4155470000000  0.5263390000000  0.5524260000000 1.0
C      1  0.4741960000000  0.6142600000000  0.5565790000000 1.0
C      1  0.5784060000000  0.4349690000000  0.5325630000000 1.0
C      1  0.4764320000000  0.5617950000000  0.5259150000000 1.0
C      1  0.4732380000000  0.4092690000000  0.4353220000000 1.0
C      1  0.4645600000000  0.4612890000000  0.4158000000000 1.0
C      1  0.3874960000000  0.4682890000000  0.4489540000000 1.0
C      1  0.6035170000000  0.4659730000000  0.4981040000000 1.0
C      1  0.5228340000000  0.5688640000000  0.5155730000000 1.0
C      1  0.4493500000000  0.4430150000000  0.4984630000000 1.0
C      1  0.4664420000000  0.5274200000000  0.5553510000000 1.0
C      1  0.4874180000000  0.6321250000000  0.5127090000000 1.0
C      1  0.5828030000000  0.5127850000000  0.4500970000000 1.0
C      1  0.4809790000000  0.4866760000000  0.4001650000000 1.0
C      1  0.5151150000000  0.5002580000000  0.4581450000000 1.0
C      1  0.4998670000000  0.3885310000000  0.5144260000000 1.0
C      1  0.5346750000000  0.5429110000000  0.5458060000000 1.0
C      1  0.4652930000000  0.5111730000000  0.4654590000000 1.0
C      1  0.6039100000000  0.5521200000000  0.4870140000000 1.0
C      1  0.5189500000000  0.4129800000000  0.4603050000000 1.0
C      1  0.5274890000000  0.4703230000000  0.4043970000000 1.0
C      1  0.4369030000000  0.4157000000000  0.4865390000000 1.0
C      1  0.4780180000000  0.4101920000000  0.5573620000000 1.0
C      1  0.5157670000000  0.4637650000000  0.4418420000000 1.0
C      1  0.6093760000000  0.5184260000000  0.4833730000000 1.0
C      1  0.5851830000000  0.5444050000000  0.5676600000000 1.0
C      1  0.5655000000000  0.5267330000000  0.4313070000000 1.0
C      1  0.5396040000000  0.4519500000000  0.6003170000000 1.0
C      1  0.5436560000000  0.4262180000000  0.5855600000000 1.0
C      1  0.5489390000000  0.4806870000000  0.4497560000000 1.0
C      1  0.5942770000000  0.5066940000000  0.5183720000000 1.0
C      1  0.4089970000000  0.4322990000000  0.4921310000000 1.0
C      1  0.4686420000000  0.6181020000000  0.5292150000000 1.0
C      1  0.5423870000000  0.5402090000000  0.4468100000000 1.0
C      1  0.5948780000000  0.4674720000000  0.5535550000000 1.0
C      1  0.5367670000000  0.5955990000000  0.4585570000000 1.0
C      1  0.5933680000000  0.5268950000000  0.5463330000000 1.0
C      1  0.5812510000000  0.5776300000000  0.4859940000000 1.0
C      1  0.4812610000000  0.5906450000000  0.5702160000000 1.0
C      1  0.5076100000000  0.4641880000000  0.6007260000000 1.0
C      1  0.5007110000000  0.6229130000000  0.4907140000000 1.0
C      1  0.4604130000000  0.5701830000000  0.5729040000000 1.0
C      1  0.4919870000000  0.5102040000000  0.6030360000000 1.0
C      1  0.6039340000000  0.4902960000000  0.4787980000000 1.0
C      1  0.4313180000000  0.5846120000000  0.4678620000000 1.0
C      1  0.6146120000000  0.5334770000000  0.5131970000000 1.0
C      1  0.3747000000000  0.4747170000000  0.4780410000000 1.0
C      1  0.4380150000000  0.5200600000000  0.5281960000000 1.0
C      1  0.4297260000000  0.4940600000000  0.4991080000000 1.0
C      1  0.5509260000000  0.5696420000000  0.5473590000000 1.0
C      1  0.4221040000000  0.4466070000000  0.5461010000000 1.0
C      1  0.5577780000000  0.4560300000000  0.5185320000000 1.0
C      1  0.5529520000000  0.5143840000000  0.4072570000000 1.0
C      1  0.3922910000000  0.5467390000000  0.4949870000000 1.0
C      1  0.3832810000000  0.4836660000000  0.5021370000000 1.0
C      1  0.4209590000000  0.5572430000000  0.5382190000000 1.0
C      1  0.4578190000000  0.4757220000000  0.5399810000000 1.0
C      1  0.3987860000000  0.4439520000000  0.4697170000000 1.0
C      1  0.5079640000000  0.4070870000000  0.5414980000000 1.0
C      1  0.5886640000000  0.4812170000000  0.4496340000000 1.0
C      1  0.4595670000000  0.4868840000000  0.5128120000000 1.0
C      1  0.4192420000000  0.4251550000000  0.5211090000000 1.0
C      1  0.4490610000000  0.5145870000000  0.3988650000000 1.0
C      1  0.5341500000000  0.4373250000000  0.5023600000000 1.0
C      1  0.4902600000000  0.5925120000000  0.4459780000000 1.0
C      1  0.5540960000000  0.4958520000000  0.4721660000000 1.0
C      1  0.5768260000000  0.4241480000000  0.5025670000000 1.0
C      1  0.4812720000000  0.4964350000000  0.4305250000000 1.0
C      1  0.4880180000000  0.4386420000000  0.3926790000000 1.0
C      1  0.5011390000000  0.4948040000000  0.5759330000000 1.0
C      1  0.4402460000000  0.4315530000000  0.4358920000000 1.0
C      1  0.4717830000000  0.3999530000000  0.5266290000000 1.0
C      1  0.4120570000000  0.4792570000000  0.4281410000000 1.0
C      1  0.4380690000000  0.5646630000000  0.4944080000000 1.0
C      1  0.4641870000000  0.5688920000000  0.4260060000000 1.0
C      1  0.5290320000000  0.4061770000000  0.5148250000000 1.0
C      1  0.5139750000000  0.5632110000000  0.4152540000000 1.0
C      1  0.4985000000000  0.4256360000000  0.5754210000000 1.0
C      1  0.4918130000000  0.5270500000000  0.4388870000000 1.0
C      1  0.5313570000000  0.5092640000000  0.5020520000000 1.0
C      1  0.5393320000000  0.5986050000000  0.5170500000000 1.0
C      1  0.4996960000000  0.5246540000000  0.5519500000000 1.0
C      1  0.4595280000000  0.5543900000000  0.5477710000000 1.0
C      1  0.4600040000000  0.5267610000000  0.5158820000000 1.0
C      1  0.4034760000000  0.4751480000000  0.5224330000000 1.0
C      1  0.5009800000000  0.4626680000000  0.3944940000000 1.0
C      1  0.5569100000000  0.4047570000000  0.4980880000000 1.0
END
