TITL C-2778424-3986-408 -0.00647537710629334 125000 -406.524829024804 0 0 70 (C1) n - 1
REM
REM in /home/nfs/bkarasulu/CARBON/AIRSS/Generating-Clusters/REBO/Only-C1/SD-CG/HFTN-CG
REM
REM
REM
REM
REM
REM ./C.cell (11c1c37f851c82e70ff6c80c92926a4b)
REM
REM compiler GCC version 9.2.1 20190827 (Red Hat 9.2.1-1)
REM options -cpp -mtune=generic -march=x86-64 -g -O0 -fpre-include=/usr/include/finclude/math-vector-fortran.h
REM seed -1501230696 1700311591 1548230831 -806218472 -1251466405 -827407647 -1187588272 689461425 603018863 -1736986331 1602705625 972329173 -2055610102 1171737405 393402471 1531066169 -1278854533 -1721575738 -1634191325 526575062 801077323 1092983784 -1065764594 -2003024141 -568417236 -1747142713 -541743482 -83014250 -779103446 -1486302196 -1869374476 -1532999776 2026722252
REM
CELL 1.54180   50.00000   50.00000   50.00000   90.00000   90.00000   90.00000
LATT -1
SFAC C  
C      1  0.4892440000000  0.4455600000000  0.4479960000000 1.0
C      1  0.4853870000000  0.5711270000000  0.5020030000000 1.0
C      1  0.5267940000000  0.5564310000000  0.5223850000000 1.0
C      1  0.5042360000000  0.5230500000000  0.5000240000000 1.0
C      1  0.4669750000000  0.4635000000000  0.4447410000000 1.0
C      1  0.5207750000000  0.4967570000000  0.4582490000000 1.0
C      1  0.4363080000000  0.4723050000000  0.4893420000000 1.0
C      1  0.4251520000000  0.4995190000000  0.4856640000000 1.0
C      1  0.4861090000000  0.4737870000000  0.5252650000000 1.0
C      1  0.4148000000000  0.5613900000000  0.5231400000000 1.0
C      1  0.4125850000000  0.5079640000000  0.5102570000000 1.0
C      1  0.4967520000000  0.4718560000000  0.4948500000000 1.0
C      1  0.4178340000000  0.4879370000000  0.5306230000000 1.0
C      1  0.5060050000000  0.5003400000000  0.5474230000000 1.0
C      1  0.4790710000000  0.4966420000000  0.4838010000000 1.0
C      1  0.5839840000000  0.5153530000000  0.5009450000000 1.0
C      1  0.5282190000000  0.5274280000000  0.4025160000000 1.0
C      1  0.5142840000000  0.4471450000000  0.4905030000000 1.0
C      1  0.5122070000000  0.5516110000000  0.5475690000000 1.0
C      1  0.5300260000000  0.4741420000000  0.5654640000000 1.0
C      1  0.4475700000000  0.4614150000000  0.4657600000000 1.0
C      1  0.4967200000000  0.4735270000000  0.5638830000000 1.0
C      1  0.5686480000000  0.5389400000000  0.4982930000000 1.0
C      1  0.4699400000000  0.5691190000000  0.5258640000000 1.0
C      1  0.5838480000000  0.4719510000000  0.4764640000000 1.0
C      1  0.4572030000000  0.5356890000000  0.4658470000000 1.0
C      1  0.5311050000000  0.4476070000000  0.4667830000000 1.0
C      1  0.4536090000000  0.4968700000000  0.5599760000000 1.0
C      1  0.4545440000000  0.4534180000000  0.5381590000000 1.0
C      1  0.3954140000000  0.5800480000000  0.5273450000000 1.0
C      1  0.4677930000000  0.4695720000000  0.5605970000000 1.0
C      1  0.5102840000000  0.4456050000000  0.5393280000000 1.0
C      1  0.4352690000000  0.4661760000000  0.5193700000000 1.0
C      1  0.5361870000000  0.5152130000000  0.4263790000000 1.0
C      1  0.4775590000000  0.5364810000000  0.4836100000000 1.0
C      1  0.5501370000000  0.5183850000000  0.5392600000000 1.0
C      1  0.4747030000000  0.4900680000000  0.4372330000000 1.0
C      1  0.5442340000000  0.4868490000000  0.5076070000000 1.0
C      1  0.4854190000000  0.4279580000000  0.4705760000000 1.0
C      1  0.4806160000000  0.4266710000000  0.4972350000000 1.0
C      1  0.4859390000000  0.5628090000000  0.5486280000000 1.0
C      1  0.5121640000000  0.5621900000000  0.4979970000000 1.0
C      1  0.5197990000000  0.4767200000000  0.5270380000000 1.0
C      1  0.5226820000000  0.5163490000000  0.5241560000000 1.0
C      1  0.4255000000000  0.4970950000000  0.5563890000000 1.0
C      1  0.4420350000000  0.5678780000000  0.5255020000000 1.0
C      1  0.4356300000000  0.5185890000000  0.4673990000000 1.0
C      1  0.5164840000000  0.4551420000000  0.4439460000000 1.0
C      1  0.5520800000000  0.5430360000000  0.5210500000000 1.0
C      1  0.5490180000000  0.4830640000000  0.4680920000000 1.0
C      1  0.4702220000000  0.4992170000000  0.5340030000000 1.0
C      1  0.5555430000000  0.4471890000000  0.5173430000000 1.0
C      1  0.5268320000000  0.4384250000000  0.5136680000000 1.0
C      1  0.5214910000000  0.5541660000000  0.4725050000000 1.0
C      1  0.5276670000000  0.4819950000000  0.4298430000000 1.0
C      1  0.4803960000000  0.4400970000000  0.5251430000000 1.0
C      1  0.5751890000000  0.4840490000000  0.4477360000000 1.0
C      1  0.5432930000000  0.4521110000000  0.5472360000000 1.0
C      1  0.5719810000000  0.4896750000000  0.5001380000000 1.0
C      1  0.5187260000000  0.5274490000000  0.5621260000000 1.0
C      1  0.5568900000000  0.4552390000000  0.4866880000000 1.0
C      1  0.5377430000000  0.5331970000000  0.4498550000000 1.0
C      1  0.4083030000000  0.5349180000000  0.5162740000000 1.0
C      1  0.5183980000000  0.4960690000000  0.4901450000000 1.0
C      1  0.5595010000000  0.4908630000000  0.4247050000000 1.0
C      1  0.5447720000000  0.5683770000000  0.4542210000000 1.0
C      1  0.5414350000000  0.5022790000000  0.5654400000000 1.0
C      1  0.4724390000000  0.5163710000000  0.5099150000000 1.0
C      1  0.5606450000000  0.5469220000000  0.4728260000000 1.0
C      1  0.4896570000000  0.5031130000000  0.4576660000000 1.0
END
