TITL C-2778434-4341-1451 -0.00942034527713191 125000 -1033.37155180259 0 0 173 (C1) n - 1
REM
REM in /home/nfs/bkarasulu/CARBON/AIRSS/Generating-Clusters/REBO/Only-C1/SD-CG/HFTN-CG
REM
REM
REM
REM
REM
REM ./C.cell (11c1c37f851c82e70ff6c80c92926a4b)
REM
REM compiler GCC version 9.2.1 20190827 (Red Hat 9.2.1-1)
REM options -cpp -mtune=generic -march=x86-64 -g -O0 -fpre-include=/usr/include/finclude/math-vector-fortran.h
REM seed 46584207 1344213723 1347678989 798412389 197907736 -887738372 -979247190 -851372499 -337057499 974134489 736304657 -1561707839 -870337439 -583210697 -696312226 1160847916 -248807707 -1159196737 1637907501 538847316 914168376 -149637891 -1087480395 1838215830 1252526941 -571631020 -1849900525 405367896 748604634 1095629822 -461021665 1021410742 -569841933
REM
CELL 1.54180   50.00000   50.00000   50.00000   90.00000   90.00000   90.00000
LATT -1
SFAC C  
C      1  0.4704020000000  0.5752650000000  0.4874010000000 1.0
C      1  0.4269610000000  0.5433610000000  0.5294580000000 1.0
C      1  0.5912980000000  0.5221010000000  0.5340690000000 1.0
C      1  0.5573420000000  0.4449600000000  0.5657900000000 1.0
C      1  0.5177400000000  0.5329850000000  0.4229830000000 1.0
C      1  0.5470280000000  0.4902290000000  0.4121110000000 1.0
C      1  0.5134420000000  0.4224590000000  0.4299560000000 1.0
C      1  0.4725860000000  0.5522400000000  0.4070880000000 1.0
C      1  0.5840010000000  0.5126090000000  0.5822030000000 1.0
C      1  0.4613630000000  0.5877450000000  0.4504900000000 1.0
C      1  0.4371090000000  0.4282660000000  0.4933630000000 1.0
C      1  0.5184060000000  0.5521920000000  0.5986460000000 1.0
C      1  0.4722800000000  0.4928320000000  0.3778380000000 1.0
C      1  0.5676280000000  0.5782850000000  0.4629460000000 1.0
C      1  0.5631470000000  0.5450910000000  0.4266920000000 1.0
C      1  0.4541910000000  0.4995860000000  0.5994830000000 1.0
C      1  0.4916250000000  0.4674540000000  0.4462720000000 1.0
C      1  0.5671360000000  0.5312480000000  0.5679230000000 1.0
C      1  0.4746510000000  0.5977930000000  0.5585410000000 1.0
C      1  0.6004350000000  0.5077280000000  0.4647150000000 1.0
C      1  0.5109040000000  0.4829920000000  0.5449500000000 1.0
C      1  0.5172320000000  0.5282350000000  0.6113650000000 1.0
C      1  0.5231300000000  0.5006770000000  0.5832170000000 1.0
C      1  0.4367340000000  0.4720440000000  0.4195130000000 1.0
C      1  0.4409270000000  0.5819350000000  0.5122390000000 1.0
C      1  0.5611520000000  0.4951270000000  0.5493140000000 1.0
C      1  0.4860070000000  0.4535840000000  0.4987920000000 1.0
C      1  0.4045460000000  0.4734420000000  0.5505970000000 1.0
C      1  0.3901880000000  0.4821120000000  0.4846800000000 1.0
C      1  0.5267470000000  0.4895600000000  0.5154240000000 1.0
C      1  0.4294960000000  0.4936270000000  0.5881440000000 1.0
C      1  0.5065510000000  0.5411700000000  0.4959130000000 1.0
C      1  0.4321140000000  0.5348970000000  0.5679890000000 1.0
C      1  0.4650910000000  0.5268520000000  0.5645470000000 1.0
C      1  0.4719320000000  0.4291320000000  0.5122800000000 1.0
C      1  0.5745400000000  0.4794640000000  0.5272720000000 1.0
C      1  0.4736640000000  0.5081250000000  0.4206170000000 1.0
C      1  0.5171320000000  0.4840770000000  0.4374510000000 1.0
C      1  0.4964710000000  0.5795090000000  0.5282180000000 1.0
C      1  0.4969780000000  0.5030430000000  0.3886150000000 1.0
C      1  0.6149870000000  0.4961850000000  0.4870020000000 1.0
C      1  0.4533210000000  0.5561880000000  0.4547800000000 1.0
C      1  0.4219090000000  0.4294910000000  0.4410850000000 1.0
C      1  0.4121350000000  0.4813940000000  0.5049850000000 1.0
C      1  0.4832390000000  0.5100230000000  0.4519020000000 1.0
C      1  0.4722830000000  0.4741220000000  0.5436060000000 1.0
C      1  0.5111790000000  0.5162590000000  0.5406320000000 1.0
C      1  0.4661190000000  0.5270490000000  0.6044630000000 1.0
C      1  0.4539130000000  0.5591230000000  0.5666700000000 1.0
C      1  0.3967580000000  0.5011830000000  0.5554340000000 1.0
C      1  0.5486020000000  0.5059970000000  0.5131810000000 1.0
C      1  0.5200130000000  0.5963430000000  0.5056080000000 1.0
C      1  0.6041280000000  0.5028550000000  0.5141920000000 1.0
C      1  0.4192020000000  0.4385640000000  0.4670870000000 1.0
C      1  0.5933810000000  0.4584070000000  0.4824420000000 1.0
C      1  0.5899950000000  0.4846010000000  0.5638360000000 1.0
C      1  0.5831570000000  0.4907530000000  0.4500890000000 1.0
C      1  0.4413890000000  0.5861760000000  0.4782040000000 1.0
C      1  0.4219930000000  0.5636570000000  0.4661320000000 1.0
C      1  0.4947150000000  0.5893350000000  0.5742740000000 1.0
C      1  0.4602810000000  0.5372830000000  0.5255890000000 1.0
C      1  0.5165030000000  0.4286750000000  0.5054510000000 1.0
C      1  0.4639860000000  0.4067730000000  0.4921960000000 1.0
C      1  0.5923730000000  0.5529580000000  0.5270010000000 1.0
C      1  0.4971270000000  0.6007930000000  0.4730150000000 1.0
C      1  0.4464330000000  0.4582220000000  0.5495960000000 1.0
C      1  0.5476820000000  0.5798700000000  0.5142780000000 1.0
C      1  0.4627030000000  0.4721610000000  0.4647200000000 1.0
C      1  0.5093940000000  0.5400840000000  0.4488760000000 1.0
C      1  0.4649460000000  0.4797750000000  0.4332310000000 1.0
C      1  0.4918040000000  0.5990610000000  0.4404210000000 1.0
C      1  0.4585830000000  0.4408860000000  0.4727070000000 1.0
C      1  0.5235280000000  0.5995730000000  0.4514600000000 1.0
C      1  0.5202410000000  0.4346670000000  0.5363280000000 1.0
C      1  0.4976800000000  0.4569280000000  0.5292630000000 1.0
C      1  0.4140950000000  0.4820990000000  0.4374810000000 1.0
C      1  0.4739170000000  0.4831830000000  0.4995360000000 1.0
C      1  0.5971990000000  0.4500070000000  0.5127120000000 1.0
C      1  0.4792250000000  0.4133340000000  0.5665380000000 1.0
C      1  0.4915660000000  0.4447430000000  0.4680200000000 1.0
C      1  0.4351660000000  0.4391160000000  0.5237640000000 1.0
C      1  0.4264710000000  0.5167360000000  0.4530390000000 1.0
C      1  0.5498920000000  0.4902200000000  0.4447260000000 1.0
C      1  0.5519260000000  0.5265920000000  0.4797330000000 1.0
C      1  0.5292540000000  0.4352290000000  0.5662200000000 1.0
C      1  0.5150910000000  0.4839650000000  0.4033740000000 1.0
C      1  0.4132720000000  0.4631420000000  0.5263060000000 1.0
C      1  0.4868370000000  0.3891410000000  0.4909160000000 1.0
C      1  0.4981540000000  0.3867690000000  0.5184040000000 1.0
C      1  0.4925020000000  0.5060870000000  0.6082180000000 1.0
C      1  0.5239350000000  0.4007040000000  0.5155700000000 1.0
C      1  0.4871500000000  0.4306020000000  0.5873290000000 1.0
C      1  0.4372070000000  0.4889110000000  0.4695530000000 1.0
C      1  0.5522210000000  0.4956700000000  0.4748650000000 1.0
C      1  0.5371710000000  0.3975020000000  0.4620890000000 1.0
C      1  0.5766180000000  0.5517780000000  0.4523550000000 1.0
C      1  0.4687520000000  0.5529920000000  0.5945240000000 1.0
C      1  0.4490640000000  0.5847530000000  0.5451570000000 1.0
C      1  0.5678150000000  0.4752670000000  0.4963510000000 1.0
C      1  0.4374160000000  0.4994920000000  0.5001980000000 1.0
C      1  0.4663450000000  0.4204470000000  0.4487040000000 1.0
C      1  0.5504740000000  0.3923380000000  0.5093640000000 1.0
C      1  0.4770460000000  0.5752400000000  0.4226090000000 1.0
C      1  0.4439780000000  0.4446420000000  0.5807390000000 1.0
C      1  0.5508840000000  0.5894840000000  0.4422970000000 1.0
C      1  0.4240120000000  0.4678440000000  0.5737850000000 1.0
C      1  0.5697770000000  0.5045660000000  0.6064470000000 1.0
C      1  0.5089750000000  0.4950180000000  0.4688070000000 1.0
C      1  0.4785570000000  0.5402140000000  0.4596890000000 1.0
C      1  0.4491160000000  0.5520470000000  0.4975310000000 1.0
C      1  0.5548980000000  0.4455410000000  0.4853770000000 1.0
C      1  0.5075510000000  0.3949800000000  0.4708250000000 1.0
C      1  0.5425440000000  0.5509570000000  0.4776500000000 1.0
C      1  0.5420640000000  0.5503010000000  0.5259040000000 1.0
C      1  0.5054110000000  0.4209920000000  0.4569120000000 1.0
C      1  0.5884250000000  0.4626340000000  0.4543800000000 1.0
C      1  0.5603090000000  0.5292750000000  0.5288210000000 1.0
C      1  0.5522550000000  0.4576720000000  0.4216750000000 1.0
C      1  0.4591180000000  0.4215840000000  0.5406630000000 1.0
C      1  0.5542760000000  0.4373590000000  0.5355760000000 1.0
C      1  0.5784840000000  0.5539320000000  0.5544650000000 1.0
C      1  0.4914580000000  0.4346810000000  0.4106270000000 1.0
C      1  0.4818360000000  0.3958950000000  0.5397470000000 1.0
C      1  0.4460650000000  0.5416580000000  0.4093630000000 1.0
C      1  0.3791930000000  0.5020480000000  0.4671140000000 1.0
C      1  0.5530180000000  0.5722060000000  0.4191920000000 1.0
C      1  0.5686540000000  0.4460310000000  0.4420830000000 1.0
C      1  0.5601180000000  0.3970730000000  0.4832930000000 1.0
C      1  0.4864880000000  0.5997150000000  0.5047070000000 1.0
C      1  0.5163200000000  0.5389740000000  0.5217250000000 1.0
C      1  0.4937240000000  0.5291890000000  0.4053830000000 1.0
C      1  0.3968170000000  0.5071520000000  0.4448880000000 1.0
C      1  0.4127680000000  0.4677360000000  0.4673960000000 1.0
C      1  0.5176010000000  0.4768280000000  0.4914560000000 1.0
C      1  0.4154020000000  0.5139890000000  0.5737090000000 1.0
C      1  0.4372510000000  0.5379970000000  0.4348210000000 1.0
C      1  0.4125830000000  0.5382550000000  0.5061570000000 1.0
C      1  0.4516710000000  0.4936970000000  0.3989220000000 1.0
C      1  0.5692410000000  0.5779150000000  0.4922140000000 1.0
C      1  0.5449000000000  0.5234570000000  0.4195030000000 1.0
C      1  0.5783860000000  0.5138170000000  0.4972900000000 1.0
C      1  0.5902510000000  0.5363640000000  0.4744160000000 1.0
C      1  0.4668550000000  0.4479230000000  0.5966190000000 1.0
C      1  0.5888870000000  0.5582070000000  0.4994620000000 1.0
C      1  0.4688500000000  0.4817830000000  0.3533670000000 1.0
C      1  0.5123360000000  0.5249500000000  0.4745130000000 1.0
C      1  0.5251660000000  0.4494370000000  0.4891730000000 1.0
C      1  0.4029590000000  0.5531170000000  0.4821510000000 1.0
C      1  0.5495350000000  0.4862990000000  0.5961970000000 1.0
C      1  0.5307970000000  0.4409320000000  0.4126900000000 1.0
C      1  0.5649200000000  0.4683650000000  0.5786560000000 1.0
C      1  0.5306560000000  0.5803880000000  0.4779430000000 1.0
C      1  0.5104290000000  0.4459320000000  0.5829590000000 1.0
C      1  0.4988760000000  0.5477700000000  0.5618440000000 1.0
C      1  0.5696360000000  0.4390240000000  0.5129780000000 1.0
C      1  0.4841630000000  0.5545490000000  0.5396240000000 1.0
C      1  0.4652590000000  0.4307510000000  0.4214790000000 1.0
C      1  0.4631610000000  0.5050590000000  0.5170220000000 1.0
C      1  0.4383330000000  0.4413010000000  0.4202660000000 1.0
C      1  0.4792130000000  0.5072050000000  0.5448050000000 1.0
C      1  0.4221120000000  0.5661960000000  0.5437060000000 1.0
C      1  0.5037630000000  0.4761410000000  0.5775080000000 1.0
C      1  0.4958510000000  0.5211050000000  0.5783760000000 1.0
C      1  0.5098430000000  0.4549760000000  0.3952770000000 1.0
C      1  0.4775940000000  0.4769500000000  0.5987090000000 1.0
C      1  0.5226230000000  0.5698120000000  0.5696040000000 1.0
C      1  0.5264130000000  0.5833710000000  0.5408450000000 1.0
C      1  0.5387710000000  0.5146360000000  0.5591620000000 1.0
C      1  0.4926720000000  0.5680420000000  0.5957610000000 1.0
C      1  0.5007760000000  0.5680610000000  0.4853170000000 1.0
C      1  0.6021130000000  0.4683170000000  0.5367280000000 1.0
C      1  0.4324540000000  0.5261850000000  0.4829310000000 1.0
C      1  0.5588340000000  0.4239940000000  0.4622760000000 1.0
END
