TITL C-2778424-3986-997 0.00351635896702424 125000 -1135.30603011638 0 0 192 (C1) n - 1
REM
REM in /home/nfs/bkarasulu/CARBON/AIRSS/Generating-Clusters/REBO/Only-C1/SD-CG/HFTN-CG
REM
REM
REM
REM
REM
REM ./C.cell (11c1c37f851c82e70ff6c80c92926a4b)
REM
REM compiler GCC version 9.2.1 20190827 (Red Hat 9.2.1-1)
REM options -cpp -mtune=generic -march=x86-64 -g -O0 -fpre-include=/usr/include/finclude/math-vector-fortran.h
REM seed -1403381359 -548528938 1998206639 -1503053332 1824207150 1358517020 228772984 1012689182 1221639723 1210670846 587980366 628200651 -889034523 -2054262323 -794009036 716240363 -183857012 1081322818 -1545384330 -1084198421 248764863 2059276363 370669867 -1629907761 -499209946 -1485845526 -1618251961 1728168425 -514968881 619685466 83159452 1247730142 -1180130349
REM
CELL 1.54180   50.00000   50.00000   50.00000   90.00000   90.00000   90.00000
LATT -1
SFAC C  
C      1  0.5551580000000  0.4736660000000  0.5742090000000 1.0
C      1  0.5557520000000  0.5264030000000  0.4941670000000 1.0
C      1  0.5609480000000  0.5139670000000  0.4628950000000 1.0
C      1  0.5354020000000  0.4428660000000  0.4112070000000 1.0
C      1  0.5832470000000  0.5570850000000  0.5562630000000 1.0
C      1  0.4830340000000  0.5621980000000  0.4716130000000 1.0
C      1  0.5141810000000  0.4227820000000  0.5445500000000 1.0
C      1  0.4540910000000  0.4604000000000  0.4152900000000 1.0
C      1  0.4991240000000  0.3946530000000  0.4610610000000 1.0
C      1  0.4889240000000  0.4381060000000  0.4742650000000 1.0
C      1  0.5208850000000  0.4633620000000  0.5032610000000 1.0
C      1  0.5069740000000  0.5499520000000  0.5617110000000 1.0
C      1  0.5060120000000  0.4651020000000  0.4309850000000 1.0
C      1  0.4800810000000  0.5767410000000  0.4253720000000 1.0
C      1  0.5312130000000  0.5569030000000  0.4602180000000 1.0
C      1  0.4002920000000  0.4642700000000  0.4905990000000 1.0
C      1  0.5991580000000  0.5395950000000  0.5240700000000 1.0
C      1  0.4087800000000  0.4903550000000  0.5339600000000 1.0
C      1  0.5191710000000  0.5720520000000  0.4321770000000 1.0
C      1  0.5136520000000  0.4838770000000  0.4776800000000 1.0
C      1  0.5167360000000  0.4795950000000  0.5503750000000 1.0
C      1  0.5183390000000  0.5614360000000  0.4899130000000 1.0
C      1  0.6016590000000  0.4906330000000  0.5170830000000 1.0
C      1  0.4472990000000  0.5738930000000  0.4480880000000 1.0
C      1  0.5425630000000  0.5235950000000  0.5870670000000 1.0
C      1  0.5366880000000  0.5062400000000  0.5480450000000 1.0
C      1  0.5616780000000  0.3980620000000  0.5087980000000 1.0
C      1  0.5488980000000  0.4787930000000  0.5163570000000 1.0
C      1  0.4922280000000  0.4685580000000  0.3999530000000 1.0
C      1  0.4335610000000  0.4782910000000  0.5286630000000 1.0
C      1  0.4991800000000  0.5234040000000  0.3999250000000 1.0
C      1  0.5445030000000  0.4804670000000  0.4766720000000 1.0
C      1  0.6017390000000  0.4996070000000  0.4772590000000 1.0
C      1  0.3936680000000  0.5383130000000  0.5089490000000 1.0
C      1  0.5653540000000  0.4259520000000  0.4642950000000 1.0
C      1  0.5027990000000  0.6207820000000  0.4458400000000 1.0
C      1  0.5380030000000  0.5108850000000  0.5140870000000 1.0
C      1  0.6000690000000  0.4653990000000  0.4779210000000 1.0
C      1  0.5593920000000  0.5894070000000  0.4926510000000 1.0
C      1  0.5722540000000  0.4918160000000  0.4213860000000 1.0
C      1  0.4853060000000  0.5092410000000  0.5817850000000 1.0
C      1  0.4497110000000  0.5544490000000  0.5638750000000 1.0
C      1  0.5184150000000  0.5962650000000  0.5609970000000 1.0
C      1  0.5232400000000  0.5169310000000  0.6069280000000 1.0
C      1  0.4539210000000  0.4362790000000  0.5105710000000 1.0
C      1  0.4727860000000  0.5031370000000  0.4346730000000 1.0
C      1  0.3893120000000  0.4854580000000  0.5145840000000 1.0
C      1  0.5316930000000  0.6072760000000  0.4978470000000 1.0
C      1  0.4357520000000  0.5248380000000  0.6011240000000 1.0
C      1  0.5210310000000  0.5222880000000  0.4432520000000 1.0
C      1  0.4169050000000  0.4656990000000  0.4611970000000 1.0
C      1  0.4158910000000  0.4347930000000  0.4966730000000 1.0
C      1  0.4319980000000  0.4138180000000  0.5187140000000 1.0
C      1  0.4105250000000  0.4456620000000  0.5284870000000 1.0
C      1  0.5886150000000  0.5303220000000  0.4859420000000 1.0
C      1  0.4712510000000  0.4611490000000  0.4646780000000 1.0
C      1  0.4519470000000  0.4413490000000  0.5915330000000 1.0
C      1  0.5776720000000  0.4765670000000  0.4992980000000 1.0
C      1  0.5881170000000  0.4487830000000  0.5392770000000 1.0
C      1  0.5724230000000  0.4967060000000  0.5332630000000 1.0
C      1  0.5235420000000  0.4542030000000  0.5350650000000 1.0
C      1  0.5196920000000  0.4083880000000  0.4465890000000 1.0
C      1  0.4915580000000  0.5285170000000  0.4326330000000 1.0
C      1  0.4846780000000  0.5871070000000  0.5212540000000 1.0
C      1  0.4623070000000  0.4505380000000  0.5540530000000 1.0
C      1  0.4818960000000  0.3925940000000  0.5138740000000 1.0
C      1  0.5299390000000  0.5607690000000  0.5216810000000 1.0
C      1  0.5378350000000  0.4513620000000  0.4500870000000 1.0
C      1  0.4425810000000  0.4962550000000  0.4599430000000 1.0
C      1  0.5698600000000  0.4204570000000  0.5337520000000 1.0
C      1  0.4770370000000  0.4116440000000  0.4638920000000 1.0
C      1  0.4635760000000  0.5336790000000  0.5431100000000 1.0
C      1  0.5383910000000  0.4079510000000  0.5291460000000 1.0
C      1  0.5686820000000  0.4823170000000  0.4607650000000 1.0
C      1  0.6119210000000  0.5169740000000  0.5049600000000 1.0
C      1  0.4241160000000  0.4934080000000  0.4332520000000 1.0
C      1  0.4743610000000  0.4581090000000  0.5912440000000 1.0
C      1  0.5112020000000  0.5338610000000  0.4734770000000 1.0
C      1  0.4607590000000  0.5011570000000  0.4972930000000 1.0
C      1  0.5590580000000  0.5702800000000  0.4338570000000 1.0
C      1  0.5202850000000  0.4909520000000  0.4467770000000 1.0
C      1  0.4164230000000  0.5389660000000  0.4554360000000 1.0
C      1  0.4184110000000  0.5507490000000  0.5548290000000 1.0
C      1  0.5003440000000  0.5863970000000  0.4844960000000 1.0
C      1  0.5427490000000  0.4308710000000  0.5611940000000 1.0
C      1  0.4457600000000  0.5334760000000  0.5171520000000 1.0
C      1  0.4893640000000  0.4053480000000  0.5867420000000 1.0
C      1  0.4183770000000  0.5450170000000  0.4877680000000 1.0
C      1  0.5042290000000  0.5375510000000  0.6132530000000 1.0
C      1  0.4489390000000  0.5442340000000  0.4627220000000 1.0
C      1  0.5106470000000  0.4889600000000  0.6050810000000 1.0
C      1  0.5697070000000  0.5269690000000  0.5340260000000 1.0
C      1  0.4842810000000  0.4796940000000  0.4848120000000 1.0
C      1  0.5068630000000  0.3863490000000  0.4913070000000 1.0
C      1  0.4183870000000  0.5065980000000  0.5814890000000 1.0
C      1  0.4461230000000  0.4938730000000  0.6026030000000 1.0
C      1  0.4300690000000  0.5554890000000  0.4296750000000 1.0
C      1  0.5561470000000  0.5568800000000  0.5020040000000 1.0
C      1  0.4841780000000  0.4518160000000  0.5310120000000 1.0
C      1  0.4346840000000  0.5084490000000  0.4092280000000 1.0
C      1  0.4022210000000  0.4963130000000  0.4788710000000 1.0
C      1  0.4664130000000  0.5187190000000  0.4621550000000 1.0
C      1  0.4412240000000  0.5395830000000  0.4097930000000 1.0
C      1  0.4886220000000  0.5189790000000  0.4879050000000 1.0
C      1  0.5044090000000  0.5428380000000  0.5306180000000 1.0
C      1  0.5162220000000  0.5491000000000  0.4090990000000 1.0
C      1  0.5409220000000  0.4296730000000  0.4957720000000 1.0
C      1  0.4492420000000  0.5970300000000  0.5366710000000 1.0
C      1  0.4727550000000  0.4034150000000  0.5631640000000 1.0
C      1  0.4310470000000  0.5134150000000  0.4859600000000 1.0
C      1  0.4552860000000  0.3969710000000  0.5040930000000 1.0
C      1  0.4942780000000  0.4953160000000  0.5350560000000 1.0
C      1  0.4758550000000  0.4714210000000  0.4372470000000 1.0
C      1  0.4677370000000  0.5224500000000  0.4000370000000 1.0
C      1  0.5694620000000  0.5875690000000  0.4618710000000 1.0
C      1  0.4064160000000  0.5108710000000  0.4516860000000 1.0
C      1  0.4237930000000  0.5692520000000  0.5076240000000 1.0
C      1  0.4491980000000  0.4234870000000  0.5646810000000 1.0
C      1  0.5439660000000  0.4960610000000  0.4023880000000 1.0
C      1  0.4303820000000  0.4769190000000  0.5786730000000 1.0
C      1  0.5922260000000  0.5074010000000  0.5660420000000 1.0
C      1  0.4780070000000  0.5561900000000  0.5217800000000 1.0
C      1  0.4564960000000  0.4233070000000  0.4296740000000 1.0
C      1  0.4564400000000  0.5943960000000  0.4628050000000 1.0
C      1  0.3806060000000  0.5117290000000  0.4999590000000 1.0
C      1  0.4621950000000  0.5483990000000  0.4932330000000 1.0
C      1  0.4809800000000  0.4392580000000  0.4141420000000 1.0
C      1  0.5872700000000  0.5634190000000  0.4780820000000 1.0
C      1  0.4426800000000  0.4627140000000  0.5066660000000 1.0
C      1  0.4120400000000  0.5172820000000  0.5544790000000 1.0
C      1  0.5747140000000  0.4243620000000  0.4943640000000 1.0
C      1  0.4686410000000  0.5935990000000  0.4917790000000 1.0
C      1  0.5143500000000  0.4141300000000  0.5057720000000 1.0
C      1  0.5158180000000  0.5921220000000  0.5214380000000 1.0
C      1  0.5397020000000  0.5938630000000  0.4478580000000 1.0
C      1  0.5110700000000  0.4313520000000  0.4281400000000 1.0
C      1  0.5191750000000  0.6050230000000  0.4677620000000 1.0
C      1  0.5627580000000  0.5224140000000  0.4090130000000 1.0
C      1  0.5428840000000  0.5922920000000  0.5424110000000 1.0
C      1  0.5909700000000  0.4467110000000  0.5053530000000 1.0
C      1  0.5219020000000  0.4449390000000  0.4744960000000 1.0
C      1  0.5364830000000  0.5464730000000  0.5711660000000 1.0
C      1  0.5252860000000  0.4748140000000  0.5796960000000 1.0
C      1  0.4822820000000  0.5551080000000  0.4435570000000 1.0
C      1  0.5025630000000  0.4301670000000  0.5892730000000 1.0
C      1  0.5211240000000  0.6381840000000  0.4897530000000 1.0
C      1  0.4716240000000  0.5054510000000  0.5537660000000 1.0
C      1  0.4610440000000  0.4899240000000  0.4051600000000 1.0
C      1  0.5439750000000  0.4770170000000  0.4300210000000 1.0
C      1  0.4993230000000  0.5994800000000  0.4272740000000 1.0
C      1  0.5071730000000  0.6430560000000  0.4660430000000 1.0
C      1  0.5793780000000  0.5277420000000  0.4366630000000 1.0
C      1  0.5619060000000  0.5039110000000  0.5710680000000 1.0
C      1  0.4806500000000  0.5358960000000  0.5972130000000 1.0
C      1  0.4768850000000  0.4864600000000  0.6018110000000 1.0
C      1  0.5524020000000  0.4452140000000  0.5218210000000 1.0
C      1  0.5638210000000  0.5481880000000  0.4592820000000 1.0
C      1  0.5871330000000  0.5650290000000  0.5112820000000 1.0
C      1  0.4314730000000  0.4242030000000  0.4703250000000 1.0
C      1  0.4441570000000  0.5880850000000  0.5111730000000 1.0
C      1  0.4243430000000  0.4609030000000  0.4301030000000 1.0
C      1  0.5400740000000  0.3910800000000  0.4856210000000 1.0
C      1  0.4205790000000  0.5267710000000  0.5231880000000 1.0
C      1  0.4542130000000  0.5444500000000  0.5925710000000 1.0
C      1  0.4526010000000  0.4056500000000  0.4767630000000 1.0
C      1  0.5522090000000  0.5518880000000  0.5459590000000 1.0
C      1  0.5125080000000  0.4957790000000  0.3943200000000 1.0
C      1  0.5799410000000  0.4528060000000  0.4534010000000 1.0
C      1  0.4206880000000  0.4528790000000  0.5601220000000 1.0
C      1  0.5626180000000  0.4496100000000  0.5612320000000 1.0
C      1  0.5438940000000  0.4075640000000  0.4614600000000 1.0
C      1  0.5127580000000  0.4548760000000  0.6019210000000 1.0
C      1  0.5064660000000  0.5164230000000  0.5167610000000 1.0
C      1  0.4441890000000  0.4696110000000  0.4779230000000 1.0
C      1  0.5434510000000  0.5411670000000  0.4256340000000 1.0
C      1  0.4972590000000  0.5783680000000  0.5629900000000 1.0
C      1  0.4232180000000  0.4207900000000  0.5484220000000 1.0
C      1  0.4682520000000  0.5797850000000  0.5533290000000 1.0
C      1  0.4053240000000  0.5626770000000  0.5310400000000 1.0
C      1  0.5247540000000  0.4633820000000  0.3941740000000 1.0
C      1  0.4349620000000  0.4336460000000  0.4439590000000 1.0
C      1  0.4780930000000  0.4783900000000  0.5162700000000 1.0
C      1  0.5978390000000  0.4792880000000  0.5479310000000 1.0
C      1  0.4874470000000  0.4315850000000  0.5069440000000 1.0
C      1  0.4504740000000  0.4787760000000  0.5536990000000 1.0
C      1  0.5659400000000  0.5872990000000  0.5259770000000 1.0
C      1  0.4934870000000  0.4505290000000  0.5641030000000 1.0
C      1  0.4887760000000  0.4050520000000  0.5392960000000 1.0
C      1  0.5610750000000  0.4411710000000  0.4278800000000 1.0
C      1  0.5937770000000  0.4995220000000  0.4455990000000 1.0
C      1  0.5102960000000  0.5174670000000  0.5640220000000 1.0
C      1  0.6012750000000  0.5334590000000  0.5573230000000 1.0
END
