TITL C-2778422-5617-555 -0.00478365486116914 125000 -644.727097902137 0 0 114 (C1) n - 1
REM
REM in /home/nfs/bkarasulu/CARBON/AIRSS/Generating-Clusters/REBO/Only-C1/SD-CG/HFTN-CG
REM
REM
REM
REM
REM
REM ./C.cell (11c1c37f851c82e70ff6c80c92926a4b)
REM
REM compiler GCC version 9.2.1 20190827 (Red Hat 9.2.1-1)
REM options -cpp -mtune=generic -march=x86-64 -g -O0 -fpre-include=/usr/include/finclude/math-vector-fortran.h
REM seed -2126082560 126524302 -1070733830 -578708121 195201251 1991614793 -1724891181 601569193 -1942301701 -600223156 1075228083 -1788485125 -1305074884 1584055869 -1006049209 654399355 -936665962 -1503244044 1668257922 -2040094167 -1763899379 -1449587010 1052918000 -691348364 -495071151 -2107221112 -2110030685 -258641292 -420680564 -338132499 1864143831 -998719144 -1869615506
REM
CELL 1.54180   50.00000   50.00000   50.00000   90.00000   90.00000   90.00000
LATT -1
SFAC C  
C      1  0.4607350000000  0.5059670000000  0.4367060000000 1.0
C      1  0.5200610000000  0.4886000000000  0.4931000000000 1.0
C      1  0.4370120000000  0.4727310000000  0.5574180000000 1.0
C      1  0.5457490000000  0.5489270000000  0.5621370000000 1.0
C      1  0.4731150000000  0.4667550000000  0.5001960000000 1.0
C      1  0.4261770000000  0.5405420000000  0.5331330000000 1.0
C      1  0.5752140000000  0.4476440000000  0.5192490000000 1.0
C      1  0.5948640000000  0.4688870000000  0.5077480000000 1.0
C      1  0.4239380000000  0.4904050000000  0.4377710000000 1.0
C      1  0.4501830000000  0.4739570000000  0.4290610000000 1.0
C      1  0.4717070000000  0.5053730000000  0.5082790000000 1.0
C      1  0.5176310000000  0.4419720000000  0.5092060000000 1.0
C      1  0.4719530000000  0.5672860000000  0.4166390000000 1.0
C      1  0.5829430000000  0.5390650000000  0.5182470000000 1.0
C      1  0.4311420000000  0.4299220000000  0.5247320000000 1.0
C      1  0.5283570000000  0.5260040000000  0.4182510000000 1.0
C      1  0.5611330000000  0.5647270000000  0.5131700000000 1.0
C      1  0.5039920000000  0.4532930000000  0.4319850000000 1.0
C      1  0.4904100000000  0.5530000000000  0.5311440000000 1.0
C      1  0.5872440000000  0.5195970000000  0.4926720000000 1.0
C      1  0.5067290000000  0.5342320000000  0.4398010000000 1.0
C      1  0.5648160000000  0.4884350000000  0.4821840000000 1.0
C      1  0.5641700000000  0.4248070000000  0.4960880000000 1.0
C      1  0.5370440000000  0.5119870000000  0.4657690000000 1.0
C      1  0.5223110000000  0.5034930000000  0.5580830000000 1.0
C      1  0.5333560000000  0.4201310000000  0.5672740000000 1.0
C      1  0.4143020000000  0.5380650000000  0.4728940000000 1.0
C      1  0.5346440000000  0.4420900000000  0.4421580000000 1.0
C      1  0.5127030000000  0.5840440000000  0.4814250000000 1.0
C      1  0.5536470000000  0.5147550000000  0.4931940000000 1.0
C      1  0.5225680000000  0.5334220000000  0.5743320000000 1.0
C      1  0.5600080000000  0.4635420000000  0.5449120000000 1.0
C      1  0.5339760000000  0.4107160000000  0.5409750000000 1.0
C      1  0.5543730000000  0.4346050000000  0.4658550000000 1.0
C      1  0.4844560000000  0.5687360000000  0.5822710000000 1.0
C      1  0.5076690000000  0.5763040000000  0.5129030000000 1.0
C      1  0.5757380000000  0.4591960000000  0.4697510000000 1.0
C      1  0.4704870000000  0.4485540000000  0.4371640000000 1.0
C      1  0.4041250000000  0.4997010000000  0.5073370000000 1.0
C      1  0.4578710000000  0.5323810000000  0.5694440000000 1.0
C      1  0.5473470000000  0.5009430000000  0.5393300000000 1.0
C      1  0.5567290000000  0.4668810000000  0.4346000000000 1.0
C      1  0.4969940000000  0.4605730000000  0.5236970000000 1.0
C      1  0.4642950000000  0.5596370000000  0.5641920000000 1.0
C      1  0.4380740000000  0.5669600000000  0.5157400000000 1.0
C      1  0.5392990000000  0.5741480000000  0.5529710000000 1.0
C      1  0.6001580000000  0.4918900000000  0.5005240000000 1.0
C      1  0.4308570000000  0.5214330000000  0.4312420000000 1.0
C      1  0.4338990000000  0.4804000000000  0.4683780000000 1.0
C      1  0.5261290000000  0.4778450000000  0.4280570000000 1.0
C      1  0.4635550000000  0.4811680000000  0.5289530000000 1.0
C      1  0.4227520000000  0.5066900000000  0.4829770000000 1.0
C      1  0.5497600000000  0.4618730000000  0.4921830000000 1.0
C      1  0.5140540000000  0.4444580000000  0.5766540000000 1.0
C      1  0.4015290000000  0.4739550000000  0.4915460000000 1.0
C      1  0.5030120000000  0.4188100000000  0.4666130000000 1.0
C      1  0.5391310000000  0.5314820000000  0.5149660000000 1.0
C      1  0.5227140000000  0.5555610000000  0.4556260000000 1.0
C      1  0.4505780000000  0.5181630000000  0.4959840000000 1.0
C      1  0.4831470000000  0.4804520000000  0.4332860000000 1.0
C      1  0.5251640000000  0.5005270000000  0.4080680000000 1.0
C      1  0.4957570000000  0.4027220000000  0.4897340000000 1.0
C      1  0.4138660000000  0.5122850000000  0.5301970000000 1.0
C      1  0.4218240000000  0.4533650000000  0.5048940000000 1.0
C      1  0.5142440000000  0.5209830000000  0.5293920000000 1.0
C      1  0.4013230000000  0.4777070000000  0.4600350000000 1.0
C      1  0.4344300000000  0.5429970000000  0.4943620000000 1.0
C      1  0.4464580000000  0.5003220000000  0.5709150000000 1.0
C      1  0.4800930000000  0.5480390000000  0.4753190000000 1.0
C      1  0.4787020000000  0.5061120000000  0.5615470000000 1.0
C      1  0.4739960000000  0.5832470000000  0.5111600000000 1.0
C      1  0.5495000000000  0.5296400000000  0.4412600000000 1.0
C      1  0.4585990000000  0.5751380000000  0.5405580000000 1.0
C      1  0.4197730000000  0.4664640000000  0.5362630000000 1.0
C      1  0.5771720000000  0.4929870000000  0.5467360000000 1.0
C      1  0.5458460000000  0.4497770000000  0.5703170000000 1.0
C      1  0.5586660000000  0.5326740000000  0.5402340000000 1.0
C      1  0.5939540000000  0.5140370000000  0.5386850000000 1.0
C      1  0.4679440000000  0.4095720000000  0.4834480000000 1.0
C      1  0.5448010000000  0.4338700000000  0.5220050000000 1.0
C      1  0.4975070000000  0.4825770000000  0.5498770000000 1.0
C      1  0.5263170000000  0.4670300000000  0.5402180000000 1.0
C      1  0.4459830000000  0.5068570000000  0.5386370000000 1.0
C      1  0.4459670000000  0.4585040000000  0.4850870000000 1.0
C      1  0.5588620000000  0.5491320000000  0.4677280000000 1.0
C      1  0.4954150000000  0.5324590000000  0.5548410000000 1.0
C      1  0.5760750000000  0.4875320000000  0.4506630000000 1.0
C      1  0.5050140000000  0.5534440000000  0.5918490000000 1.0
C      1  0.4506600000000  0.5785640000000  0.4862060000000 1.0
C      1  0.5227100000000  0.4512370000000  0.4791590000000 1.0
C      1  0.4926550000000  0.4496270000000  0.4698400000000 1.0
C      1  0.5042780000000  0.5316340000000  0.4816850000000 1.0
C      1  0.4876430000000  0.5607230000000  0.4382380000000 1.0
C      1  0.5379270000000  0.5757010000000  0.5244480000000 1.0
C      1  0.4599230000000  0.5366680000000  0.5300790000000 1.0
C      1  0.5311490000000  0.5468920000000  0.4877450000000 1.0
C      1  0.4725190000000  0.5505950000000  0.5037020000000 1.0
C      1  0.4237540000000  0.5446520000000  0.4456050000000 1.0
C      1  0.5002550000000  0.5110200000000  0.5045360000000 1.0
C      1  0.4901770000000  0.5762570000000  0.4647670000000 1.0
C      1  0.5162730000000  0.4078810000000  0.5118960000000 1.0
C      1  0.5759140000000  0.5201400000000  0.4606110000000 1.0
C      1  0.4498610000000  0.4310270000000  0.5412660000000 1.0
C      1  0.4612960000000  0.5341120000000  0.4537600000000 1.0
C      1  0.5031910000000  0.5077340000000  0.4608400000000 1.0
C      1  0.5406530000000  0.4819480000000  0.5151990000000 1.0
C      1  0.4925140000000  0.4810270000000  0.4763320000000 1.0
C      1  0.5422890000000  0.5792870000000  0.4686660000000 1.0
C      1  0.4646280000000  0.4566890000000  0.5525580000000 1.0
C      1  0.4457600000000  0.5632700000000  0.4618920000000 1.0
C      1  0.5471500000000  0.3988130000000  0.5033530000000 1.0
C      1  0.5305900000000  0.4792940000000  0.4617430000000 1.0
C      1  0.4877120000000  0.4505360000000  0.5714580000000 1.0
C      1  0.4627010000000  0.4375040000000  0.4682080000000 1.0
END
