TITL C-2778436-5916-475 -0.00553433022664018 125000 -1067.32235114462 0 0 180 (C1) n - 1
REM
REM in /home/nfs/bkarasulu/CARBON/AIRSS/Generating-Clusters/REBO/Only-C1/SD-CG/HFTN-CG
REM
REM
REM
REM
REM
REM ./C.cell (11c1c37f851c82e70ff6c80c92926a4b)
REM
REM compiler GCC version 9.2.1 20190827 (Red Hat 9.2.1-1)
REM options -cpp -mtune=generic -march=x86-64 -g -O0 -fpre-include=/usr/include/finclude/math-vector-fortran.h
REM seed -1473541365 -1681064234 -1531006393 697254243 2113584490 -1616678055 -588337048 2084020977 -913498866 -1810930184 -1276908231 -41912152 2000336929 -1040853418 1499617720 603289370 -1477013126 1074871753 -1650916636 405339236 126531921 715017069 151431857 -1878556675 -1762889669 1053762411 -2100138932 1705779752 1325331336 640500015 822105182 -756757788 1347367638
REM
CELL 1.54180   50.00000   50.00000   50.00000   90.00000   90.00000   90.00000
LATT -1
SFAC C  
C      1  0.5110460000000  0.5314690000000  0.6043100000000 1.0
C      1  0.5084810000000  0.4653370000000  0.4335200000000 1.0
C      1  0.5595690000000  0.4928530000000  0.4678050000000 1.0
C      1  0.5259410000000  0.5238620000000  0.4666440000000 1.0
C      1  0.5873440000000  0.4393040000000  0.4856110000000 1.0
C      1  0.4531960000000  0.6205380000000  0.4800520000000 1.0
C      1  0.5343800000000  0.4662590000000  0.4523980000000 1.0
C      1  0.4345950000000  0.5477450000000  0.4509010000000 1.0
C      1  0.5262670000000  0.5553860000000  0.4721470000000 1.0
C      1  0.4193350000000  0.5554460000000  0.5252630000000 1.0
C      1  0.5119200000000  0.4942730000000  0.4166570000000 1.0
C      1  0.5992460000000  0.4917390000000  0.4806390000000 1.0
C      1  0.5447130000000  0.4415910000000  0.4230320000000 1.0
C      1  0.5834000000000  0.5658020000000  0.5176520000000 1.0
C      1  0.4319790000000  0.5444060000000  0.5690400000000 1.0
C      1  0.5112740000000  0.5041050000000  0.5459290000000 1.0
C      1  0.5557870000000  0.5304060000000  0.4803380000000 1.0
C      1  0.4964440000000  0.5293180000000  0.4993550000000 1.0
C      1  0.5615220000000  0.4527150000000  0.5578330000000 1.0
C      1  0.4994260000000  0.6057690000000  0.5469220000000 1.0
C      1  0.4535170000000  0.4783860000000  0.4029990000000 1.0
C      1  0.5826650000000  0.4862560000000  0.5535740000000 1.0
C      1  0.4610920000000  0.4566480000000  0.4513270000000 1.0
C      1  0.4590360000000  0.4076560000000  0.5426270000000 1.0
C      1  0.4864740000000  0.5391230000000  0.4015840000000 1.0
C      1  0.4248560000000  0.4765310000000  0.5586970000000 1.0
C      1  0.5528530000000  0.4769280000000  0.5394870000000 1.0
C      1  0.4962210000000  0.4262950000000  0.5269290000000 1.0
C      1  0.4135340000000  0.4745010000000  0.4503250000000 1.0
C      1  0.5301660000000  0.4901500000000  0.4841230000000 1.0
C      1  0.5062860000000  0.4459740000000  0.4896930000000 1.0
C      1  0.5931240000000  0.5185080000000  0.4723750000000 1.0
C      1  0.5122910000000  0.4109480000000  0.5708990000000 1.0
C      1  0.4100740000000  0.5060640000000  0.5476030000000 1.0
C      1  0.4015940000000  0.4728840000000  0.5138660000000 1.0
C      1  0.6082010000000  0.4900700000000  0.5085020000000 1.0
C      1  0.4299490000000  0.6109280000000  0.4697200000000 1.0
C      1  0.6108190000000  0.5139940000000  0.5241590000000 1.0
C      1  0.4649420000000  0.5821770000000  0.5690310000000 1.0
C      1  0.5860260000000  0.4421890000000  0.5147850000000 1.0
C      1  0.3957460000000  0.4893040000000  0.5702900000000 1.0
C      1  0.4561100000000  0.5957630000000  0.5228370000000 1.0
C      1  0.4808870000000  0.4175380000000  0.5006830000000 1.0
C      1  0.4520270000000  0.4619580000000  0.5080760000000 1.0
C      1  0.4586500000000  0.5686800000000  0.5040790000000 1.0
C      1  0.4703530000000  0.4271400000000  0.5653500000000 1.0
C      1  0.5511680000000  0.5602930000000  0.4947320000000 1.0
C      1  0.4720760000000  0.6015220000000  0.5493580000000 1.0
C      1  0.5204830000000  0.5369260000000  0.4036320000000 1.0
C      1  0.4843660000000  0.5147740000000  0.5278620000000 1.0
C      1  0.4216540000000  0.4416720000000  0.4821040000000 1.0
C      1  0.5604390000000  0.5182980000000  0.5296810000000 1.0
C      1  0.5329640000000  0.4879730000000  0.5161210000000 1.0
C      1  0.4311750000000  0.5788060000000  0.5371760000000 1.0
C      1  0.5636100000000  0.5070460000000  0.4991080000000 1.0
C      1  0.4646670000000  0.5090070000000  0.4857400000000 1.0
C      1  0.4782090000000  0.5686470000000  0.4095930000000 1.0
C      1  0.5656950000000  0.4529900000000  0.4549290000000 1.0
C      1  0.4342070000000  0.4300970000000  0.5488610000000 1.0
C      1  0.5119540000000  0.5816110000000  0.5313570000000 1.0
C      1  0.4439900000000  0.5195390000000  0.5181380000000 1.0
C      1  0.4950930000000  0.4307690000000  0.4119420000000 1.0
C      1  0.4817860000000  0.4868220000000  0.5799510000000 1.0
C      1  0.4365750000000  0.4509110000000  0.5689880000000 1.0
C      1  0.5319750000000  0.5475660000000  0.5351090000000 1.0
C      1  0.5675350000000  0.5602530000000  0.4413090000000 1.0
C      1  0.5435810000000  0.4862710000000  0.3940010000000 1.0
C      1  0.5421810000000  0.5813630000000  0.5166510000000 1.0
C      1  0.4987520000000  0.4592420000000  0.4027460000000 1.0
C      1  0.4573120000000  0.5694180000000  0.4273880000000 1.0
C      1  0.4582920000000  0.4923370000000  0.5333280000000 1.0
C      1  0.4432660000000  0.5208370000000  0.5868590000000 1.0
C      1  0.4992830000000  0.6131600000000  0.5010140000000 1.0
C      1  0.4676790000000  0.4271300000000  0.4530110000000 1.0
C      1  0.5593560000000  0.4905990000000  0.5757590000000 1.0
C      1  0.4805170000000  0.3875030000000  0.5356090000000 1.0
C      1  0.4231890000000  0.5037900000000  0.4359960000000 1.0
C      1  0.5338390000000  0.4380790000000  0.5333660000000 1.0
C      1  0.5556850000000  0.4076900000000  0.5024360000000 1.0
C      1  0.5475380000000  0.4241940000000  0.4524830000000 1.0
C      1  0.5238290000000  0.6009860000000  0.5642320000000 1.0
C      1  0.5227350000000  0.5644830000000  0.4238670000000 1.0
C      1  0.3993790000000  0.4500780000000  0.4971690000000 1.0
C      1  0.5535200000000  0.4577200000000  0.4962260000000 1.0
C      1  0.5967900000000  0.5133980000000  0.5514010000000 1.0
C      1  0.4889870000000  0.5895490000000  0.4498220000000 1.0
C      1  0.4849060000000  0.4712740000000  0.5286800000000 1.0
C      1  0.5070590000000  0.3940050000000  0.5476100000000 1.0
C      1  0.4817030000000  0.5304110000000  0.4687250000000 1.0
C      1  0.4879650000000  0.5080590000000  0.6063470000000 1.0
C      1  0.4691850000000  0.4249840000000  0.4216150000000 1.0
C      1  0.5068780000000  0.3994470000000  0.5080650000000 1.0
C      1  0.4711860000000  0.3850880000000  0.4795050000000 1.0
C      1  0.4475380000000  0.4805130000000  0.4305550000000 1.0
C      1  0.5871840000000  0.5330540000000  0.5180860000000 1.0
C      1  0.5322750000000  0.5883440000000  0.4665360000000 1.0
C      1  0.4997080000000  0.4756950000000  0.4803640000000 1.0
C      1  0.4220770000000  0.4510570000000  0.4394650000000 1.0
C      1  0.4328270000000  0.5179890000000  0.4881490000000 1.0
C      1  0.5150550000000  0.5354400000000  0.4374130000000 1.0
C      1  0.5339100000000  0.4860450000000  0.5979180000000 1.0
C      1  0.4398470000000  0.4349190000000  0.4254190000000 1.0
C      1  0.4383280000000  0.5732860000000  0.5645460000000 1.0
C      1  0.5630740000000  0.4284430000000  0.5233450000000 1.0
C      1  0.5643240000000  0.5563180000000  0.5409840000000 1.0
C      1  0.5060550000000  0.3719840000000  0.4925580000000 1.0
C      1  0.4147330000000  0.5884750000000  0.4679240000000 1.0
C      1  0.4187910000000  0.5607410000000  0.4706140000000 1.0
C      1  0.4858360000000  0.5640450000000  0.5758460000000 1.0
C      1  0.5380080000000  0.5501560000000  0.5989570000000 1.0
C      1  0.5265180000000  0.6068780000000  0.5014940000000 1.0
C      1  0.4504130000000  0.4928700000000  0.4624940000000 1.0
C      1  0.4929580000000  0.4232810000000  0.4712020000000 1.0
C      1  0.5821600000000  0.5360850000000  0.5579810000000 1.0
C      1  0.4999690000000  0.3841700000000  0.4643150000000 1.0
C      1  0.4542710000000  0.4068580000000  0.4729390000000 1.0
C      1  0.4653600000000  0.5551660000000  0.4572500000000 1.0
C      1  0.5481200000000  0.5175840000000  0.3987220000000 1.0
C      1  0.3840560000000  0.4941650000000  0.5079220000000 1.0
C      1  0.4537200000000  0.5285110000000  0.5494570000000 1.0
C      1  0.4803210000000  0.4850120000000  0.3944610000000 1.0
C      1  0.4578300000000  0.4994310000000  0.5665950000000 1.0
C      1  0.5311860000000  0.4049260000000  0.5259590000000 1.0
C      1  0.4338330000000  0.5305270000000  0.4284540000000 1.0
C      1  0.5914880000000  0.4703360000000  0.5269120000000 1.0
C      1  0.5448400000000  0.5753160000000  0.4402700000000 1.0
C      1  0.4852420000000  0.5107150000000  0.4162510000000 1.0
C      1  0.5888850000000  0.4658430000000  0.4699160000000 1.0
C      1  0.5448890000000  0.5224900000000  0.4316280000000 1.0
C      1  0.5656810000000  0.4891510000000  0.4388450000000 1.0
C      1  0.5226570000000  0.5201760000000  0.5190430000000 1.0
C      1  0.5701220000000  0.4770230000000  0.5035820000000 1.0
C      1  0.4707960000000  0.6127350000000  0.5005710000000 1.0
C      1  0.5668840000000  0.4188730000000  0.4778200000000 1.0
C      1  0.5157140000000  0.4600450000000  0.5193150000000 1.0
C      1  0.5122700000000  0.5632200000000  0.5583240000000 1.0
C      1  0.5192190000000  0.4229610000000  0.4246520000000 1.0
C      1  0.4368390000000  0.4191450000000  0.4913920000000 1.0
C      1  0.5168360000000  0.4095390000000  0.4538850000000 1.0
C      1  0.4856540000000  0.4524170000000  0.5999740000000 1.0
C      1  0.5432780000000  0.5125530000000  0.5549000000000 1.0
C      1  0.5134150000000  0.4823060000000  0.3846640000000 1.0
C      1  0.4289320000000  0.4760470000000  0.5267630000000 1.0
C      1  0.4421350000000  0.4643450000000  0.4763020000000 1.0
C      1  0.4964300000000  0.4692240000000  0.5585730000000 1.0
C      1  0.5028050000000  0.4797710000000  0.6058290000000 1.0
C      1  0.4125650000000  0.5036400000000  0.4683610000000 1.0
C      1  0.4865950000000  0.4755310000000  0.4528000000000 1.0
C      1  0.4609790000000  0.4461450000000  0.5862100000000 1.0
C      1  0.4845480000000  0.5466720000000  0.5974030000000 1.0
C      1  0.5543890000000  0.6011580000000  0.4844000000000 1.0
C      1  0.4767490000000  0.4837800000000  0.4990600000000 1.0
C      1  0.5273320000000  0.4982280000000  0.4451920000000 1.0
C      1  0.4623620000000  0.5283050000000  0.6065500000000 1.0
C      1  0.5114100000000  0.5570510000000  0.5090750000000 1.0
C      1  0.4492450000000  0.4296470000000  0.5183430000000 1.0
C      1  0.4916680000000  0.4387670000000  0.5508860000000 1.0
C      1  0.5743150000000  0.5135900000000  0.4205080000000 1.0
C      1  0.4774790000000  0.5058530000000  0.4459750000000 1.0
C      1  0.5344270000000  0.4508090000000  0.4792630000000 1.0
C      1  0.4303840000000  0.5506940000000  0.4971720000000 1.0
C      1  0.5372410000000  0.4308240000000  0.5649440000000 1.0
C      1  0.5343830000000  0.5729230000000  0.5806640000000 1.0
C      1  0.4746690000000  0.5767490000000  0.4781430000000 1.0
C      1  0.4984050000000  0.5815580000000  0.4248200000000 1.0
C      1  0.5051480000000  0.5774160000000  0.4840870000000 1.0
C      1  0.5528140000000  0.4694310000000  0.4171570000000 1.0
C      1  0.5905770000000  0.5481970000000  0.4888770000000 1.0
C      1  0.5073860000000  0.4354050000000  0.5905760000000 1.0
C      1  0.5361410000000  0.5184630000000  0.5877510000000 1.0
C      1  0.5744850000000  0.5366690000000  0.4544700000000 1.0
C      1  0.4772600000000  0.3730890000000  0.5100240000000 1.0
C      1  0.4536130000000  0.5338880000000  0.4094720000000 1.0
C      1  0.3855350000000  0.5061990000000  0.4832920000000 1.0
C      1  0.5266830000000  0.4765740000000  0.5587870000000 1.0
C      1  0.4145030000000  0.5334070000000  0.5442710000000 1.0
C      1  0.5470010000000  0.5813620000000  0.5503380000000 1.0
C      1  0.5320300000000  0.4564070000000  0.5845570000000 1.0
C      1  0.5779770000000  0.5800850000000  0.4881040000000 1.0
C      1  0.4668370000000  0.5437480000000  0.5218650000000 1.0
END
