TITL C-2778437-8639-921 -0.00348259194711622 125000 -791.489163452443 0 0 134 (C1) n - 1
REM
REM in /home/nfs/bkarasulu/CARBON/AIRSS/Generating-Clusters/REBO/Only-C1/SD-CG/HFTN-CG
REM
REM
REM
REM
REM
REM ./C.cell (11c1c37f851c82e70ff6c80c92926a4b)
REM
REM compiler GCC version 9.2.1 20190827 (Red Hat 9.2.1-1)
REM options -cpp -mtune=generic -march=x86-64 -g -O0 -fpre-include=/usr/include/finclude/math-vector-fortran.h
REM seed -1550773087 -1854651099 1650109411 -333976734 -742604189 822063188 -1341062681 2119262385 -1744800543 -292191131 -953227851 -1745123053 -1517492414 -167155983 -956219919 -343786960 -1332776164 295752728 3494765 851647730 608776245 730949900 -1093669125 1429448169 294212959 -361180952 1434376717 -1381782765 1484302300 -1229989743 431384171 -254402390 -1238770199
REM
CELL 1.54180   50.00000   50.00000   50.00000   90.00000   90.00000   90.00000
LATT -1
SFAC C  
C      1  0.4768820000000  0.5423710000000  0.5218750000000 1.0
C      1  0.4075400000000  0.5308110000000  0.5351680000000 1.0
C      1  0.5175580000000  0.5585960000000  0.5742790000000 1.0
C      1  0.4893780000000  0.5371760000000  0.6014030000000 1.0
C      1  0.5291570000000  0.4781330000000  0.5895730000000 1.0
C      1  0.4293160000000  0.4775330000000  0.4503040000000 1.0
C      1  0.4016920000000  0.4632150000000  0.4926740000000 1.0
C      1  0.4255820000000  0.4849110000000  0.5155140000000 1.0
C      1  0.5717420000000  0.4442170000000  0.5346780000000 1.0
C      1  0.4671640000000  0.4530320000000  0.5654150000000 1.0
C      1  0.4959240000000  0.5238070000000  0.4089110000000 1.0
C      1  0.5147700000000  0.5460840000000  0.4163350000000 1.0
C      1  0.5484060000000  0.5876790000000  0.5430830000000 1.0
C      1  0.4614740000000  0.4664120000000  0.4852200000000 1.0
C      1  0.5494630000000  0.5000750000000  0.5918340000000 1.0
C      1  0.5742110000000  0.5063220000000  0.4353380000000 1.0
C      1  0.3930690000000  0.4805770000000  0.5209460000000 1.0
C      1  0.5869490000000  0.4684910000000  0.4691820000000 1.0
C      1  0.4390640000000  0.4500860000000  0.5543250000000 1.0
C      1  0.4328340000000  0.5070340000000  0.4964320000000 1.0
C      1  0.5025130000000  0.4864360000000  0.5918610000000 1.0
C      1  0.4986410000000  0.4950220000000  0.4088070000000 1.0
C      1  0.4876400000000  0.5605780000000  0.5008540000000 1.0
C      1  0.4768470000000  0.4803910000000  0.5722570000000 1.0
C      1  0.5196480000000  0.5389390000000  0.4913960000000 1.0
C      1  0.5243280000000  0.4872140000000  0.5448260000000 1.0
C      1  0.4318180000000  0.5319860000000  0.4442710000000 1.0
C      1  0.5124570000000  0.3965030000000  0.4653100000000 1.0
C      1  0.5774990000000  0.4875960000000  0.5091960000000 1.0
C      1  0.4315920000000  0.4310560000000  0.5298360000000 1.0
C      1  0.4545210000000  0.5810440000000  0.4786590000000 1.0
C      1  0.5330470000000  0.5104600000000  0.5663940000000 1.0
C      1  0.5490140000000  0.4342370000000  0.5140180000000 1.0
C      1  0.5608530000000  0.5604860000000  0.5127230000000 1.0
C      1  0.5150570000000  0.4457530000000  0.5570210000000 1.0
C      1  0.5302520000000  0.5184680000000  0.5236590000000 1.0
C      1  0.4999190000000  0.5653240000000  0.4331020000000 1.0
C      1  0.5082940000000  0.4379350000000  0.4278660000000 1.0
C      1  0.4824380000000  0.4445130000000  0.4841660000000 1.0
C      1  0.5147430000000  0.4264140000000  0.4528320000000 1.0
C      1  0.6150040000000  0.5205540000000  0.6328060000000 1.0
C      1  0.4834210000000  0.5928080000000  0.4779360000000 1.0
C      1  0.5242510000000  0.4263500000000  0.5240530000000 1.0
C      1  0.4345530000000  0.4585700000000  0.5023460000000 1.0
C      1  0.5574590000000  0.4899730000000  0.5427630000000 1.0
C      1  0.4863250000000  0.4118130000000  0.4763550000000 1.0
C      1  0.5588860000000  0.5631350000000  0.4661690000000 1.0
C      1  0.5245560000000  0.4852540000000  0.4145770000000 1.0
C      1  0.5769880000000  0.5413340000000  0.4739020000000 1.0
C      1  0.5434410000000  0.5046150000000  0.4604580000000 1.0
C      1  0.5413730000000  0.5463170000000  0.4114050000000 1.0
C      1  0.5021580000000  0.4663680000000  0.5340350000000 1.0
C      1  0.4722390000000  0.5586660000000  0.4313580000000 1.0
C      1  0.5076670000000  0.5264130000000  0.5746900000000 1.0
C      1  0.4002530000000  0.5142470000000  0.4887020000000 1.0
C      1  0.4483130000000  0.4922110000000  0.4721360000000 1.0
C      1  0.5514970000000  0.5290270000000  0.5480320000000 1.0
C      1  0.5385210000000  0.5931010000000  0.5175970000000 1.0
C      1  0.4924280000000  0.5185130000000  0.4938100000000 1.0
C      1  0.5706690000000  0.5148810000000  0.5236280000000 1.0
C      1  0.4165270000000  0.5173790000000  0.4600320000000 1.0
C      1  0.5096290000000  0.5812990000000  0.4591620000000 1.0
C      1  0.4473490000000  0.5422670000000  0.4793950000000 1.0
C      1  0.4431580000000  0.4833110000000  0.5510480000000 1.0
C      1  0.4983710000000  0.5184190000000  0.5271610000000 1.0
C      1  0.5244410000000  0.5317850000000  0.4523660000000 1.0
C      1  0.4829780000000  0.4822590000000  0.4446890000000 1.0
C      1  0.5269400000000  0.4823140000000  0.5070940000000 1.0
C      1  0.5437740000000  0.5025850000000  0.4262130000000 1.0
C      1  0.5081870000000  0.3699450000000  0.4587610000000 1.0
C      1  0.5016600000000  0.4742850000000  0.4657990000000 1.0
C      1  0.4500650000000  0.4853430000000  0.4296270000000 1.0
C      1  0.4813170000000  0.5983880000000  0.5112950000000 1.0
C      1  0.4423940000000  0.5753360000000  0.5075210000000 1.0
C      1  0.5542760000000  0.4299650000000  0.4544010000000 1.0
C      1  0.4702340000000  0.4115490000000  0.5038190000000 1.0
C      1  0.4622810000000  0.5830390000000  0.5266330000000 1.0
C      1  0.5468510000000  0.5568770000000  0.5569970000000 1.0
C      1  0.4681360000000  0.4318820000000  0.4553700000000 1.0
C      1  0.4207460000000  0.5521320000000  0.5199450000000 1.0
C      1  0.4702030000000  0.5352710000000  0.4147560000000 1.0
C      1  0.4872240000000  0.4354380000000  0.5545130000000 1.0
C      1  0.5948170000000  0.4864340000000  0.4883180000000 1.0
C      1  0.4136120000000  0.4981200000000  0.5429290000000 1.0
C      1  0.5382570000000  0.5104800000000  0.4913050000000 1.0
C      1  0.4742150000000  0.5118310000000  0.4468820000000 1.0
C      1  0.4514740000000  0.5232640000000  0.5155800000000 1.0
C      1  0.4906800000000  0.5064010000000  0.5545950000000 1.0
C      1  0.5643200000000  0.4788220000000  0.4508190000000 1.0
C      1  0.5554440000000  0.5838690000000  0.4904470000000 1.0
C      1  0.5345200000000  0.5511210000000  0.5194880000000 1.0
C      1  0.5331070000000  0.5877620000000  0.5708140000000 1.0
C      1  0.4795680000000  0.4235230000000  0.5290840000000 1.0
C      1  0.4653890000000  0.5328830000000  0.5701740000000 1.0
C      1  0.5203960000000  0.4484570000000  0.4722840000000 1.0
C      1  0.5038060000000  0.4912670000000  0.4860990000000 1.0
C      1  0.4713620000000  0.4759090000000  0.5330020000000 1.0
C      1  0.4763030000000  0.5084890000000  0.5916070000000 1.0
C      1  0.5346820000000  0.5585410000000  0.4516870000000 1.0
C      1  0.5542860000000  0.4674200000000  0.5073020000000 1.0
C      1  0.4582040000000  0.5113810000000  0.5456910000000 1.0
C      1  0.4692320000000  0.5592200000000  0.5482100000000 1.0
C      1  0.4226540000000  0.5451210000000  0.4908820000000 1.0
C      1  0.5441810000000  0.4047090000000  0.4681160000000 1.0
C      1  0.5924690000000  0.4415320000000  0.5148400000000 1.0
C      1  0.5604730000000  0.4158870000000  0.4911070000000 1.0
C      1  0.4603140000000  0.4481550000000  0.5207140000000 1.0
C      1  0.5515680000000  0.4526690000000  0.4786130000000 1.0
C      1  0.4803690000000  0.4432770000000  0.4281150000000 1.0
C      1  0.5369160000000  0.4570910000000  0.5707610000000 1.0
C      1  0.4856070000000  0.5596710000000  0.5764150000000 1.0
C      1  0.5064550000000  0.4551030000000  0.5027200000000 1.0
C      1  0.4422690000000  0.4195220000000  0.4996610000000 1.0
C      1  0.5089700000000  0.5847580000000  0.5121840000000 1.0
C      1  0.5761700000000  0.5382090000000  0.5030910000000 1.0
C      1  0.3880720000000  0.5136200000000  0.5170420000000 1.0
C      1  0.5830810000000  0.4397490000000  0.4833430000000 1.0
C      1  0.4863340000000  0.5530080000000  0.4745550000000 1.0
C      1  0.4659370000000  0.5189520000000  0.4778700000000 1.0
C      1  0.4026820000000  0.4871430000000  0.4686380000000 1.0
C      1  0.4488370000000  0.5605120000000  0.4521530000000 1.0
C      1  0.4962550000000  0.5328190000000  0.4560860000000 1.0
C      1  0.5516560000000  0.4544530000000  0.4377500000000 1.0
C      1  0.5856830000000  0.5252930000000  0.4524230000000 1.0
C      1  0.5285000000000  0.4578010000000  0.4214940000000 1.0
C      1  0.4748170000000  0.4714400000000  0.4145100000000 1.0
C      1  0.4195270000000  0.4511600000000  0.4663490000000 1.0
C      1  0.4691930000000  0.4879880000000  0.5058650000000 1.0
C      1  0.4391770000000  0.4313560000000  0.4727700000000 1.0
C      1  0.5935230000000  0.5138420000000  0.6193770000000 1.0
C      1  0.4486970000000  0.5163440000000  0.4245920000000 1.0
C      1  0.5606850000000  0.4626180000000  0.5536910000000 1.0
C      1  0.5716940000000  0.5070220000000  0.6057320000000 1.0
C      1  0.5235270000000  0.5718470000000  0.4873330000000 1.0
END
