TITL C-2778428-5639-1294 -0.000390674245707448 125000 -526.829885061971 0 0 91 (C1) n - 1
REM
REM in /home/nfs/bkarasulu/CARBON/AIRSS/Generating-Clusters/REBO/Only-C1/SD-CG/HFTN-CG
REM
REM
REM
REM
REM
REM ./C.cell (11c1c37f851c82e70ff6c80c92926a4b)
REM
REM compiler GCC version 9.2.1 20190827 (Red Hat 9.2.1-1)
REM options -cpp -mtune=generic -march=x86-64 -g -O0 -fpre-include=/usr/include/finclude/math-vector-fortran.h
REM seed -845740972 -1824067780 384216739 722509730 -87761150 1146627999 -1170498820 -978912473 1112418911 2025697287 -202044954 -1436990227 2104153556 1268063838 1494313852 -1201127946 1800181797 -1971955770 1042969923 144537802 -467721936 1664246340 996313358 -1916502131 -54089409 -119047698 -186023426 920677715 1816524675 -944554147 -727087271 743670347 -1626702966
REM
CELL 1.54180   50.00000   50.00000   50.00000   90.00000   90.00000   90.00000
LATT -1
SFAC C  
C      1  0.4803630000000  0.4528790000000  0.5285060000000 1.0
C      1  0.4927270000000  0.4626150000000  0.4217110000000 1.0
C      1  0.4757100000000  0.4738840000000  0.4560580000000 1.0
C      1  0.4341130000000  0.4475480000000  0.5020000000000 1.0
C      1  0.5736700000000  0.5131620000000  0.4478780000000 1.0
C      1  0.5058950000000  0.4598390000000  0.5503150000000 1.0
C      1  0.4712840000000  0.4313940000000  0.5609360000000 1.0
C      1  0.4163730000000  0.4385900000000  0.5299200000000 1.0
C      1  0.4988560000000  0.5012880000000  0.5215480000000 1.0
C      1  0.5285050000000  0.4255380000000  0.4655610000000 1.0
C      1  0.4773620000000  0.5472290000000  0.5047200000000 1.0
C      1  0.4270320000000  0.4786110000000  0.4779510000000 1.0
C      1  0.5062080000000  0.5495260000000  0.5646800000000 1.0
C      1  0.4871990000000  0.4295910000000  0.5132570000000 1.0
C      1  0.5647850000000  0.5440260000000  0.4831220000000 1.0
C      1  0.5009870000000  0.4271190000000  0.5505770000000 1.0
C      1  0.4171310000000  0.5239010000000  0.4825110000000 1.0
C      1  0.5437590000000  0.5779210000000  0.4815690000000 1.0
C      1  0.4827710000000  0.4890310000000  0.4184350000000 1.0
C      1  0.5261600000000  0.5110030000000  0.5035330000000 1.0
C      1  0.4614410000000  0.4604470000000  0.5680630000000 1.0
C      1  0.5497900000000  0.4747310000000  0.4345440000000 1.0
C      1  0.4345430000000  0.5024610000000  0.4385330000000 1.0
C      1  0.5337800000000  0.5404180000000  0.4911010000000 1.0
C      1  0.4199200000000  0.4965070000000  0.5296730000000 1.0
C      1  0.5409450000000  0.5472820000000  0.4403440000000 1.0
C      1  0.5370110000000  0.4696570000000  0.5305260000000 1.0
C      1  0.5046630000000  0.5336020000000  0.5173500000000 1.0
C      1  0.5475990000000  0.5231230000000  0.5866960000000 1.0
C      1  0.5571080000000  0.5357140000000  0.6093050000000 1.0
C      1  0.5497180000000  0.4907980000000  0.5758310000000 1.0
C      1  0.4542580000000  0.5197720000000  0.4606090000000 1.0
C      1  0.4506290000000  0.4383010000000  0.4794600000000 1.0
C      1  0.5146480000000  0.4190730000000  0.5211000000000 1.0
C      1  0.4280190000000  0.4721050000000  0.4465480000000 1.0
C      1  0.4989020000000  0.5694220000000  0.4607670000000 1.0
C      1  0.4513580000000  0.4534650000000  0.4547700000000 1.0
C      1  0.5134580000000  0.5668780000000  0.4909440000000 1.0
C      1  0.4579990000000  0.5553300000000  0.4784460000000 1.0
C      1  0.5808440000000  0.4884820000000  0.5447920000000 1.0
C      1  0.4493930000000  0.5337430000000  0.5604760000000 1.0
C      1  0.5175490000000  0.5539110000000  0.5388820000000 1.0
C      1  0.4444370000000  0.5063650000000  0.5459850000000 1.0
C      1  0.4732330000000  0.5384290000000  0.4308780000000 1.0
C      1  0.4542280000000  0.4896920000000  0.4709190000000 1.0
C      1  0.5288680000000  0.5694760000000  0.4544100000000 1.0
C      1  0.4391440000000  0.4327860000000  0.5503050000000 1.0
C      1  0.4633000000000  0.4844970000000  0.5548760000000 1.0
C      1  0.5652180000000  0.5702210000000  0.5011670000000 1.0
C      1  0.5013930000000  0.5147990000000  0.4292170000000 1.0
C      1  0.5239530000000  0.4796820000000  0.5697600000000 1.0
C      1  0.4614970000000  0.5098590000000  0.4226780000000 1.0
C      1  0.5530450000000  0.5021760000000  0.4307680000000 1.0
C      1  0.4756840000000  0.4284970000000  0.4872250000000 1.0
C      1  0.4148790000000  0.5227950000000  0.4550550000000 1.0
C      1  0.5175450000000  0.5280400000000  0.5787160000000 1.0
C      1  0.5057170000000  0.5037000000000  0.5726830000000 1.0
C      1  0.4452640000000  0.5293900000000  0.5209500000000 1.0
C      1  0.4766380000000  0.5541980000000  0.5597980000000 1.0
C      1  0.5700600000000  0.5633090000000  0.5281820000000 1.0
C      1  0.5307400000000  0.5219440000000  0.4280870000000 1.0
C      1  0.5503130000000  0.4927840000000  0.5092740000000 1.0
C      1  0.5683610000000  0.4640110000000  0.5373580000000 1.0
C      1  0.4922560000000  0.4897750000000  0.5478110000000 1.0
C      1  0.5688150000000  0.5153200000000  0.5619770000000 1.0
C      1  0.5643010000000  0.4632930000000  0.4547000000000 1.0
C      1  0.4781220000000  0.4967590000000  0.5021650000000 1.0
C      1  0.4733520000000  0.5598770000000  0.4549670000000 1.0
C      1  0.4381000000000  0.5387040000000  0.4948160000000 1.0
C      1  0.4110560000000  0.4683210000000  0.5142990000000 1.0
C      1  0.5645200000000  0.4739490000000  0.4845460000000 1.0
C      1  0.5713060000000  0.5392830000000  0.5403050000000 1.0
C      1  0.4110110000000  0.4977590000000  0.4972740000000 1.0
C      1  0.5555080000000  0.4532340000000  0.5075550000000 1.0
C      1  0.5806060000000  0.5200920000000  0.4937100000000 1.0
C      1  0.5163030000000  0.4821200000000  0.4805800000000 1.0
C      1  0.5663490000000  0.5407910000000  0.4529710000000 1.0
C      1  0.5029890000000  0.4821340000000  0.4549850000000 1.0
C      1  0.5187680000000  0.4557800000000  0.4882550000000 1.0
C      1  0.5360660000000  0.4290810000000  0.4986830000000 1.0
C      1  0.4743580000000  0.5201230000000  0.4870490000000 1.0
C      1  0.5798960000000  0.4999160000000  0.4732470000000 1.0
C      1  0.4880840000000  0.5228790000000  0.4575910000000 1.0
C      1  0.4976850000000  0.4364890000000  0.4703920000000 1.0
C      1  0.5040300000000  0.5734170000000  0.5185650000000 1.0
C      1  0.5227160000000  0.4668760000000  0.4330110000000 1.0
C      1  0.4461840000000  0.5641060000000  0.5471290000000 1.0
C      1  0.4525440000000  0.4541220000000  0.5296480000000 1.0
C      1  0.4736320000000  0.5685710000000  0.5288330000000 1.0
C      1  0.5090100000000  0.4386010000000  0.4403430000000 1.0
C      1  0.5744550000000  0.5120590000000  0.5227540000000 1.0
END
