TITL C-2778436-5916-313 -0.106700610453836 125000 -602.735144355028 0 0 105 (C1) n - 1
REM
REM in /home/nfs/bkarasulu/CARBON/AIRSS/Generating-Clusters/REBO/Only-C1/SD-CG/HFTN-CG
REM
REM
REM
REM
REM
REM ./C.cell (11c1c37f851c82e70ff6c80c92926a4b)
REM
REM compiler GCC version 9.2.1 20190827 (Red Hat 9.2.1-1)
REM options -cpp -mtune=generic -march=x86-64 -g -O0 -fpre-include=/usr/include/finclude/math-vector-fortran.h
REM seed 1725874594 -750655907 661462351 417620293 -712652284 606919432 -1035570484 2045054702 1623106736 -688894760 1889708753 1475978908 -1129330789 -803788600 1452027737 -1602434774 -258688323 1972511173 -2068030573 -301746591 -763452758 -1323115337 486019379 -218829622 -512320451 1497273222 -1647484922 1068069334 1111941936 -1619687920 -83710868 816610761 -1102374786
REM
CELL 1.54180   50.00000   50.00000   50.00000   90.00000   90.00000   90.00000
LATT -1
SFAC C  
C      1  0.5018420000000  0.4441910000000  0.5275570000000 1.0
C      1  0.5778700000000  0.5133270000000  0.4582510000000 1.0
C      1  0.5537440000000  0.4244090000000  0.5142340000000 1.0
C      1  0.5312400000000  0.5050450000000  0.4348870000000 1.0
C      1  0.5683360000000  0.5034910000000  0.5575030000000 1.0
C      1  0.5798950000000  0.4661770000000  0.4420380000000 1.0
C      1  0.4204480000000  0.5267240000000  0.4976190000000 1.0
C      1  0.5493490000000  0.5086130000000  0.4751550000000 1.0
C      1  0.4750670000000  0.5364910000000  0.5051290000000 1.0
C      1  0.4825280000000  0.4205480000000  0.4899750000000 1.0
C      1  0.5189650000000  0.4208360000000  0.4552870000000 1.0
C      1  0.5257140000000  0.4522000000000  0.5097150000000 1.0
C      1  0.4604130000000  0.5580320000000  0.5464240000000 1.0
C      1  0.4373900000000  0.4990910000000  0.4913190000000 1.0
C      1  0.4519540000000  0.4497660000000  0.4417640000000 1.0
C      1  0.4581650000000  0.5176420000000  0.5805760000000 1.0
C      1  0.5448720000000  0.5808380000000  0.5195900000000 1.0
C      1  0.4995340000000  0.4815010000000  0.4124970000000 1.0
C      1  0.5083490000000  0.4145780000000  0.5365240000000 1.0
C      1  0.4573740000000  0.4311580000000  0.5058280000000 1.0
C      1  0.5170290000000  0.5929280000000  0.4747970000000 1.0
C      1  0.4819630000000  0.5058430000000  0.5024600000000 1.0
C      1  0.5876540000000  0.4751640000000  0.4644480000000 1.0
C      1  0.5339370000000  0.4172130000000  0.4920000000000 1.0
C      1  0.4069840000000  0.5245910000000  0.5258680000000 1.0
C      1  0.5240630000000  0.4654450000000  0.4590870000000 1.0
C      1  0.5399080000000  0.5889090000000  0.4898860000000 1.0
C      1  0.4842490000000  0.4599370000000  0.4554640000000 1.0
C      1  0.5396930000000  0.5786340000000  0.5454640000000 1.0
C      1  0.5546920000000  0.4510640000000  0.4924390000000 1.0
C      1  0.4990590000000  0.5563650000000  0.4958950000000 1.0
C      1  0.5675730000000  0.5012640000000  0.5094050000000 1.0
C      1  0.5429190000000  0.4737100000000  0.5236510000000 1.0
C      1  0.4452170000000  0.5374610000000  0.5655440000000 1.0
C      1  0.5667960000000  0.4783340000000  0.4859120000000 1.0
C      1  0.4586910000000  0.4905050000000  0.4551030000000 1.0
C      1  0.5857260000000  0.5193650000000  0.4873590000000 1.0
C      1  0.4149380000000  0.4752590000000  0.4860540000000 1.0
C      1  0.5314590000000  0.5544460000000  0.5616110000000 1.0
C      1  0.5268740000000  0.4744330000000  0.4270800000000 1.0
C      1  0.4837710000000  0.4655260000000  0.5446650000000 1.0
C      1  0.5324830000000  0.5262250000000  0.5810120000000 1.0
C      1  0.4115660000000  0.4595830000000  0.5160600000000 1.0
C      1  0.4526980000000  0.5245200000000  0.4745390000000 1.0
C      1  0.4386320000000  0.5636290000000  0.5246690000000 1.0
C      1  0.4326310000000  0.4957370000000  0.5589810000000 1.0
C      1  0.4846390000000  0.4962300000000  0.5316920000000 1.0
C      1  0.5097500000000  0.5076060000000  0.5470930000000 1.0
C      1  0.4406990000000  0.4772500000000  0.5162120000000 1.0
C      1  0.4265980000000  0.5031870000000  0.4194480000000 1.0
C      1  0.5596130000000  0.5217510000000  0.5338670000000 1.0
C      1  0.5744600000000  0.4673300000000  0.5293620000000 1.0
C      1  0.5081030000000  0.4950310000000  0.5764900000000 1.0
C      1  0.5167650000000  0.5842630000000  0.4486750000000 1.0
C      1  0.5513990000000  0.4556630000000  0.4409510000000 1.0
C      1  0.5409800000000  0.4968770000000  0.5734320000000 1.0
C      1  0.5304530000000  0.5294030000000  0.5405420000000 1.0
C      1  0.5016320000000  0.4151470000000  0.5677350000000 1.0
C      1  0.4842880000000  0.5505360000000  0.5324910000000 1.0
C      1  0.4781480000000  0.4802280000000  0.4799350000000 1.0
C      1  0.4230020000000  0.5449220000000  0.5434810000000 1.0
C      1  0.5250110000000  0.4323280000000  0.5829100000000 1.0
C      1  0.5143800000000  0.5519370000000  0.5255970000000 1.0
C      1  0.4082170000000  0.4994900000000  0.5469090000000 1.0
C      1  0.4966440000000  0.5078550000000  0.4030230000000 1.0
C      1  0.4583740000000  0.5750250000000  0.4474350000000 1.0
C      1  0.5553320000000  0.5209340000000  0.4377320000000 1.0
C      1  0.4493660000000  0.4901180000000  0.4248170000000 1.0
C      1  0.4629220000000  0.4565130000000  0.5209260000000 1.0
C      1  0.5081810000000  0.5094800000000  0.4832780000000 1.0
C      1  0.5407890000000  0.4243950000000  0.5392700000000 1.0
C      1  0.5215400000000  0.5530130000000  0.5941460000000 1.0
C      1  0.4458950000000  0.5477130000000  0.4988060000000 1.0
C      1  0.5509730000000  0.5508690000000  0.4417210000000 1.0
C      1  0.4865000000000  0.6017620000000  0.5133840000000 1.0
C      1  0.5430620000000  0.4421220000000  0.5622300000000 1.0
C      1  0.5342500000000  0.4961980000000  0.5006780000000 1.0
C      1  0.4759000000000  0.4983250000000  0.5850770000000 1.0
C      1  0.5445370000000  0.4698260000000  0.5556520000000 1.0
C      1  0.5139980000000  0.4630240000000  0.4819530000000 1.0
C      1  0.4814710000000  0.5152210000000  0.4621810000000 1.0
C      1  0.4905730000000  0.5862660000000  0.4902190000000 1.0
C      1  0.4947440000000  0.4419910000000  0.5858050000000 1.0
C      1  0.4203700000000  0.5227010000000  0.4639530000000 1.0
C      1  0.4131650000000  0.5170070000000  0.4390130000000 1.0
C      1  0.4749130000000  0.4692240000000  0.4255050000000 1.0
C      1  0.5424500000000  0.5404880000000  0.4722890000000 1.0
C      1  0.4039330000000  0.4926900000000  0.5137510000000 1.0
C      1  0.5053380000000  0.5165880000000  0.4409740000000 1.0
C      1  0.4660040000000  0.5865420000000  0.4708630000000 1.0
C      1  0.4739900000000  0.5590630000000  0.4326500000000 1.0
C      1  0.5734070000000  0.5398370000000  0.5085410000000 1.0
C      1  0.4878200000000  0.4683290000000  0.5742890000000 1.0
C      1  0.5114290000000  0.5413190000000  0.4716660000000 1.0
C      1  0.4533220000000  0.4908300000000  0.5417640000000 1.0
C      1  0.4944000000000  0.5368720000000  0.4181810000000 1.0
C      1  0.5047560000000  0.5560900000000  0.4444930000000 1.0
C      1  0.5537980000000  0.5587700000000  0.4951530000000 1.0
C      1  0.5071790000000  0.4137360000000  0.5023130000000 1.0
C      1  0.5467590000000  0.4330800000000  0.4646460000000 1.0
C      1  0.4986640000000  0.4346780000000  0.4562430000000 1.0
C      1  0.4891980000000  0.4666440000000  0.5052210000000 1.0
C      1  0.5845710000000  0.4826960000000  0.5499060000000 1.0
C      1  0.4400030000000  0.4658350000000  0.4692610000000 1.0
C      1  0.4570890000000  0.4364020000000  0.4728470000000 1.0
END
