TITL C-2778437-8639-1487 0.00202809100364465 125000 -971.497885019797 0 0 166 (C1) n - 1
REM
REM in /home/nfs/bkarasulu/CARBON/AIRSS/Generating-Clusters/REBO/Only-C1/SD-CG/HFTN-CG
REM
REM
REM
REM
REM
REM ./C.cell (11c1c37f851c82e70ff6c80c92926a4b)
REM
REM compiler GCC version 9.2.1 20190827 (Red Hat 9.2.1-1)
REM options -cpp -mtune=generic -march=x86-64 -g -O0 -fpre-include=/usr/include/finclude/math-vector-fortran.h
REM seed 1871564746 423319633 1149347025 1226139566 -1886916416 698641399 -972080098 -1262615711 1731163578 644930567 622231884 2146563913 -1962131171 504345303 -514777404 -473606081 916186884 163812500 1311411846 -1195211417 -721001996 1207744661 -1091525418 51236893 -68927037 -1901777224 -803841251 -1502126315 914705356 -110302363 -1653035340 1860861762 2018399235
REM
CELL 1.54180   50.00000   50.00000   50.00000   90.00000   90.00000   90.00000
LATT -1
SFAC C  
C      1  0.5131620000000  0.5327980000000  0.4100980000000 1.0
C      1  0.5841000000000  0.5295510000000  0.5457690000000 1.0
C      1  0.4710300000000  0.5850930000000  0.5265040000000 1.0
C      1  0.4653550000000  0.4051850000000  0.5342940000000 1.0
C      1  0.5274160000000  0.4711120000000  0.4419760000000 1.0
C      1  0.4449230000000  0.6039040000000  0.5269270000000 1.0
C      1  0.5548230000000  0.5932200000000  0.4750190000000 1.0
C      1  0.5866600000000  0.4423470000000  0.4754580000000 1.0
C      1  0.5042960000000  0.4930830000000  0.5066310000000 1.0
C      1  0.5837370000000  0.4951840000000  0.4684860000000 1.0
C      1  0.4994410000000  0.4750440000000  0.4548830000000 1.0
C      1  0.5250890000000  0.4489970000000  0.4207650000000 1.0
C      1  0.5337210000000  0.5011540000000  0.5581720000000 1.0
C      1  0.5280920000000  0.5411240000000  0.5029020000000 1.0
C      1  0.5696900000000  0.4562110000000  0.4336910000000 1.0
C      1  0.4226950000000  0.4348760000000  0.4721180000000 1.0
C      1  0.4033210000000  0.5374570000000  0.4591250000000 1.0
C      1  0.4640920000000  0.4561870000000  0.4669330000000 1.0
C      1  0.5203690000000  0.6078470000000  0.5184120000000 1.0
C      1  0.5273370000000  0.5110270000000  0.3900300000000 1.0
C      1  0.4954050000000  0.5303950000000  0.5774600000000 1.0
C      1  0.4314720000000  0.5792720000000  0.5470440000000 1.0
C      1  0.5167470000000  0.5233950000000  0.6013640000000 1.0
C      1  0.4567580000000  0.5748250000000  0.4499470000000 1.0
C      1  0.4393790000000  0.5055140000000  0.4177070000000 1.0
C      1  0.4940810000000  0.3960080000000  0.4869440000000 1.0
C      1  0.5084650000000  0.5916290000000  0.4845510000000 1.0
C      1  0.4577770000000  0.5041440000000  0.5966040000000 1.0
C      1  0.4524970000000  0.5628050000000  0.4882520000000 1.0
C      1  0.5232860000000  0.5742250000000  0.5099880000000 1.0
C      1  0.4016120000000  0.5261470000000  0.5207180000000 1.0
C      1  0.5721170000000  0.4691900000000  0.4714430000000 1.0
C      1  0.4405870000000  0.5191870000000  0.5773530000000 1.0
C      1  0.4858870000000  0.5397450000000  0.4575340000000 1.0
C      1  0.4095760000000  0.5060260000000  0.4582160000000 1.0
C      1  0.5296300000000  0.4322330000000  0.5483050000000 1.0
C      1  0.5329530000000  0.6054280000000  0.4714200000000 1.0
C      1  0.4962620000000  0.4822130000000  0.5353570000000 1.0
C      1  0.4621710000000  0.5525380000000  0.5757060000000 1.0
C      1  0.4784090000000  0.4541070000000  0.4929810000000 1.0
C      1  0.5898080000000  0.4824500000000  0.5097790000000 1.0
C      1  0.4538670000000  0.4575060000000  0.4172440000000 1.0
C      1  0.5314970000000  0.5083300000000  0.5118440000000 1.0
C      1  0.5384100000000  0.4511610000000  0.5211370000000 1.0
C      1  0.5189040000000  0.5537280000000  0.5856520000000 1.0
C      1  0.4930670000000  0.5509080000000  0.4259320000000 1.0
C      1  0.4049310000000  0.5550800000000  0.5053120000000 1.0
C      1  0.5717990000000  0.5181040000000  0.4140120000000 1.0
C      1  0.5575300000000  0.4236520000000  0.5623150000000 1.0
C      1  0.5683230000000  0.4962110000000  0.5942860000000 1.0
C      1  0.5606730000000  0.5275740000000  0.5711690000000 1.0
C      1  0.5084890000000  0.5821000000000  0.5793450000000 1.0
C      1  0.5809140000000  0.5207480000000  0.5170400000000 1.0
C      1  0.5608150000000  0.5160280000000  0.4713580000000 1.0
C      1  0.5220850000000  0.5541500000000  0.4656150000000 1.0
C      1  0.5840460000000  0.5683710000000  0.5041560000000 1.0
C      1  0.4624350000000  0.5073410000000  0.4601280000000 1.0
C      1  0.3816600000000  0.5066020000000  0.5013080000000 1.0
C      1  0.4963090000000  0.5709310000000  0.4534010000000 1.0
C      1  0.4914810000000  0.6138780000000  0.5011330000000 1.0
C      1  0.5710230000000  0.5449730000000  0.4603700000000 1.0
C      1  0.6050600000000  0.5093440000000  0.4987100000000 1.0
C      1  0.5701900000000  0.4162900000000  0.5371110000000 1.0
C      1  0.4136050000000  0.5534980000000  0.5372260000000 1.0
C      1  0.4833430000000  0.4933330000000  0.3993860000000 1.0
C      1  0.4921780000000  0.5113880000000  0.4204740000000 1.0
C      1  0.4541930000000  0.5097280000000  0.5014300000000 1.0
C      1  0.5689450000000  0.4342640000000  0.4524670000000 1.0
C      1  0.5724410000000  0.5589930000000  0.5501270000000 1.0
C      1  0.4833330000000  0.5160170000000  0.6035110000000 1.0
C      1  0.4774680000000  0.4770590000000  0.5567330000000 1.0
C      1  0.5048630000000  0.4175100000000  0.5780940000000 1.0
C      1  0.5039960000000  0.5485420000000  0.5338150000000 1.0
C      1  0.4905080000000  0.4400090000000  0.5361870000000 1.0
C      1  0.4954850000000  0.5414380000000  0.5038100000000 1.0
C      1  0.5598250000000  0.4959530000000  0.5184670000000 1.0
C      1  0.4337140000000  0.5170280000000  0.4752120000000 1.0
C      1  0.5029240000000  0.4704880000000  0.4867750000000 1.0
C      1  0.4618310000000  0.4439250000000  0.5749450000000 1.0
C      1  0.4347000000000  0.5011920000000  0.5572230000000 1.0
C      1  0.5856080000000  0.5042080000000  0.5684760000000 1.0
C      1  0.4627060000000  0.4570010000000  0.5232090000000 1.0
C      1  0.5929830000000  0.5527040000000  0.4831830000000 1.0
C      1  0.4863840000000  0.5609570000000  0.5540060000000 1.0
C      1  0.4472290000000  0.4804360000000  0.4668990000000 1.0
C      1  0.5191500000000  0.4550110000000  0.5707290000000 1.0
C      1  0.5229660000000  0.4623440000000  0.3924640000000 1.0
C      1  0.4603590000000  0.6091730000000  0.4969140000000 1.0
C      1  0.5669100000000  0.4377240000000  0.5189930000000 1.0
C      1  0.5267340000000  0.5249370000000  0.5396310000000 1.0
C      1  0.4351960000000  0.4439720000000  0.4421710000000 1.0
C      1  0.5612900000000  0.4890210000000  0.5496440000000 1.0
C      1  0.5207680000000  0.5926360000000  0.5548370000000 1.0
C      1  0.5117750000000  0.3946220000000  0.4574040000000 1.0
C      1  0.5101820000000  0.5228180000000  0.4716410000000 1.0
C      1  0.4459020000000  0.5329550000000  0.4217740000000 1.0
C      1  0.4329150000000  0.4542830000000  0.5498840000000 1.0
C      1  0.4874100000000  0.4321140000000  0.5633670000000 1.0
C      1  0.5412220000000  0.5288260000000  0.4230330000000 1.0
C      1  0.4164000000000  0.4666950000000  0.4303520000000 1.0
C      1  0.5863140000000  0.4507200000000  0.5038070000000 1.0
C      1  0.4904550000000  0.4206870000000  0.4638830000000 1.0
C      1  0.5719110000000  0.4453830000000  0.5742130000000 1.0
C      1  0.4851000000000  0.5131560000000  0.4925610000000 1.0
C      1  0.4796480000000  0.4532060000000  0.4387060000000 1.0
C      1  0.4544460000000  0.6001570000000  0.5596030000000 1.0
C      1  0.5104220000000  0.4876840000000  0.3875600000000 1.0
C      1  0.5420620000000  0.4703470000000  0.4715450000000 1.0
C      1  0.4054710000000  0.4873670000000  0.5117820000000 1.0
C      1  0.5916570000000  0.5100160000000  0.4392690000000 1.0
C      1  0.5204000000000  0.4027700000000  0.5062650000000 1.0
C      1  0.5433060000000  0.4991670000000  0.4347890000000 1.0
C      1  0.4279910000000  0.4799800000000  0.4887040000000 1.0
C      1  0.4483540000000  0.4768470000000  0.5568350000000 1.0
C      1  0.5694060000000  0.5772020000000  0.5283840000000 1.0
C      1  0.5272080000000  0.4527190000000  0.4924210000000 1.0
C      1  0.4321170000000  0.5501740000000  0.5655740000000 1.0
C      1  0.4626510000000  0.5616060000000  0.5135480000000 1.0
C      1  0.5374530000000  0.3906330000000  0.4794070000000 1.0
C      1  0.5257310000000  0.4717190000000  0.5439520000000 1.0
C      1  0.4856320000000  0.4279880000000  0.5086910000000 1.0
C      1  0.4680230000000  0.5321810000000  0.5229440000000 1.0
C      1  0.4967780000000  0.4327270000000  0.4233280000000 1.0
C      1  0.4609300000000  0.5553330000000  0.4306120000000 1.0
C      1  0.4437220000000  0.4127470000000  0.4829490000000 1.0
C      1  0.4566150000000  0.4856600000000  0.4060340000000 1.0
C      1  0.5516180000000  0.5634630000000  0.4800760000000 1.0
C      1  0.5445760000000  0.5544620000000  0.5685300000000 1.0
C      1  0.5814570000000  0.4661500000000  0.5572920000000 1.0
C      1  0.5322220000000  0.5025580000000  0.4664030000000 1.0
C      1  0.5446860000000  0.4170650000000  0.4590910000000 1.0
C      1  0.4754960000000  0.5838500000000  0.5753110000000 1.0
C      1  0.5143790000000  0.4079340000000  0.5352440000000 1.0
C      1  0.5345350000000  0.5581470000000  0.5380040000000 1.0
C      1  0.4808620000000  0.4226780000000  0.3992700000000 1.0
C      1  0.4620230000000  0.4722220000000  0.5939900000000 1.0
C      1  0.5558560000000  0.5111610000000  0.3903400000000 1.0
C      1  0.4184510000000  0.4936990000000  0.4325340000000 1.0
C      1  0.4038450000000  0.4578540000000  0.4849910000000 1.0
C      1  0.4591070000000  0.4354120000000  0.3955480000000 1.0
C      1  0.6006890000000  0.4671290000000  0.5372060000000 1.0
C      1  0.6031590000000  0.5233260000000  0.4688180000000 1.0
C      1  0.4587300000000  0.4252790000000  0.4579540000000 1.0
C      1  0.3969810000000  0.4573890000000  0.5182710000000 1.0
C      1  0.4525990000000  0.4312050000000  0.5439810000000 1.0
C      1  0.5451230000000  0.5499630000000  0.4434680000000 1.0
C      1  0.4947650000000  0.5957700000000  0.5364410000000 1.0
C      1  0.5225960000000  0.4183010000000  0.4355350000000 1.0
C      1  0.5599940000000  0.5352250000000  0.4974490000000 1.0
C      1  0.4874690000000  0.5015150000000  0.4466580000000 1.0
C      1  0.4645700000000  0.4027730000000  0.5024190000000 1.0
C      1  0.4940440000000  0.4662350000000  0.5828400000000 1.0
C      1  0.3913630000000  0.4879150000000  0.4748090000000 1.0
C      1  0.4863190000000  0.4621410000000  0.6157710000000 1.0
C      1  0.4446460000000  0.4820710000000  0.5173540000000 1.0
C      1  0.4231450000000  0.5052440000000  0.5308500000000 1.0
C      1  0.4742990000000  0.5297560000000  0.5528800000000 1.0
C      1  0.4031220000000  0.5558150000000  0.4789070000000 1.0
C      1  0.5710340000000  0.4834770000000  0.4325070000000 1.0
C      1  0.4763540000000  0.5907660000000  0.4727330000000 1.0
C      1  0.4902980000000  0.3975150000000  0.5436790000000 1.0
C      1  0.4065220000000  0.4489610000000  0.5419390000000 1.0
C      1  0.4570520000000  0.5396300000000  0.4692850000000 1.0
C      1  0.5473770000000  0.5954770000000  0.5338190000000 1.0
C      1  0.5397270000000  0.5078400000000  0.5895920000000 1.0
C      1  0.5199260000000  0.4257610000000  0.4809070000000 1.0
END
