TITL C-2778435-5768-1450 0.00511950694203107 125000 -654.70182188351 0 0 113 (C1) n - 1
REM
REM in /home/nfs/bkarasulu/CARBON/AIRSS/Generating-Clusters/REBO/Only-C1/SD-CG/HFTN-CG
REM
REM
REM
REM
REM
REM ./C.cell (11c1c37f851c82e70ff6c80c92926a4b)
REM
REM compiler GCC version 9.2.1 20190827 (Red Hat 9.2.1-1)
REM options -cpp -mtune=generic -march=x86-64 -g -O0 -fpre-include=/usr/include/finclude/math-vector-fortran.h
REM seed -2077992553 653618705 2046299958 958818472 426317720 -1576223694 1506387324 93351635 -1934901678 1296135957 -1892306939 -1339062489 1383408741 870553219 -339508852 509392923 -1202550884 516415337 -355457506 1867062407 -545266460 -294276515 -709211737 -2145515266 -1923683503 -743647781 -142926789 1949194578 -1527664706 -1743025828 -2053911527 -95257162 1122051647
REM
CELL 1.54180   50.00000   50.00000   50.00000   90.00000   90.00000   90.00000
LATT -1
SFAC C  
C      1  0.5375060000000  0.5642290000000  0.4512590000000 1.0
C      1  0.4349090000000  0.5127770000000  0.5339730000000 1.0
C      1  0.4655350000000  0.4144600000000  0.4592020000000 1.0
C      1  0.4520940000000  0.5652450000000  0.4555110000000 1.0
C      1  0.4633290000000  0.5532930000000  0.5961260000000 1.0
C      1  0.4724380000000  0.4578040000000  0.4562310000000 1.0
C      1  0.4130600000000  0.4765000000000  0.4498810000000 1.0
C      1  0.5269820000000  0.5373230000000  0.4238510000000 1.0
C      1  0.4970870000000  0.4060490000000  0.4720330000000 1.0
C      1  0.4979680000000  0.5913350000000  0.5246260000000 1.0
C      1  0.5777570000000  0.5551860000000  0.5457370000000 1.0
C      1  0.5792150000000  0.4486820000000  0.5115780000000 1.0
C      1  0.5556050000000  0.5255260000000  0.4150130000000 1.0
C      1  0.4996580000000  0.5511000000000  0.5398950000000 1.0
C      1  0.4434520000000  0.5418990000000  0.4448770000000 1.0
C      1  0.5314030000000  0.4480060000000  0.5757420000000 1.0
C      1  0.5362880000000  0.4658750000000  0.4878620000000 1.0
C      1  0.5397410000000  0.4291560000000  0.4637540000000 1.0
C      1  0.5249900000000  0.4606260000000  0.4307720000000 1.0
C      1  0.5464500000000  0.4129020000000  0.5309570000000 1.0
C      1  0.4393200000000  0.5135270000000  0.4577500000000 1.0
C      1  0.5478680000000  0.4539130000000  0.4501330000000 1.0
C      1  0.5146800000000  0.5902210000000  0.4967150000000 1.0
C      1  0.5235790000000  0.4863320000000  0.4157740000000 1.0
C      1  0.4968540000000  0.5759070000000  0.4762140000000 1.0
C      1  0.5240810000000  0.5450820000000  0.5706680000000 1.0
C      1  0.5113160000000  0.5740160000000  0.4495940000000 1.0
C      1  0.4467400000000  0.4384810000000  0.4522010000000 1.0
C      1  0.4339410000000  0.5057750000000  0.5600140000000 1.0
C      1  0.5652000000000  0.5056820000000  0.5064000000000 1.0
C      1  0.4761250000000  0.4625750000000  0.4879190000000 1.0
C      1  0.5868120000000  0.5076190000000  0.5362040000000 1.0
C      1  0.4950870000000  0.4840350000000  0.5031560000000 1.0
C      1  0.4552640000000  0.5566440000000  0.6208350000000 1.0
C      1  0.4206630000000  0.4518430000000  0.4665530000000 1.0
C      1  0.5602910000000  0.5333590000000  0.6083860000000 1.0
C      1  0.4945260000000  0.4476740000000  0.4389890000000 1.0
C      1  0.5322310000000  0.4801290000000  0.5344640000000 1.0
C      1  0.4591070000000  0.4886510000000  0.4633580000000 1.0
C      1  0.4654260000000  0.5784650000000  0.4765590000000 1.0
C      1  0.4624090000000  0.5633650000000  0.5472770000000 1.0
C      1  0.5176570000000  0.4656770000000  0.5123540000000 1.0
C      1  0.4958410000000  0.5301940000000  0.4348330000000 1.0
C      1  0.4818250000000  0.4986850000000  0.5263610000000 1.0
C      1  0.5464420000000  0.5352480000000  0.4544470000000 1.0
C      1  0.4824230000000  0.4461300000000  0.5998500000000 1.0
C      1  0.4021960000000  0.5460030000000  0.4909250000000 1.0
C      1  0.5114920000000  0.4355460000000  0.4123410000000 1.0
C      1  0.4271280000000  0.5598620000000  0.5085940000000 1.0
C      1  0.4949110000000  0.5291090000000  0.5635800000000 1.0
C      1  0.4718350000000  0.5497580000000  0.5700680000000 1.0
C      1  0.5189950000000  0.4227260000000  0.4846360000000 1.0
C      1  0.5409270000000  0.5095120000000  0.5239000000000 1.0
C      1  0.4166010000000  0.5277840000000  0.5152750000000 1.0
C      1  0.4864010000000  0.5025810000000  0.5540350000000 1.0
C      1  0.4583970000000  0.4841300000000  0.4236900000000 1.0
C      1  0.4504630000000  0.4831140000000  0.4957860000000 1.0
C      1  0.4388240000000  0.4668770000000  0.4346390000000 1.0
C      1  0.4061240000000  0.5036430000000  0.4949590000000 1.0
C      1  0.6022990000000  0.4338370000000  0.5060450000000 1.0
C      1  0.4396000000000  0.4875520000000  0.5865000000000 1.0
C      1  0.4707510000000  0.5834280000000  0.5255770000000 1.0
C      1  0.4903760000000  0.4021660000000  0.5191830000000 1.0
C      1  0.4550780000000  0.5006920000000  0.5191130000000 1.0
C      1  0.4730450000000  0.4306470000000  0.5117310000000 1.0
C      1  0.5555600000000  0.5617920000000  0.5256700000000 1.0
C      1  0.4687820000000  0.5364820000000  0.5015440000000 1.0
C      1  0.5859570000000  0.4966830000000  0.4628710000000 1.0
C      1  0.5064140000000  0.4375030000000  0.5107530000000 1.0
C      1  0.5622240000000  0.5161330000000  0.4780260000000 1.0
C      1  0.5641740000000  0.4850260000000  0.5451230000000 1.0
C      1  0.5269110000000  0.4836200000000  0.4679810000000 1.0
C      1  0.4070940000000  0.4777790000000  0.5045340000000 1.0
C      1  0.5319940000000  0.5863410000000  0.5259540000000 1.0
C      1  0.3935390000000  0.5314940000000  0.4692080000000 1.0
C      1  0.5230740000000  0.5663870000000  0.5484010000000 1.0
C      1  0.4535620000000  0.5215130000000  0.4850900000000 1.0
C      1  0.5745830000000  0.4700100000000  0.4604320000000 1.0
C      1  0.4199180000000  0.4875330000000  0.6055900000000 1.0
C      1  0.5086010000000  0.4453870000000  0.5893160000000 1.0
C      1  0.4773580000000  0.5111490000000  0.4167540000000 1.0
C      1  0.5208370000000  0.5510620000000  0.5018880000000 1.0
C      1  0.4539940000000  0.5472140000000  0.5231180000000 1.0
C      1  0.5197280000000  0.4097690000000  0.5239170000000 1.0
C      1  0.4655720000000  0.4660500000000  0.5913890000000 1.0
C      1  0.5630280000000  0.4589680000000  0.4866470000000 1.0
C      1  0.5405870000000  0.5709670000000  0.4900560000000 1.0
C      1  0.5332500000000  0.5364690000000  0.5240740000000 1.0
C      1  0.4216020000000  0.4555330000000  0.4944520000000 1.0
C      1  0.5831340000000  0.4791200000000  0.5177770000000 1.0
C      1  0.4973200000000  0.5229230000000  0.4653860000000 1.0
C      1  0.4699250000000  0.4889790000000  0.5711030000000 1.0
C      1  0.4504310000000  0.4505690000000  0.5062320000000 1.0
C      1  0.4745800000000  0.4275190000000  0.6181430000000 1.0
C      1  0.5620250000000  0.5041300000000  0.4271060000000 1.0
C      1  0.5878180000000  0.5467790000000  0.4800200000000 1.0
C      1  0.5902060000000  0.5334730000000  0.5472250000000 1.0
C      1  0.5991170000000  0.5251290000000  0.4663680000000 1.0
C      1  0.5484840000000  0.4573540000000  0.5523570000000 1.0
C      1  0.4708440000000  0.4045340000000  0.4913210000000 1.0
C      1  0.4941330000000  0.5448340000000  0.4870960000000 1.0
C      1  0.4104190000000  0.5047780000000  0.4624030000000 1.0
C      1  0.5425820000000  0.5390920000000  0.5899390000000 1.0
C      1  0.5689540000000  0.5618300000000  0.4943620000000 1.0
C      1  0.4844560000000  0.4927260000000  0.4422480000000 1.0
C      1  0.5041280000000  0.4976360000000  0.4764800000000 1.0
C      1  0.5605870000000  0.4360630000000  0.5334810000000 1.0
C      1  0.5471650000000  0.4993410000000  0.4540860000000 1.0
C      1  0.4960350000000  0.5617370000000  0.4303190000000 1.0
C      1  0.4939360000000  0.4144970000000  0.4403760000000 1.0
C      1  0.5262980000000  0.4095170000000  0.4449660000000 1.0
C      1  0.5193380000000  0.5095410000000  0.4099730000000 1.0
C      1  0.4531200000000  0.5808720000000  0.5019780000000 1.0
END
