TITL C-2778434-4341-451 -0.0134003756628212 125000 -597.975101437861 0 0 103 (C1) n - 1
REM
REM in /home/nfs/bkarasulu/CARBON/AIRSS/Generating-Clusters/REBO/Only-C1/SD-CG/HFTN-CG
REM
REM
REM
REM
REM
REM ./C.cell (11c1c37f851c82e70ff6c80c92926a4b)
REM
REM compiler GCC version 9.2.1 20190827 (Red Hat 9.2.1-1)
REM options -cpp -mtune=generic -march=x86-64 -g -O0 -fpre-include=/usr/include/finclude/math-vector-fortran.h
REM seed -1743943897 -105338951 -222573150 -1017234492 -1914615673 -104799538 827003556 1139626094 -840378679 -1873306489 177278895 -1910545327 2059166430 1520802783 1116794539 -825022140 2050022416 1437370877 -349686607 -1724512047 934771536 -1944897766 1476195186 -810269662 1868630162 -1810191600 1900462248 1029523396 1556816987 -228286869 1842801486 697126926 1843847290
REM
CELL 1.54180   50.00000   50.00000   50.00000   90.00000   90.00000   90.00000
LATT -1
SFAC C  
C      1  0.5600190000000  0.5270210000000  0.4828330000000 1.0
C      1  0.4171110000000  0.5438200000000  0.4879410000000 1.0
C      1  0.4322110000000  0.4449240000000  0.4713790000000 1.0
C      1  0.4659830000000  0.5105050000000  0.5397340000000 1.0
C      1  0.4475390000000  0.4944550000000  0.4384690000000 1.0
C      1  0.5695180000000  0.4718920000000  0.4976420000000 1.0
C      1  0.5052890000000  0.5354580000000  0.5864170000000 1.0
C      1  0.5776850000000  0.4747800000000  0.4672570000000 1.0
C      1  0.4970890000000  0.4797650000000  0.5930320000000 1.0
C      1  0.4679600000000  0.4530570000000  0.4455450000000 1.0
C      1  0.5087180000000  0.4730290000000  0.5203510000000 1.0
C      1  0.4536580000000  0.5807300000000  0.5171630000000 1.0
C      1  0.5150140000000  0.5268880000000  0.4258470000000 1.0
C      1  0.5363130000000  0.5065700000000  0.4868580000000 1.0
C      1  0.5065640000000  0.5711940000000  0.5354200000000 1.0
C      1  0.4034120000000  0.4945890000000  0.4939530000000 1.0
C      1  0.5400160000000  0.4809230000000  0.5082030000000 1.0
C      1  0.4854510000000  0.4393920000000  0.5844980000000 1.0
C      1  0.4919690000000  0.5746650000000  0.4864650000000 1.0
C      1  0.5665670000000  0.4101810000000  0.4996640000000 1.0
C      1  0.5317210000000  0.5767790000000  0.4836880000000 1.0
C      1  0.4333950000000  0.4955460000000  0.4870450000000 1.0
C      1  0.5381870000000  0.4500350000000  0.4858150000000 1.0
C      1  0.4579310000000  0.5676360000000  0.5412390000000 1.0
C      1  0.5182270000000  0.5038480000000  0.5319440000000 1.0
C      1  0.5041860000000  0.5110530000000  0.6018980000000 1.0
C      1  0.5450180000000  0.5052090000000  0.5735620000000 1.0
C      1  0.4988100000000  0.5623800000000  0.4490780000000 1.0
C      1  0.4115090000000  0.5209390000000  0.5087020000000 1.0
C      1  0.4645570000000  0.4267910000000  0.4564660000000 1.0
C      1  0.5289390000000  0.5649690000000  0.4568270000000 1.0
C      1  0.4505800000000  0.5645800000000  0.4947650000000 1.0
C      1  0.5748100000000  0.4600070000000  0.5447470000000 1.0
C      1  0.5904270000000  0.5304150000000  0.5198570000000 1.0
C      1  0.5146970000000  0.5432670000000  0.5372070000000 1.0
C      1  0.5627620000000  0.5283200000000  0.4535300000000 1.0
C      1  0.4762760000000  0.5007930000000  0.4465720000000 1.0
C      1  0.5278200000000  0.4907870000000  0.5935250000000 1.0
C      1  0.4465690000000  0.5385550000000  0.5432190000000 1.0
C      1  0.5268470000000  0.5331230000000  0.5655960000000 1.0
C      1  0.5697690000000  0.4902570000000  0.5554370000000 1.0
C      1  0.4597610000000  0.5378570000000  0.4924030000000 1.0
C      1  0.5926090000000  0.5624620000000  0.4841320000000 1.0
C      1  0.4743370000000  0.4768580000000  0.5761130000000 1.0
C      1  0.4573060000000  0.4275880000000  0.4880900000000 1.0
C      1  0.4599310000000  0.5472660000000  0.4398390000000 1.0
C      1  0.4739420000000  0.5878990000000  0.4684910000000 1.0
C      1  0.4882510000000  0.5476030000000  0.4224570000000 1.0
C      1  0.4635570000000  0.5033250000000  0.5696140000000 1.0
C      1  0.4833200000000  0.5701140000000  0.5547650000000 1.0
C      1  0.4876690000000  0.4835110000000  0.4057670000000 1.0
C      1  0.4719170000000  0.4547600000000  0.5265560000000 1.0
C      1  0.5464940000000  0.5197520000000  0.5424500000000 1.0
C      1  0.5839080000000  0.4596520000000  0.5176660000000 1.0
C      1  0.5186070000000  0.4004590000000  0.4963730000000 1.0
C      1  0.4735520000000  0.4648490000000  0.4204360000000 1.0
C      1  0.5433260000000  0.4030280000000  0.5139880000000 1.0
C      1  0.5581610000000  0.4812470000000  0.4406060000000 1.0
C      1  0.5781830000000  0.5161050000000  0.5381480000000 1.0
C      1  0.4327090000000  0.4701260000000  0.4534030000000 1.0
C      1  0.5369090000000  0.4473100000000  0.4433000000000 1.0
C      1  0.5117680000000  0.5214710000000  0.4756170000000 1.0
C      1  0.4800750000000  0.5205200000000  0.4998040000000 1.0
C      1  0.5203970000000  0.4774720000000  0.4385670000000 1.0
C      1  0.5034530000000  0.4494970000000  0.5669040000000 1.0
C      1  0.4270130000000  0.5152350000000  0.5327190000000 1.0
C      1  0.4535020000000  0.5709020000000  0.4554690000000 1.0
C      1  0.4854900000000  0.5579250000000  0.3966840000000 1.0
C      1  0.5043920000000  0.4153310000000  0.5230270000000 1.0
C      1  0.4777700000000  0.4873460000000  0.5215650000000 1.0
C      1  0.4828080000000  0.5497220000000  0.5766300000000 1.0
C      1  0.4730830000000  0.6149950000000  0.4660240000000 1.0
C      1  0.4296460000000  0.4393980000000  0.5030490000000 1.0
C      1  0.4273560000000  0.5698070000000  0.4737510000000 1.0
C      1  0.5098910000000  0.4311200000000  0.4870630000000 1.0
C      1  0.5097480000000  0.4462350000000  0.5353530000000 1.0
C      1  0.4443470000000  0.5243470000000  0.4462620000000 1.0
C      1  0.4988470000000  0.4732600000000  0.4635120000000 1.0
C      1  0.5402580000000  0.5419230000000  0.4414060000000 1.0
C      1  0.5639440000000  0.4325040000000  0.4830640000000 1.0
C      1  0.4385920000000  0.5225560000000  0.4757810000000 1.0
C      1  0.5635890000000  0.4456420000000  0.4553890000000 1.0
C      1  0.5380080000000  0.4782120000000  0.4684290000000 1.0
C      1  0.5351450000000  0.4232220000000  0.5365780000000 1.0
C      1  0.4497480000000  0.4827740000000  0.5058060000000 1.0
C      1  0.5808080000000  0.5408760000000  0.4958410000000 1.0
C      1  0.5118990000000  0.5824900000000  0.5087600000000 1.0
C      1  0.4608020000000  0.4725520000000  0.4691890000000 1.0
C      1  0.5096270000000  0.4450580000000  0.4589340000000 1.0
C      1  0.5778670000000  0.5038890000000  0.4484280000000 1.0
C      1  0.5001230000000  0.5470310000000  0.4777480000000 1.0
C      1  0.5526650000000  0.4436600000000  0.5523280000000 1.0
C      1  0.5406820000000  0.4804720000000  0.5425720000000 1.0
C      1  0.5310060000000  0.4603020000000  0.5660380000000 1.0
C      1  0.4813820000000  0.4960520000000  0.4810680000000 1.0
C      1  0.4597740000000  0.5328900000000  0.5721880000000 1.0
C      1  0.4332070000000  0.4876770000000  0.5416750000000 1.0
C      1  0.5029170000000  0.5112130000000  0.4509890000000 1.0
C      1  0.5107320000000  0.4946480000000  0.4159100000000 1.0
C      1  0.4330620000000  0.4615640000000  0.5201740000000 1.0
C      1  0.4995060000000  0.5247220000000  0.5190540000000 1.0
C      1  0.4578820000000  0.4685930000000  0.5507060000000 1.0
C      1  0.4816160000000  0.4340010000000  0.5059580000000 1.0
END
