TITL C-2778433-5640-272 -0.000208917598874964 125000 -580.194051931698 0 0 101 (C1) n - 1
REM
REM in /home/nfs/bkarasulu/CARBON/AIRSS/Generating-Clusters/REBO/Only-C1/SD-CG/HFTN-CG
REM
REM
REM
REM
REM
REM ./C.cell (11c1c37f851c82e70ff6c80c92926a4b)
REM
REM compiler GCC version 9.2.1 20190827 (Red Hat 9.2.1-1)
REM options -cpp -mtune=generic -march=x86-64 -g -O0 -fpre-include=/usr/include/finclude/math-vector-fortran.h
REM seed -621520450 1746826638 -1991794082 -2146751523 1043029876 29379770 -2010616253 -1175384175 736829382 2034656488 351995814 1540359707 1175082044 -622660872 197091589 -742128783 -613390160 -1715529920 1539936466 -278817877 -548768362 360221072 -990346115 -1180660241 1988129768 -1081697320 -1031818573 290008383 1305859297 -1360116821 1422894082 592277762 1651122909
REM
CELL 1.54180   50.00000   50.00000   50.00000   90.00000   90.00000   90.00000
LATT -1
SFAC C  
C      1  0.4624070000000  0.4299020000000  0.5356370000000 1.0
C      1  0.5188890000000  0.4523460000000  0.5015860000000 1.0
C      1  0.5423150000000  0.5668490000000  0.4380880000000 1.0
C      1  0.4803120000000  0.5837960000000  0.5196270000000 1.0
C      1  0.5311460000000  0.4774740000000  0.4821040000000 1.0
C      1  0.5689180000000  0.5599340000000  0.4768630000000 1.0
C      1  0.4594080000000  0.5370300000000  0.5759330000000 1.0
C      1  0.4960350000000  0.4873960000000  0.4974530000000 1.0
C      1  0.5284920000000  0.4695140000000  0.4241310000000 1.0
C      1  0.5318260000000  0.5844150000000  0.5244730000000 1.0
C      1  0.5349890000000  0.5385600000000  0.4960840000000 1.0
C      1  0.5440420000000  0.4923540000000  0.5306240000000 1.0
C      1  0.4427770000000  0.5231610000000  0.5342160000000 1.0
C      1  0.5496680000000  0.4482700000000  0.4404020000000 1.0
C      1  0.4685920000000  0.4473600000000  0.5573510000000 1.0
C      1  0.4970340000000  0.4413870000000  0.4589060000000 1.0
C      1  0.5632080000000  0.4513100000000  0.4709430000000 1.0
C      1  0.5333910000000  0.5352720000000  0.4482730000000 1.0
C      1  0.5797350000000  0.5179950000000  0.4968830000000 1.0
C      1  0.4212590000000  0.5258740000000  0.4638860000000 1.0
C      1  0.4803220000000  0.5132330000000  0.4360920000000 1.0
C      1  0.5498430000000  0.4390770000000  0.5377390000000 1.0
C      1  0.4947090000000  0.5075680000000  0.5456630000000 1.0
C      1  0.4321760000000  0.5418250000000  0.5134890000000 1.0
C      1  0.5330400000000  0.5266570000000  0.5564300000000 1.0
C      1  0.4811000000000  0.5525910000000  0.5270620000000 1.0
C      1  0.4595150000000  0.5321050000000  0.4717760000000 1.0
C      1  0.4180780000000  0.4530560000000  0.5234210000000 1.0
C      1  0.4044300000000  0.5003250000000  0.5064430000000 1.0
C      1  0.5558230000000  0.5432850000000  0.5385000000000 1.0
C      1  0.5125550000000  0.5689830000000  0.4480100000000 1.0
C      1  0.5711040000000  0.5492360000000  0.5086120000000 1.0
C      1  0.5002450000000  0.5201860000000  0.5006810000000 1.0
C      1  0.4348480000000  0.4663320000000  0.4898170000000 1.0
C      1  0.5127510000000  0.5325480000000  0.4719550000000 1.0
C      1  0.4858730000000  0.5442560000000  0.5748640000000 1.0
C      1  0.4542020000000  0.4724250000000  0.5622190000000 1.0
C      1  0.4673110000000  0.4891630000000  0.5845470000000 1.0
C      1  0.5104990000000  0.4132580000000  0.5010190000000 1.0
C      1  0.4487020000000  0.5027780000000  0.4813680000000 1.0
C      1  0.4173690000000  0.4895440000000  0.4800130000000 1.0
C      1  0.5358840000000  0.4534250000000  0.5587430000000 1.0
C      1  0.4573110000000  0.4144040000000  0.4850760000000 1.0
C      1  0.5505590000000  0.4468410000000  0.4985070000000 1.0
C      1  0.4164610000000  0.5270530000000  0.4935940000000 1.0
C      1  0.5428450000000  0.4989620000000  0.4306630000000 1.0
C      1  0.4504360000000  0.5702460000000  0.5085880000000 1.0
C      1  0.5670440000000  0.5150190000000  0.5283260000000 1.0
C      1  0.5058480000000  0.5194530000000  0.5727020000000 1.0
C      1  0.5741940000000  0.5154320000000  0.4657700000000 1.0
C      1  0.5318780000000  0.5645760000000  0.5446520000000 1.0
C      1  0.4470870000000  0.5152950000000  0.4438090000000 1.0
C      1  0.5325220000000  0.4176470000000  0.5223100000000 1.0
C      1  0.4493720000000  0.5106310000000  0.5724900000000 1.0
C      1  0.5297590000000  0.5677390000000  0.4787460000000 1.0
C      1  0.4109900000000  0.4834600000000  0.5292370000000 1.0
C      1  0.4465480000000  0.4687290000000  0.5197760000000 1.0
C      1  0.4637110000000  0.4535430000000  0.4826070000000 1.0
C      1  0.5031170000000  0.5517110000000  0.5492340000000 1.0
C      1  0.4688050000000  0.5445850000000  0.4979280000000 1.0
C      1  0.5013800000000  0.5862260000000  0.4741630000000 1.0
C      1  0.4928130000000  0.4756610000000  0.5432480000000 1.0
C      1  0.5546570000000  0.5794690000000  0.5081390000000 1.0
C      1  0.5177560000000  0.5211260000000  0.4247940000000 1.0
C      1  0.5674620000000  0.4579920000000  0.5208250000000 1.0
C      1  0.5104500000000  0.4389130000000  0.5317050000000 1.0
C      1  0.4656950000000  0.4325540000000  0.4571800000000 1.0
C      1  0.5006680000000  0.4709890000000  0.4713180000000 1.0
C      1  0.4795520000000  0.4175860000000  0.5091470000000 1.0
C      1  0.5143210000000  0.4911760000000  0.5241700000000 1.0
C      1  0.4733150000000  0.5220740000000  0.5305670000000 1.0
C      1  0.5672730000000  0.4961680000000  0.4458190000000 1.0
C      1  0.5159090000000  0.4185020000000  0.4743830000000 1.0
C      1  0.5303080000000  0.4224970000000  0.4480230000000 1.0
C      1  0.5795000000000  0.4875220000000  0.5129980000000 1.0
C      1  0.5558810000000  0.5882850000000  0.4780140000000 1.0
C      1  0.5623980000000  0.5398130000000  0.4591720000000 1.0
C      1  0.5054030000000  0.5951450000000  0.5192270000000 1.0
C      1  0.5043920000000  0.4916070000000  0.4238560000000 1.0
C      1  0.4327270000000  0.4949290000000  0.5477270000000 1.0
C      1  0.4587040000000  0.4634310000000  0.4445410000000 1.0
C      1  0.4404640000000  0.4301100000000  0.5114910000000 1.0
C      1  0.4842950000000  0.4810810000000  0.4468170000000 1.0
C      1  0.4696920000000  0.5050380000000  0.5025770000000 1.0
C      1  0.4695530000000  0.5808640000000  0.4823690000000 1.0
C      1  0.4939410000000  0.4967050000000  0.5911530000000 1.0
C      1  0.5122370000000  0.4421110000000  0.4295380000000 1.0
C      1  0.4870600000000  0.4486910000000  0.5016020000000 1.0
C      1  0.5419450000000  0.5051960000000  0.4988710000000 1.0
C      1  0.4327210000000  0.4361610000000  0.4787650000000 1.0
C      1  0.4918720000000  0.5544430000000  0.4787420000000 1.0
C      1  0.5633500000000  0.4821480000000  0.4848240000000 1.0
C      1  0.4385530000000  0.4847850000000  0.4539970000000 1.0
C      1  0.5754180000000  0.4691710000000  0.4464390000000 1.0
C      1  0.5447270000000  0.4800840000000  0.5589240000000 1.0
C      1  0.4675270000000  0.5490890000000  0.4476840000000 1.0
C      1  0.4735380000000  0.4663440000000  0.5226340000000 1.0
C      1  0.5419340000000  0.5023440000000  0.5749000000000 1.0
C      1  0.5023870000000  0.4505450000000  0.5605540000000 1.0
C      1  0.4958490000000  0.5439220000000  0.4375350000000 1.0
C      1  0.5190640000000  0.5321180000000  0.5256270000000 1.0
END
