TITL C-2778434-4341-964 -0.000819947850651763 125000 -379.744166385271 0 0 65 (C1) n - 1
REM
REM in /home/nfs/bkarasulu/CARBON/AIRSS/Generating-Clusters/REBO/Only-C1/SD-CG/HFTN-CG
REM
REM
REM
REM
REM
REM ./C.cell (11c1c37f851c82e70ff6c80c92926a4b)
REM
REM compiler GCC version 9.2.1 20190827 (Red Hat 9.2.1-1)
REM options -cpp -mtune=generic -march=x86-64 -g -O0 -fpre-include=/usr/include/finclude/math-vector-fortran.h
REM seed 397010083 1789551113 -1683069460 1453630336 -1403878944 -1241113938 1509879871 -1023469746 383840915 -25611756 2140999997 1698642421 1666995502 25974168 1717059913 -475515474 -52740873 -575907388 -1564691435 1890733653 972191149 1401180417 -2059179105 1718637975 1700822956 -966308496 -286315093 1780590428 110522773 958734223 1611406109 2101208081 453699411
REM
CELL 1.54180   50.00000   50.00000   50.00000   90.00000   90.00000   90.00000
LATT -1
SFAC C  
C      1  0.4682490000000  0.5597990000000  0.4807020000000 1.0
C      1  0.5665950000000  0.5090750000000  0.5191090000000 1.0
C      1  0.5111170000000  0.4515900000000  0.5009680000000 1.0
C      1  0.3882010000000  0.4768400000000  0.5023830000000 1.0
C      1  0.5311730000000  0.4881520000000  0.4064130000000 1.0
C      1  0.5453500000000  0.5492280000000  0.5432330000000 1.0
C      1  0.4622670000000  0.4850270000000  0.4928740000000 1.0
C      1  0.5532560000000  0.4682190000000  0.4798650000000 1.0
C      1  0.5052740000000  0.4653430000000  0.5648260000000 1.0
C      1  0.5828980000000  0.5034950000000  0.4709890000000 1.0
C      1  0.5133720000000  0.5228890000000  0.4337190000000 1.0
C      1  0.4875310000000  0.4883390000000  0.4724310000000 1.0
C      1  0.5199630000000  0.4218820000000  0.5260490000000 1.0
C      1  0.4594710000000  0.4623290000000  0.5557770000000 1.0
C      1  0.5383980000000  0.4754650000000  0.4339890000000 1.0
C      1  0.3858360000000  0.4982610000000  0.5211860000000 1.0
C      1  0.4528750000000  0.5363610000000  0.4775790000000 1.0
C      1  0.5317380000000  0.4639080000000  0.4583310000000 1.0
C      1  0.5079700000000  0.5406450000000  0.4526680000000 1.0
C      1  0.4911780000000  0.4362960000000  0.5242610000000 1.0
C      1  0.4737000000000  0.4993320000000  0.4457600000000 1.0
C      1  0.5531190000000  0.4498730000000  0.5012420000000 1.0
C      1  0.4999360000000  0.5508340000000  0.4802910000000 1.0
C      1  0.5053240000000  0.5306690000000  0.5014590000000 1.0
C      1  0.4629580000000  0.5163200000000  0.5392990000000 1.0
C      1  0.4848020000000  0.5869700000000  0.4846010000000 1.0
C      1  0.3624150000000  0.5027190000000  0.5343400000000 1.0
C      1  0.5581540000000  0.5188320000000  0.4566810000000 1.0
C      1  0.4748700000000  0.4625570000000  0.5135550000000 1.0
C      1  0.5340420000000  0.5061450000000  0.5141470000000 1.0
C      1  0.5253990000000  0.5365280000000  0.5250620000000 1.0
C      1  0.4508010000000  0.5230270000000  0.4528810000000 1.0
C      1  0.5413320000000  0.4970290000000  0.5623740000000 1.0
C      1  0.5569320000000  0.4881510000000  0.5415140000000 1.0
C      1  0.4122500000000  0.4744310000000  0.4880620000000 1.0
C      1  0.4340490000000  0.5207790000000  0.5246970000000 1.0
C      1  0.5067470000000  0.4630590000000  0.4728720000000 1.0
C      1  0.5251340000000  0.4759210000000  0.5195160000000 1.0
C      1  0.5337060000000  0.4261710000000  0.4988990000000 1.0
C      1  0.4365470000000  0.4797400000000  0.4758800000000 1.0
C      1  0.5439030000000  0.4971590000000  0.4767360000000 1.0
C      1  0.5374160000000  0.4335610000000  0.5451070000000 1.0
C      1  0.5137490000000  0.5025150000000  0.4864930000000 1.0
C      1  0.4924680000000  0.5063600000000  0.4239730000000 1.0
C      1  0.5313580000000  0.5208380000000  0.5795880000000 1.0
C      1  0.5650090000000  0.5404560000000  0.5218270000000 1.0
C      1  0.4944490000000  0.4844330000000  0.5164720000000 1.0
C      1  0.5842980000000  0.5000750000000  0.4957490000000 1.0
C      1  0.4086210000000  0.5140200000000  0.5257320000000 1.0
C      1  0.4816530000000  0.5091260000000  0.5666360000000 1.0
C      1  0.5028240000000  0.4909570000000  0.4022970000000 1.0
C      1  0.4541450000000  0.5165940000000  0.5005100000000 1.0
C      1  0.5405470000000  0.5458870000000  0.5709340000000 1.0
C      1  0.5431590000000  0.5739630000000  0.4808970000000 1.0
C      1  0.5416420000000  0.5089720000000  0.4321120000000 1.0
C      1  0.4410800000000  0.4925760000000  0.4509380000000 1.0
C      1  0.5158220000000  0.5794370000000  0.4829010000000 1.0
C      1  0.4836400000000  0.5121060000000  0.5136000000000 1.0
C      1  0.5086890000000  0.4967150000000  0.5715500000000 1.0
C      1  0.4571200000000  0.4899240000000  0.5591300000000 1.0
C      1  0.3674490000000  0.4596560000000  0.4983500000000 1.0
C      1  0.5568370000000  0.5472380000000  0.4667220000000 1.0
C      1  0.4853570000000  0.4516560000000  0.5516430000000 1.0
C      1  0.5508460000000  0.4592590000000  0.5320500000000 1.0
C      1  0.5629880000000  0.5542880000000  0.4975690000000 1.0
END
