TITL C-2778424-3986-129 0.00252468190097266 125000 -368.569730337526 0 0 64 (C1) n - 1
REM
REM in /home/nfs/bkarasulu/CARBON/AIRSS/Generating-Clusters/REBO/Only-C1/SD-CG/HFTN-CG
REM
REM
REM
REM
REM
REM ./C.cell (11c1c37f851c82e70ff6c80c92926a4b)
REM
REM compiler GCC version 9.2.1 20190827 (Red Hat 9.2.1-1)
REM options -cpp -mtune=generic -march=x86-64 -g -O0 -fpre-include=/usr/include/finclude/math-vector-fortran.h
REM seed -594976726 1379215010 1566976655 1112434419 150513623 1926343626 335097027 -1811236122 -1542124351 399247676 -1864754115 -858805823 1076785315 -779148273 -918502124 -586460643 2046157822 -1827150349 1379768984 -2118815754 1841448265 -731503170 -155209391 -66227715 1565544752 1137574708 -1219704021 186103810 1642274813 832601524 1310353320 873641169 -1369287387
REM
CELL 1.54180   50.00000   50.00000   50.00000   90.00000   90.00000   90.00000
LATT -1
SFAC C  
C      1  0.5373750000000  0.5030560000000  0.4191780000000 1.0
C      1  0.4628400000000  0.5175340000000  0.4395480000000 1.0
C      1  0.4954000000000  0.4615520000000  0.5504320000000 1.0
C      1  0.4760990000000  0.5030590000000  0.5768160000000 1.0
C      1  0.4049210000000  0.5271620000000  0.4785520000000 1.0
C      1  0.4902840000000  0.4714790000000  0.4996790000000 1.0
C      1  0.4484090000000  0.4755040000000  0.4569840000000 1.0
C      1  0.4769370000000  0.5302860000000  0.5674310000000 1.0
C      1  0.4330600000000  0.5038620000000  0.5346540000000 1.0
C      1  0.5195270000000  0.4484170000000  0.4635630000000 1.0
C      1  0.4535570000000  0.4802510000000  0.5365900000000 1.0
C      1  0.4980380000000  0.4656010000000  0.4730940000000 1.0
C      1  0.4608110000000  0.4892620000000  0.4358350000000 1.0
C      1  0.5602560000000  0.5053840000000  0.4794150000000 1.0
C      1  0.4716930000000  0.5394960000000  0.5410420000000 1.0
C      1  0.4864930000000  0.5745730000000  0.5071630000000 1.0
C      1  0.5103350000000  0.5137170000000  0.4686570000000 1.0
C      1  0.4778880000000  0.4744950000000  0.4189840000000 1.0
C      1  0.5494110000000  0.4550830000000  0.4720880000000 1.0
C      1  0.5591230000000  0.4948980000000  0.4285920000000 1.0
C      1  0.4659400000000  0.5353610000000  0.4920840000000 1.0
C      1  0.5213290000000  0.4487790000000  0.4315920000000 1.0
C      1  0.4837210000000  0.5569680000000  0.4845890000000 1.0
C      1  0.5451530000000  0.5516100000000  0.5250530000000 1.0
C      1  0.5352690000000  0.4464090000000  0.5214960000000 1.0
C      1  0.4288320000000  0.5211930000000  0.5174220000000 1.0
C      1  0.4901530000000  0.5275770000000  0.4443960000000 1.0
C      1  0.4426210000000  0.5301120000000  0.4524630000000 1.0
C      1  0.5164310000000  0.5570260000000  0.5663710000000 1.0
C      1  0.5728840000000  0.4938650000000  0.5050840000000 1.0
C      1  0.4482850000000  0.4582540000000  0.4928390000000 1.0
C      1  0.5121950000000  0.5063810000000  0.4327750000000 1.0
C      1  0.4833730000000  0.4425040000000  0.5263160000000 1.0
C      1  0.4471760000000  0.4456950000000  0.4644730000000 1.0
C      1  0.5497430000000  0.4576910000000  0.4394400000000 1.0
C      1  0.5616690000000  0.4837990000000  0.4585110000000 1.0
C      1  0.5227830000000  0.5461400000000  0.5410210000000 1.0
C      1  0.4957410000000  0.4879300000000  0.4558970000000 1.0
C      1  0.4771900000000  0.5662850000000  0.5321630000000 1.0
C      1  0.4739640000000  0.4812780000000  0.5589070000000 1.0
C      1  0.5112950000000  0.4705760000000  0.5216390000000 1.0
C      1  0.5008220000000  0.5517860000000  0.4619650000000 1.0
C      1  0.4764600000000  0.5192570000000  0.5168210000000 1.0
C      1  0.4449020000000  0.4914300000000  0.4848700000000 1.0
C      1  0.4580260000000  0.4534630000000  0.5187250000000 1.0
C      1  0.5193230000000  0.5119060000000  0.5612930000000 1.0
C      1  0.5054030000000  0.5201170000000  0.5322220000000 1.0
C      1  0.5482480000000  0.5356100000000  0.5026290000000 1.0
C      1  0.4948430000000  0.5479790000000  0.5810930000000 1.0
C      1  0.5593130000000  0.4652730000000  0.5175100000000 1.0
C      1  0.5430340000000  0.5028160000000  0.5605940000000 1.0
C      1  0.4673700000000  0.4906320000000  0.5079700000000 1.0
C      1  0.5295640000000  0.5527530000000  0.4606700000000 1.0
C      1  0.5621070000000  0.5720940000000  0.5307870000000 1.0
C      1  0.4995380000000  0.4583720000000  0.4170280000000 1.0
C      1  0.5166080000000  0.4456180000000  0.5664200000000 1.0
C      1  0.5290560000000  0.5101990000000  0.4906010000000 1.0
C      1  0.4350740000000  0.5232770000000  0.4840610000000 1.0
C      1  0.5541080000000  0.4949910000000  0.5326590000000 1.0
C      1  0.5509620000000  0.5374910000000  0.4716310000000 1.0
C      1  0.5356200000000  0.4363920000000  0.5520710000000 1.0
C      1  0.4813620000000  0.4981710000000  0.6031910000000 1.0
C      1  0.5244070000000  0.4981880000000  0.5195650000000 1.0
C      1  0.5056450000000  0.4320810000000  0.5127940000000 1.0
END
