TITL C-2778422-5617-383 0.00594212124302039 125000 -1104.84895134603 0 0 191 (C1) n - 1
REM
REM in /home/nfs/bkarasulu/CARBON/AIRSS/Generating-Clusters/REBO/Only-C1/SD-CG/HFTN-CG
REM
REM
REM
REM
REM
REM ./C.cell (11c1c37f851c82e70ff6c80c92926a4b)
REM
REM compiler GCC version 9.2.1 20190827 (Red Hat 9.2.1-1)
REM options -cpp -mtune=generic -march=x86-64 -g -O0 -fpre-include=/usr/include/finclude/math-vector-fortran.h
REM seed -36201818 -1625966141 -508121652 1819109155 -2078272149 -1483660985 -2102834664 736587962 -706941084 1732780907 -1570592977 -1562151160 -500984743 461049417 59978286 -2136560262 911636343 -406205238 -1851793572 -1846775640 -1013530874 -1632296442 1196729108 102509801 2101455688 -253930286 1376956547 358803999 1211948380 941685591 -1131581481 16913238 -2255278
REM
CELL 1.54180   50.00000   50.00000   50.00000   90.00000   90.00000   90.00000
LATT -1
SFAC C  
C      1  0.5034520000000  0.4556110000000  0.3968820000000 1.0
C      1  0.5403280000000  0.6193510000000  0.5031820000000 1.0
C      1  0.4708540000000  0.5942490000000  0.5605960000000 1.0
C      1  0.4868430000000  0.5506530000000  0.4139280000000 1.0
C      1  0.5599770000000  0.5315680000000  0.5825100000000 1.0
C      1  0.4301580000000  0.4699130000000  0.4241310000000 1.0
C      1  0.5743130000000  0.4378570000000  0.5509670000000 1.0
C      1  0.5699730000000  0.4968560000000  0.4527770000000 1.0
C      1  0.4442070000000  0.5880420000000  0.4556350000000 1.0
C      1  0.4429910000000  0.4456900000000  0.4417940000000 1.0
C      1  0.5388720000000  0.5744240000000  0.4127690000000 1.0
C      1  0.4572620000000  0.4072570000000  0.4818360000000 1.0
C      1  0.5039630000000  0.6012300000000  0.4610660000000 1.0
C      1  0.5130030000000  0.4715110000000  0.5951970000000 1.0
C      1  0.4721040000000  0.4627960000000  0.3982030000000 1.0
C      1  0.5746650000000  0.5691410000000  0.5025610000000 1.0
C      1  0.4644200000000  0.5048470000000  0.5787710000000 1.0
C      1  0.4170020000000  0.5790080000000  0.4644050000000 1.0
C      1  0.5003560000000  0.4744250000000  0.4761750000000 1.0
C      1  0.4065990000000  0.4730570000000  0.5388670000000 1.0
C      1  0.5402980000000  0.4484480000000  0.4584380000000 1.0
C      1  0.5367290000000  0.4431020000000  0.5859820000000 1.0
C      1  0.4674990000000  0.4625720000000  0.5280520000000 1.0
C      1  0.4291430000000  0.4345760000000  0.4881530000000 1.0
C      1  0.5370950000000  0.4923530000000  0.5979810000000 1.0
C      1  0.4598680000000  0.4748480000000  0.5844060000000 1.0
C      1  0.5543810000000  0.4354660000000  0.5000720000000 1.0
C      1  0.4965000000000  0.5782990000000  0.5477060000000 1.0
C      1  0.5490240000000  0.5675000000000  0.4507070000000 1.0
C      1  0.3640530000000  0.4662770000000  0.4920270000000 1.0
C      1  0.5625160000000  0.5829130000000  0.5298790000000 1.0
C      1  0.5166220000000  0.5379460000000  0.6055550000000 1.0
C      1  0.5467770000000  0.5095280000000  0.4347610000000 1.0
C      1  0.5071730000000  0.4674550000000  0.5055620000000 1.0
C      1  0.4808160000000  0.3888680000000  0.5210800000000 1.0
C      1  0.5238600000000  0.4145350000000  0.5196080000000 1.0
C      1  0.4880590000000  0.4746820000000  0.6176110000000 1.0
C      1  0.5581000000000  0.6129550000000  0.5229200000000 1.0
C      1  0.4913170000000  0.4545120000000  0.5510650000000 1.0
C      1  0.5053280000000  0.3828260000000  0.5040460000000 1.0
C      1  0.5085890000000  0.5067520000000  0.4981400000000 1.0
C      1  0.5607610000000  0.5368190000000  0.4603190000000 1.0
C      1  0.5317480000000  0.5707570000000  0.5347610000000 1.0
C      1  0.4079830000000  0.4484030000000  0.4753430000000 1.0
C      1  0.4798080000000  0.4291780000000  0.4184470000000 1.0
C      1  0.4960290000000  0.4132460000000  0.5337670000000 1.0
C      1  0.4615890000000  0.5991300000000  0.5084490000000 1.0
C      1  0.4733040000000  0.6038540000000  0.4472970000000 1.0
C      1  0.5401320000000  0.5407440000000  0.5490910000000 1.0
C      1  0.4417980000000  0.4889620000000  0.5076170000000 1.0
C      1  0.4732200000000  0.5455500000000  0.4449520000000 1.0
C      1  0.4174720000000  0.5308030000000  0.4410430000000 1.0
C      1  0.5634110000000  0.4496030000000  0.4264750000000 1.0
C      1  0.4890120000000  0.4473500000000  0.4659000000000 1.0
C      1  0.4262420000000  0.5195580000000  0.4139410000000 1.0
C      1  0.5828670000000  0.4991080000000  0.4218900000000 1.0
C      1  0.5555320000000  0.5038700000000  0.5815030000000 1.0
C      1  0.4753670000000  0.5949850000000  0.4797240000000 1.0
C      1  0.5045290000000  0.5322770000000  0.5176590000000 1.0
C      1  0.4239620000000  0.4315920000000  0.5170060000000 1.0
C      1  0.4889210000000  0.5514070000000  0.5968880000000 1.0
C      1  0.4607030000000  0.4404430000000  0.4802680000000 1.0
C      1  0.4128510000000  0.5119380000000  0.5738080000000 1.0
C      1  0.5112990000000  0.5343880000000  0.4097180000000 1.0
C      1  0.4660710000000  0.5651770000000  0.4693750000000 1.0
C      1  0.6132510000000  0.5179580000000  0.4750580000000 1.0
C      1  0.4008890000000  0.4490160000000  0.5217680000000 1.0
C      1  0.5361090000000  0.4990210000000  0.4870410000000 1.0
C      1  0.6049820000000  0.4509610000000  0.4999030000000 1.0
C      1  0.4878450000000  0.5051270000000  0.4739100000000 1.0
C      1  0.5193730000000  0.4426540000000  0.5474890000000 1.0
C      1  0.4956100000000  0.5014330000000  0.4256220000000 1.0
C      1  0.3931800000000  0.4921770000000  0.4594240000000 1.0
C      1  0.4468560000000  0.5616590000000  0.4062090000000 1.0
C      1  0.4922910000000  0.4174220000000  0.5653820000000 1.0
C      1  0.5382520000000  0.3915120000000  0.5487890000000 1.0
C      1  0.5286840000000  0.5723210000000  0.5706150000000 1.0
C      1  0.4042070000000  0.5260010000000  0.5462100000000 1.0
C      1  0.5608520000000  0.4901790000000  0.5554420000000 1.0
C      1  0.4910080000000  0.4417750000000  0.6093830000000 1.0
C      1  0.5229310000000  0.4802780000000  0.4035160000000 1.0
C      1  0.5936320000000  0.5437030000000  0.4680500000000 1.0
C      1  0.4423560000000  0.4831520000000  0.4595390000000 1.0
C      1  0.4476110000000  0.5053360000000  0.3916060000000 1.0
C      1  0.5850520000000  0.4702720000000  0.4403680000000 1.0
C      1  0.4481430000000  0.4694710000000  0.4858090000000 1.0
C      1  0.4408180000000  0.4834190000000  0.6146080000000 1.0
C      1  0.5156990000000  0.5525720000000  0.4805650000000 1.0
C      1  0.4618430000000  0.4184830000000  0.5536990000000 1.0
C      1  0.5811580000000  0.5069750000000  0.4773640000000 1.0
C      1  0.4641530000000  0.5680780000000  0.5131810000000 1.0
C      1  0.5053840000000  0.5451110000000  0.5680300000000 1.0
C      1  0.5374220000000  0.5484320000000  0.4028190000000 1.0
C      1  0.4370500000000  0.5334860000000  0.5509000000000 1.0
C      1  0.4688450000000  0.5269550000000  0.6033610000000 1.0
C      1  0.4649880000000  0.5355910000000  0.4857640000000 1.0
C      1  0.5893220000000  0.4744160000000  0.5569260000000 1.0
C      1  0.4789840000000  0.5077020000000  0.3787070000000 1.0
C      1  0.4414520000000  0.5005520000000  0.5569980000000 1.0
C      1  0.5930280000000  0.4645210000000  0.4730830000000 1.0
C      1  0.5348230000000  0.3823640000000  0.5168580000000 1.0
C      1  0.4585340000000  0.4882020000000  0.4322720000000 1.0
C      1  0.4404040000000  0.5289100000000  0.5847110000000 1.0
C      1  0.4579450000000  0.5441510000000  0.5342890000000 1.0
C      1  0.5030480000000  0.4963140000000  0.5752770000000 1.0
C      1  0.5665720000000  0.4190260000000  0.5257740000000 1.0
C      1  0.4102900000000  0.4799710000000  0.5709680000000 1.0
C      1  0.5587620000000  0.5275460000000  0.4079170000000 1.0
C      1  0.4619840000000  0.6120180000000  0.5329620000000 1.0
C      1  0.6053870000000  0.4900510000000  0.4922410000000 1.0
C      1  0.5450050000000  0.4206720000000  0.5525670000000 1.0
C      1  0.4691550000000  0.4387870000000  0.4413440000000 1.0
C      1  0.5134520000000  0.5101470000000  0.6053540000000 1.0
C      1  0.4934220000000  0.5767920000000  0.5166830000000 1.0
C      1  0.5953480000000  0.5427970000000  0.5005680000000 1.0
C      1  0.5092530000000  0.4292360000000  0.5864880000000 1.0
C      1  0.5220420000000  0.5824270000000  0.4399020000000 1.0
C      1  0.3880390000000  0.4544010000000  0.4958140000000 1.0
C      1  0.4573570000000  0.5715550000000  0.4308810000000 1.0
C      1  0.4284160000000  0.4682690000000  0.5891050000000 1.0
C      1  0.4863400000000  0.4714850000000  0.4262360000000 1.0
C      1  0.5098270000000  0.4130220000000  0.4390830000000 1.0
C      1  0.5591400000000  0.5006320000000  0.5235140000000 1.0
C      1  0.3969050000000  0.5529800000000  0.4557020000000 1.0
C      1  0.5818340000000  0.5431930000000  0.5319100000000 1.0
C      1  0.3883790000000  0.5318460000000  0.5172310000000 1.0
C      1  0.4582180000000  0.5094480000000  0.4660370000000 1.0
C      1  0.4393810000000  0.5359550000000  0.4639910000000 1.0
C      1  0.5430040000000  0.4625300000000  0.5522340000000 1.0
C      1  0.5106590000000  0.4274040000000  0.4081090000000 1.0
C      1  0.4598010000000  0.5354850000000  0.3999510000000 1.0
C      1  0.5665980000000  0.4567900000000  0.5764710000000 1.0
C      1  0.6070420000000  0.4933900000000  0.5260380000000 1.0
C      1  0.5385910000000  0.4262270000000  0.4254570000000 1.0
C      1  0.5187430000000  0.5189970000000  0.4387030000000 1.0
C      1  0.5629450000000  0.4568080000000  0.4794570000000 1.0
C      1  0.4897430000000  0.4873860000000  0.5496660000000 1.0
C      1  0.4132000000000  0.4694430000000  0.4537210000000 1.0
C      1  0.4195510000000  0.5136970000000  0.5002040000000 1.0
C      1  0.4445510000000  0.4161930000000  0.5297710000000 1.0
C      1  0.5651180000000  0.4615820000000  0.5279710000000 1.0
C      1  0.5564170000000  0.5413890000000  0.5090630000000 1.0
C      1  0.5094270000000  0.4925030000000  0.5262360000000 1.0
C      1  0.5976350000000  0.4622630000000  0.5259830000000 1.0
C      1  0.4200890000000  0.5450000000000  0.5149110000000 1.0
C      1  0.5850100000000  0.5145110000000  0.5164140000000 1.0
C      1  0.5563990000000  0.5217320000000  0.4873870000000 1.0
C      1  0.5033280000000  0.5064010000000  0.3942230000000 1.0
C      1  0.5282800000000  0.4462200000000  0.5150960000000 1.0
C      1  0.5165250000000  0.4313600000000  0.4645580000000 1.0
C      1  0.4420680000000  0.5813250000000  0.5489740000000 1.0
C      1  0.5093850000000  0.5795780000000  0.4939580000000 1.0
C      1  0.4732710000000  0.5256560000000  0.5124820000000 1.0
C      1  0.4845140000000  0.4078950000000  0.4613930000000 1.0
C      1  0.3916440000000  0.5408130000000  0.4872980000000 1.0
C      1  0.5668660000000  0.4279230000000  0.4520760000000 1.0
C      1  0.5827980000000  0.5643230000000  0.4431270000000 1.0
C      1  0.4684680000000  0.4957030000000  0.6173730000000 1.0
C      1  0.4565070000000  0.3981350000000  0.5098650000000 1.0
C      1  0.4839290000000  0.4594750000000  0.5809520000000 1.0
C      1  0.5526730000000  0.4760600000000  0.5023920000000 1.0
C      1  0.5263140000000  0.4855690000000  0.4592220000000 1.0
C      1  0.5559490000000  0.4014210000000  0.4997520000000 1.0
C      1  0.5799590000000  0.5316910000000  0.4325560000000 1.0
C      1  0.3996560000000  0.5004140000000  0.5246770000000 1.0
C      1  0.4263710000000  0.5685180000000  0.5349090000000 1.0
C      1  0.4891220000000  0.5465840000000  0.5422710000000 1.0
C      1  0.5329740000000  0.5112130000000  0.5362150000000 1.0
C      1  0.5220150000000  0.6064680000000  0.4870790000000 1.0
C      1  0.5268310000000  0.4105440000000  0.4858600000000 1.0
C      1  0.5086280000000  0.5295150000000  0.4653830000000 1.0
C      1  0.5620290000000  0.5648880000000  0.5589500000000 1.0
C      1  0.5216700000000  0.5190990000000  0.5667550000000 1.0
C      1  0.4384760000000  0.4775380000000  0.5382420000000 1.0
C      1  0.4235080000000  0.5540640000000  0.4846890000000 1.0
C      1  0.4051300000000  0.5163120000000  0.4693290000000 1.0
C      1  0.4681480000000  0.5184100000000  0.4282000000000 1.0
C      1  0.4945920000000  0.4136390000000  0.4929280000000 1.0
C      1  0.5367920000000  0.4702830000000  0.4324290000000 1.0
C      1  0.5283300000000  0.5496930000000  0.5120600000000 1.0
C      1  0.5386230000000  0.5481720000000  0.5905120000000 1.0
C      1  0.5813580000000  0.4089360000000  0.4618360000000 1.0
C      1  0.5534530000000  0.4940300000000  0.4048880000000 1.0
C      1  0.4888000000000  0.4399320000000  0.5139270000000 1.0
C      1  0.5966570000000  0.5078740000000  0.5550940000000 1.0
C      1  0.4905880000000  0.5798450000000  0.4302440000000 1.0
C      1  0.4699120000000  0.4966500000000  0.5232640000000 1.0
C      1  0.5725310000000  0.5776750000000  0.4731300000000 1.0
C      1  0.4463290000000  0.4748360000000  0.3968030000000 1.0
C      1  0.4951500000000  0.5808410000000  0.5807140000000 1.0
C      1  0.5831020000000  0.5381900000000  0.5625010000000 1.0
END
