TITL C-2778424-3986-1171 -0.00174814822612082 125000 -604.970466562632 0 0 105 (C1) n - 1
REM
REM in /home/nfs/bkarasulu/CARBON/AIRSS/Generating-Clusters/REBO/Only-C1/SD-CG/HFTN-CG
REM
REM
REM
REM
REM
REM ./C.cell (11c1c37f851c82e70ff6c80c92926a4b)
REM
REM compiler GCC version 9.2.1 20190827 (Red Hat 9.2.1-1)
REM options -cpp -mtune=generic -march=x86-64 -g -O0 -fpre-include=/usr/include/finclude/math-vector-fortran.h
REM seed 165672257 -37758013 20907336 -1880334066 884385396 1855139551 1541995983 1735502499 1892336599 -1370358904 1396252030 -428420002 -1983551295 -1403661770 -701477321 -1208307612 -1141853990 -878703074 -1296052035 -531817467 -1256409969 1076005833 167022387 -1190994974 -1430068259 989324634 742044141 -606435697 -780656598 -2083565116 1935010481 -1722642274 2051245653
REM
CELL 1.54180   50.00000   50.00000   50.00000   90.00000   90.00000   90.00000
LATT -1
SFAC C  
C      1  0.5582540000000  0.5077470000000  0.4849640000000 1.0
C      1  0.5339660000000  0.5372180000000  0.4992050000000 1.0
C      1  0.4655380000000  0.5531620000000  0.5777680000000 1.0
C      1  0.4756830000000  0.4652940000000  0.5182640000000 1.0
C      1  0.4271700000000  0.5109980000000  0.5597860000000 1.0
C      1  0.5160820000000  0.5175970000000  0.5210320000000 1.0
C      1  0.4254850000000  0.5353400000000  0.5404890000000 1.0
C      1  0.4574970000000  0.5462500000000  0.5445930000000 1.0
C      1  0.5206520000000  0.5628890000000  0.5510560000000 1.0
C      1  0.5446530000000  0.5582870000000  0.4365480000000 1.0
C      1  0.5047320000000  0.4552540000000  0.4726170000000 1.0
C      1  0.5947470000000  0.5117660000000  0.5501810000000 1.0
C      1  0.5366930000000  0.4921710000000  0.5319400000000 1.0
C      1  0.4866680000000  0.5590600000000  0.5078220000000 1.0
C      1  0.4785440000000  0.4454990000000  0.4424150000000 1.0
C      1  0.5475030000000  0.5565580000000  0.5582770000000 1.0
C      1  0.5331350000000  0.5401040000000  0.4200890000000 1.0
C      1  0.4847400000000  0.5557750000000  0.4579450000000 1.0
C      1  0.5091990000000  0.5226420000000  0.5813760000000 1.0
C      1  0.4871010000000  0.4833540000000  0.4814900000000 1.0
C      1  0.4081670000000  0.5258840000000  0.5164100000000 1.0
C      1  0.4549600000000  0.4790940000000  0.5396120000000 1.0
C      1  0.4368780000000  0.5376990000000  0.4579360000000 1.0
C      1  0.5208110000000  0.5171770000000  0.4131010000000 1.0
C      1  0.4790300000000  0.4947900000000  0.4307020000000 1.0
C      1  0.4274550000000  0.4637260000000  0.5458210000000 1.0
C      1  0.5545270000000  0.4596100000000  0.4371640000000 1.0
C      1  0.4997720000000  0.5542940000000  0.5767310000000 1.0
C      1  0.5206380000000  0.4256070000000  0.4510860000000 1.0
C      1  0.5682020000000  0.4682520000000  0.5289280000000 1.0
C      1  0.5302020000000  0.4967820000000  0.5742970000000 1.0
C      1  0.4556770000000  0.5014670000000  0.5631980000000 1.0
C      1  0.4989600000000  0.5005680000000  0.4553970000000 1.0
C      1  0.4874190000000  0.4996290000000  0.5500790000000 1.0
C      1  0.4677890000000  0.5806370000000  0.5269450000000 1.0
C      1  0.4394760000000  0.4770690000000  0.4516240000000 1.0
C      1  0.5261940000000  0.4987250000000  0.4940290000000 1.0
C      1  0.4438880000000  0.5056870000000  0.4675980000000 1.0
C      1  0.4947390000000  0.4220300000000  0.5301020000000 1.0
C      1  0.5606430000000  0.4310330000000  0.4794470000000 1.0
C      1  0.5536860000000  0.5618750000000  0.4651120000000 1.0
C      1  0.5845330000000  0.5253350000000  0.4795810000000 1.0
C      1  0.5079780000000  0.4937240000000  0.4171320000000 1.0
C      1  0.5358470000000  0.4674970000000  0.5633270000000 1.0
C      1  0.5517290000000  0.5155510000000  0.4463000000000 1.0
C      1  0.5613000000000  0.4588670000000  0.4908970000000 1.0
C      1  0.5478850000000  0.4325470000000  0.4539790000000 1.0
C      1  0.5595800000000  0.4140110000000  0.5025290000000 1.0
C      1  0.4507600000000  0.4473250000000  0.5037060000000 1.0
C      1  0.4985780000000  0.4043770000000  0.5066690000000 1.0
C      1  0.4105430000000  0.4894290000000  0.5504650000000 1.0
C      1  0.5152920000000  0.5587410000000  0.5176780000000 1.0
C      1  0.4427460000000  0.5422690000000  0.5052690000000 1.0
C      1  0.5065580000000  0.5306420000000  0.4586270000000 1.0
C      1  0.3967690000000  0.4969020000000  0.5262570000000 1.0
C      1  0.5376580000000  0.4595940000000  0.5120310000000 1.0
C      1  0.4691650000000  0.5828620000000  0.4929410000000 1.0
C      1  0.5550500000000  0.5161140000000  0.5153120000000 1.0
C      1  0.4033550000000  0.5063350000000  0.4885090000000 1.0
C      1  0.5437860000000  0.5742670000000  0.5103830000000 1.0
C      1  0.5523830000000  0.4487810000000  0.5474840000000 1.0
C      1  0.4661260000000  0.5761780000000  0.4650980000000 1.0
C      1  0.5088940000000  0.4780700000000  0.5465710000000 1.0
C      1  0.5900620000000  0.4652590000000  0.5050640000000 1.0
C      1  0.4215530000000  0.5332760000000  0.4857800000000 1.0
C      1  0.5229770000000  0.4808300000000  0.4647820000000 1.0
C      1  0.4703270000000  0.5323130000000  0.5039140000000 1.0
C      1  0.4216540000000  0.4547150000000  0.5172400000000 1.0
C      1  0.5258250000000  0.5234480000000  0.5531650000000 1.0
C      1  0.4630880000000  0.5196490000000  0.4447850000000 1.0
C      1  0.5636100000000  0.5657320000000  0.4919000000000 1.0
C      1  0.5180190000000  0.4372520000000  0.4961100000000 1.0
C      1  0.5069920000000  0.4739840000000  0.5073370000000 1.0
C      1  0.5344040000000  0.5339250000000  0.4664400000000 1.0
C      1  0.5805030000000  0.4683410000000  0.4572150000000 1.0
C      1  0.4877990000000  0.5626820000000  0.5469300000000 1.0
C      1  0.5533540000000  0.4813210000000  0.4705670000000 1.0
C      1  0.4692990000000  0.5047850000000  0.5217410000000 1.0
C      1  0.4771970000000  0.5277480000000  0.4748080000000 1.0
C      1  0.5587190000000  0.5287670000000  0.5529470000000 1.0
C      1  0.5793920000000  0.5206020000000  0.4511310000000 1.0
C      1  0.4135920000000  0.4799070000000  0.4714670000000 1.0
C      1  0.4237400000000  0.5661850000000  0.5517150000000 1.0
C      1  0.5804820000000  0.5318890000000  0.5276400000000 1.0
C      1  0.5236250000000  0.4667220000000  0.4244060000000 1.0
C      1  0.5012540000000  0.4157160000000  0.4750270000000 1.0
C      1  0.5672580000000  0.4958530000000  0.5471320000000 1.0
C      1  0.5445860000000  0.4920410000000  0.4331530000000 1.0
C      1  0.4775180000000  0.5214530000000  0.5748750000000 1.0
C      1  0.4202740000000  0.5845290000000  0.4456750000000 1.0
C      1  0.4272810000000  0.4443660000000  0.5658390000000 1.0
C      1  0.4010160000000  0.4750070000000  0.5027150000000 1.0
C      1  0.4743460000000  0.4267330000000  0.4640800000000 1.0
C      1  0.5519240000000  0.4236280000000  0.5343160000000 1.0
C      1  0.4390830000000  0.4741920000000  0.4914010000000 1.0
C      1  0.4402250000000  0.5679970000000  0.4549430000000 1.0
C      1  0.5829720000000  0.5456090000000  0.4996560000000 1.0
C      1  0.4521850000000  0.5772310000000  0.5571740000000 1.0
C      1  0.4617980000000  0.4951320000000  0.4920260000000 1.0
C      1  0.4629520000000  0.4690940000000  0.4374730000000 1.0
C      1  0.5991800000000  0.4644980000000  0.4770470000000 1.0
C      1  0.4544630000000  0.4265030000000  0.4823100000000 1.0
C      1  0.4962840000000  0.4484190000000  0.5357050000000 1.0
C      1  0.5294520000000  0.4106090000000  0.5141480000000 1.0
C      1  0.5060640000000  0.4440420000000  0.4342980000000 1.0
END
