TITL C-2778429-3646-649 0.00116322834994026 125000 -453.702864738356 0 0 79 (C1) n - 1
REM
REM in /home/nfs/bkarasulu/CARBON/AIRSS/Generating-Clusters/REBO/Only-C1/SD-CG/HFTN-CG
REM
REM
REM
REM
REM
REM ./C.cell (11c1c37f851c82e70ff6c80c92926a4b)
REM
REM compiler GCC version 9.2.1 20190827 (Red Hat 9.2.1-1)
REM options -cpp -mtune=generic -march=x86-64 -g -O0 -fpre-include=/usr/include/finclude/math-vector-fortran.h
REM seed -1186450593 -1889305661 -1421965132 1192571445 859676835 48666666 -801591682 -366937702 70638518 -1284534319 73381104 -338767840 2023585949 -802284872 1128048851 -154851298 681524054 967407984 -630025054 -289436789 225344957 922442986 900009290 -1948831534 1718951266 -1282201594 -1753097970 1391674421 -2058324578 -911185024 64853482 -15146990 1866048883
REM
CELL 1.54180   50.00000   50.00000   50.00000   90.00000   90.00000   90.00000
LATT -1
SFAC C  
C      1  0.4387170000000  0.5304170000000  0.4453350000000 1.0
C      1  0.5142640000000  0.4044090000000  0.5326930000000 1.0
C      1  0.5393530000000  0.5420880000000  0.5034330000000 1.0
C      1  0.4453210000000  0.5556110000000  0.4564550000000 1.0
C      1  0.5378860000000  0.5009150000000  0.5506020000000 1.0
C      1  0.4327910000000  0.5275290000000  0.4934610000000 1.0
C      1  0.4602430000000  0.4636460000000  0.5571220000000 1.0
C      1  0.5071960000000  0.4399620000000  0.4825540000000 1.0
C      1  0.4891900000000  0.4706200000000  0.5081340000000 1.0
C      1  0.5628010000000  0.4819690000000  0.4364110000000 1.0
C      1  0.4869460000000  0.4746410000000  0.4463920000000 1.0
C      1  0.5693060000000  0.5363000000000  0.5130720000000 1.0
C      1  0.5031140000000  0.4823510000000  0.5894750000000 1.0
C      1  0.5080660000000  0.5383190000000  0.4399020000000 1.0
C      1  0.5610980000000  0.4938700000000  0.4988060000000 1.0
C      1  0.4498580000000  0.5365520000000  0.5369030000000 1.0
C      1  0.5972210000000  0.4786390000000  0.4706490000000 1.0
C      1  0.4755910000000  0.5535910000000  0.5302230000000 1.0
C      1  0.5850420000000  0.5276930000000  0.4924690000000 1.0
C      1  0.5172270000000  0.4693940000000  0.4799480000000 1.0
C      1  0.5216650000000  0.4648040000000  0.5780180000000 1.0
C      1  0.5220910000000  0.5030860000000  0.4767890000000 1.0
C      1  0.5063780000000  0.5383950000000  0.5100350000000 1.0
C      1  0.4723600000000  0.4238110000000  0.4880360000000 1.0
C      1  0.5500350000000  0.4677190000000  0.4800500000000 1.0
C      1  0.5799980000000  0.4955060000000  0.4546000000000 1.0
C      1  0.5120350000000  0.4514190000000  0.4445940000000 1.0
C      1  0.5116850000000  0.5119930000000  0.5922010000000 1.0
C      1  0.5405200000000  0.4428080000000  0.4613260000000 1.0
C      1  0.5248390000000  0.4275830000000  0.5311540000000 1.0
C      1  0.5859270000000  0.4735130000000  0.4965140000000 1.0
C      1  0.4516870000000  0.4382670000000  0.4650760000000 1.0
C      1  0.5378450000000  0.4721360000000  0.4355740000000 1.0
C      1  0.4745390000000  0.5395040000000  0.4990850000000 1.0
C      1  0.4321480000000  0.4552930000000  0.4497470000000 1.0
C      1  0.5224540000000  0.5253120000000  0.5665520000000 1.0
C      1  0.4406350000000  0.4800140000000  0.5308460000000 1.0
C      1  0.4868820000000  0.4847960000000  0.4772670000000 1.0
C      1  0.4721150000000  0.4863990000000  0.5792130000000 1.0
C      1  0.5152220000000  0.4910700000000  0.4464240000000 1.0
C      1  0.4688970000000  0.5679670000000  0.4449290000000 1.0
C      1  0.4616870000000  0.4888960000000  0.4351990000000 1.0
C      1  0.4738000000000  0.5161830000000  0.4767700000000 1.0
C      1  0.4850230000000  0.4358010000000  0.4585390000000 1.0
C      1  0.4652250000000  0.5820430000000  0.5217290000000 1.0
C      1  0.4481030000000  0.4456700000000  0.4974470000000 1.0
C      1  0.4616910000000  0.5168280000000  0.4314200000000 1.0
C      1  0.4815460000000  0.5155340000000  0.5920020000000 1.0
C      1  0.5352400000000  0.5531060000000  0.5517470000000 1.0
C      1  0.5374130000000  0.4551370000000  0.5293250000000 1.0
C      1  0.4978200000000  0.5460850000000  0.5547100000000 1.0
C      1  0.4264280000000  0.5089230000000  0.4656100000000 1.0
C      1  0.5611670000000  0.4567930000000  0.5102240000000 1.0
C      1  0.5180530000000  0.4804170000000  0.5210600000000 1.0
C      1  0.5705820000000  0.5187090000000  0.4689540000000 1.0
C      1  0.4493580000000  0.4932500000000  0.4836590000000 1.0
C      1  0.5356430000000  0.4719770000000  0.5559470000000 1.0
C      1  0.4742430000000  0.5378410000000  0.5766270000000 1.0
C      1  0.4408560000000  0.4742150000000  0.5035260000000 1.0
C      1  0.5141400000000  0.5638500000000  0.5302730000000 1.0
C      1  0.5304580000000  0.4207200000000  0.4799080000000 1.0
C      1  0.4796640000000  0.5362950000000  0.4497330000000 1.0
C      1  0.5409630000000  0.5271970000000  0.4742000000000 1.0
C      1  0.5416910000000  0.5046860000000  0.5179490000000 1.0
C      1  0.4491700000000  0.5819790000000  0.5019280000000 1.0
C      1  0.5225080000000  0.5740380000000  0.4724450000000 1.0
C      1  0.4463470000000  0.5169570000000  0.5167520000000 1.0
C      1  0.4466600000000  0.5549380000000  0.4863340000000 1.0
C      1  0.4483210000000  0.5371630000000  0.5650660000000 1.0
C      1  0.5256740000000  0.5716530000000  0.4997670000000 1.0
C      1  0.5514690000000  0.5293770000000  0.5393510000000 1.0
C      1  0.5265260000000  0.5497740000000  0.4575210000000 1.0
C      1  0.5039210000000  0.5074050000000  0.5052760000000 1.0
C      1  0.5154130000000  0.5153350000000  0.4274740000000 1.0
C      1  0.4366980000000  0.4818970000000  0.4475750000000 1.0
C      1  0.4719420000000  0.4412140000000  0.5433550000000 1.0
C      1  0.4727360000000  0.4984210000000  0.5156650000000 1.0
C      1  0.4763200000000  0.4437540000000  0.5150700000000 1.0
C      1  0.4643090000000  0.4960250000000  0.5477970000000 1.0
END
