TITL C-2778423-5760-145 -0.000887984436923232 125000 -406.358326915119 0 0 71 (C1) n - 1
REM
REM in /home/nfs/bkarasulu/CARBON/AIRSS/Generating-Clusters/REBO/Only-C1/SD-CG/HFTN-CG
REM
REM
REM
REM
REM
REM ./C.cell (11c1c37f851c82e70ff6c80c92926a4b)
REM
REM compiler GCC version 9.2.1 20190827 (Red Hat 9.2.1-1)
REM options -cpp -mtune=generic -march=x86-64 -g -O0 -fpre-include=/usr/include/finclude/math-vector-fortran.h
REM seed -387937290 -841199621 27445530 -846169122 1605077728 -1901260529 -621568182 726452052 -34941342 1856787959 -1210720835 1729413834 1416116688 888752950 1877240119 -953030008 -654772876 1938204975 -306525373 -1727738459 1319029343 785957253 1486879779 -441972822 -28095886 -216734883 -798107566 -557850407 -1696467462 1316443604 138645959 -1473977642 -1170867680
REM
CELL 1.54180   50.00000   50.00000   50.00000   90.00000   90.00000   90.00000
LATT -1
SFAC C  
C      1  0.5171790000000  0.4739830000000  0.5356800000000 1.0
C      1  0.5271740000000  0.5823670000000  0.4593240000000 1.0
C      1  0.4854030000000  0.4993490000000  0.5697280000000 1.0
C      1  0.4504030000000  0.5494040000000  0.5164740000000 1.0
C      1  0.4327700000000  0.5733220000000  0.5243930000000 1.0
C      1  0.5460940000000  0.4878890000000  0.5290150000000 1.0
C      1  0.5017840000000  0.5744020000000  0.4646830000000 1.0
C      1  0.4556040000000  0.4189430000000  0.5287240000000 1.0
C      1  0.5121430000000  0.5251640000000  0.4309110000000 1.0
C      1  0.5862970000000  0.4989380000000  0.4567040000000 1.0
C      1  0.5733830000000  0.5138340000000  0.5928420000000 1.0
C      1  0.5523140000000  0.4311780000000  0.5045260000000 1.0
C      1  0.4301770000000  0.5142710000000  0.5204750000000 1.0
C      1  0.5076620000000  0.4619710000000  0.4909810000000 1.0
C      1  0.5843930000000  0.5140950000000  0.6170890000000 1.0
C      1  0.4731410000000  0.4462610000000  0.5225180000000 1.0
C      1  0.5509550000000  0.5133030000000  0.5434440000000 1.0
C      1  0.4257310000000  0.4623540000000  0.5013760000000 1.0
C      1  0.5952270000000  0.5143520000000  0.6409510000000 1.0
C      1  0.4761120000000  0.5283300000000  0.5438380000000 1.0
C      1  0.5683290000000  0.4825900000000  0.5060040000000 1.0
C      1  0.4249530000000  0.4500050000000  0.4256120000000 1.0
C      1  0.4401300000000  0.4422110000000  0.5141290000000 1.0
C      1  0.5657780000000  0.4544540000000  0.4941130000000 1.0
C      1  0.4749260000000  0.4566290000000  0.4586270000000 1.0
C      1  0.4765910000000  0.4978770000000  0.4917200000000 1.0
C      1  0.5263770000000  0.4319770000000  0.5161980000000 1.0
C      1  0.5640720000000  0.4067590000000  0.5007090000000 1.0
C      1  0.4365350000000  0.5054110000000  0.4430710000000 1.0
C      1  0.4642850000000  0.5220710000000  0.5017960000000 1.0
C      1  0.5269890000000  0.5024250000000  0.4787390000000 1.0
C      1  0.4488600000000  0.5245740000000  0.5962730000000 1.0
C      1  0.5734190000000  0.5266750000000  0.4697470000000 1.0
C      1  0.4431760000000  0.4575310000000  0.4522820000000 1.0
C      1  0.4876380000000  0.5552080000000  0.4795080000000 1.0
C      1  0.4445280000000  0.5202680000000  0.5430940000000 1.0
C      1  0.4898660000000  0.5167880000000  0.4461830000000 1.0
C      1  0.5289260000000  0.5281230000000  0.5010710000000 1.0
C      1  0.4621070000000  0.5178080000000  0.4400780000000 1.0
C      1  0.4232540000000  0.5060940000000  0.4685080000000 1.0
C      1  0.4332690000000  0.5265740000000  0.4886360000000 1.0
C      1  0.5067500000000  0.4467750000000  0.5279010000000 1.0
C      1  0.4510810000000  0.5957030000000  0.5340270000000 1.0
C      1  0.5623740000000  0.5135730000000  0.5685950000000 1.0
C      1  0.4332410000000  0.4802030000000  0.4307930000000 1.0
C      1  0.5572240000000  0.5437750000000  0.4519230000000 1.0
C      1  0.4597720000000  0.5459830000000  0.4786740000000 1.0
C      1  0.5383250000000  0.5313760000000  0.4349650000000 1.0
C      1  0.5394980000000  0.4863980000000  0.4537460000000 1.0
C      1  0.4601710000000  0.5183860000000  0.5723480000000 1.0
C      1  0.5896190000000  0.5033250000000  0.4894790000000 1.0
C      1  0.4397040000000  0.4906940000000  0.5049860000000 1.0
C      1  0.4887390000000  0.5472200000000  0.5271940000000 1.0
C      1  0.5518970000000  0.5709630000000  0.4570490000000 1.0
C      1  0.5464320000000  0.5619440000000  0.5357640000000 1.0
C      1  0.5433600000000  0.5354160000000  0.5288240000000 1.0
C      1  0.5591540000000  0.5150540000000  0.4983890000000 1.0
C      1  0.4724140000000  0.5731250000000  0.5273570000000 1.0
C      1  0.5671720000000  0.4784780000000  0.4517690000000 1.0
C      1  0.5020340000000  0.4564450000000  0.4636140000000 1.0
C      1  0.5288050000000  0.4805290000000  0.5014520000000 1.0
C      1  0.5209000000000  0.4665140000000  0.4449540000000 1.0
C      1  0.4122950000000  0.4804690000000  0.4782440000000 1.0
C      1  0.4836470000000  0.4696170000000  0.5049390000000 1.0
C      1  0.4970690000000  0.5059470000000  0.4710090000000 1.0
C      1  0.4550690000000  0.4761300000000  0.4781840000000 1.0
C      1  0.4552720000000  0.3941680000000  0.5391310000000 1.0
C      1  0.5022850000000  0.5432660000000  0.5019090000000 1.0
C      1  0.5018970000000  0.4872330000000  0.5566110000000 1.0
C      1  0.4135070000000  0.4312840000000  0.4101520000000 1.0
C      1  0.5723410000000  0.4542470000000  0.4662440000000 1.0
END
