TITL C-2778435-5768-209 -0.00267629069000403 125000 -495.34029814332 0 0 86 (C1) n - 1
REM
REM in /home/nfs/bkarasulu/CARBON/AIRSS/Generating-Clusters/REBO/Only-C1/SD-CG/HFTN-CG
REM
REM
REM
REM
REM
REM ./C.cell (11c1c37f851c82e70ff6c80c92926a4b)
REM
REM compiler GCC version 9.2.1 20190827 (Red Hat 9.2.1-1)
REM options -cpp -mtune=generic -march=x86-64 -g -O0 -fpre-include=/usr/include/finclude/math-vector-fortran.h
REM seed 732616399 152206222 251830454 -65063274 1600560552 -611299613 -1506189374 2022475348 -1792448310 -541439398 1779692164 1488240325 -1792255854 1105432726 446813206 -685612289 492214548 956924234 1195057432 -1997726255 1078859339 117510879 -720511012 1615639314 -235888816 564656351 -1701535162 -427400352 740503277 1088513042 203571655 298240924 -2117745423
REM
CELL 1.54180   50.00000   50.00000   50.00000   90.00000   90.00000   90.00000
LATT -1
SFAC C  
C      1  0.4325140000000  0.5033750000000  0.4482840000000 1.0
C      1  0.4746230000000  0.4905410000000  0.4353010000000 1.0
C      1  0.4796120000000  0.4672260000000  0.5208840000000 1.0
C      1  0.5127240000000  0.4592590000000  0.4903890000000 1.0
C      1  0.4251240000000  0.5221410000000  0.5082660000000 1.0
C      1  0.4526380000000  0.4631030000000  0.4722270000000 1.0
C      1  0.5224620000000  0.4615370000000  0.4518110000000 1.0
C      1  0.4516580000000  0.5426400000000  0.5553470000000 1.0
C      1  0.4405290000000  0.4737100000000  0.5161000000000 1.0
C      1  0.5074810000000  0.5649760000000  0.4763780000000 1.0
C      1  0.5732220000000  0.4699220000000  0.5298540000000 1.0
C      1  0.5919320000000  0.4902670000000  0.4727880000000 1.0
C      1  0.5182470000000  0.5616410000000  0.4306730000000 1.0
C      1  0.5762830000000  0.5172250000000  0.4794910000000 1.0
C      1  0.4327550000000  0.5398710000000  0.5348190000000 1.0
C      1  0.4703800000000  0.4411330000000  0.5488710000000 1.0
C      1  0.4529640000000  0.5154150000000  0.4804420000000 1.0
C      1  0.4566450000000  0.4979890000000  0.5310980000000 1.0
C      1  0.4284530000000  0.4859070000000  0.4698210000000 1.0
C      1  0.5055150000000  0.5375430000000  0.4923740000000 1.0
C      1  0.4791030000000  0.5114750000000  0.5231780000000 1.0
C      1  0.4858090000000  0.4147310000000  0.4434050000000 1.0
C      1  0.5619830000000  0.5464230000000  0.4751060000000 1.0
C      1  0.5226610000000  0.4925880000000  0.5258110000000 1.0
C      1  0.5302740000000  0.5446220000000  0.5117620000000 1.0
C      1  0.5513160000000  0.4675780000000  0.5499320000000 1.0
C      1  0.5139900000000  0.5751520000000  0.5316850000000 1.0
C      1  0.5288120000000  0.5439210000000  0.5438710000000 1.0
C      1  0.4750620000000  0.4845470000000  0.5770170000000 1.0
C      1  0.4942830000000  0.4158780000000  0.4740890000000 1.0
C      1  0.5556060000000  0.4942390000000  0.4889480000000 1.0
C      1  0.4778290000000  0.5107520000000  0.4612880000000 1.0
C      1  0.4962050000000  0.4477390000000  0.4634380000000 1.0
C      1  0.4926270000000  0.4864510000000  0.4941460000000 1.0
C      1  0.4588450000000  0.5211780000000  0.4360250000000 1.0
C      1  0.4998900000000  0.5259310000000  0.5644750000000 1.0
C      1  0.5441320000000  0.4950360000000  0.5591100000000 1.0
C      1  0.4806690000000  0.5455390000000  0.5438260000000 1.0
C      1  0.5243710000000  0.5535020000000  0.5742090000000 1.0
C      1  0.4786480000000  0.5365360000000  0.5082890000000 1.0
C      1  0.5332590000000  0.4436660000000  0.5465150000000 1.0
C      1  0.4361150000000  0.5352440000000  0.4721210000000 1.0
C      1  0.4226830000000  0.4958560000000  0.4976700000000 1.0
C      1  0.5484020000000  0.5576580000000  0.4464290000000 1.0
C      1  0.4948370000000  0.4304220000000  0.5111920000000 1.0
C      1  0.5034200000000  0.4934580000000  0.4243470000000 1.0
C      1  0.4917720000000  0.5843190000000  0.4932390000000 1.0
C      1  0.5317760000000  0.5336960000000  0.4306580000000 1.0
C      1  0.5022130000000  0.4525480000000  0.5528560000000 1.0
C      1  0.4635850000000  0.4736300000000  0.5505050000000 1.0
C      1  0.5079080000000  0.5093380000000  0.4739160000000 1.0
C      1  0.4955710000000  0.5622690000000  0.4480100000000 1.0
C      1  0.5218860000000  0.4164080000000  0.4904450000000 1.0
C      1  0.4612730000000  0.4877160000000  0.4924420000000 1.0
C      1  0.5530920000000  0.4921080000000  0.5184240000000 1.0
C      1  0.5343530000000  0.4879860000000  0.4688240000000 1.0
C      1  0.5392290000000  0.5709840000000  0.4753450000000 1.0
C      1  0.5157920000000  0.5137580000000  0.4404320000000 1.0
C      1  0.4692160000000  0.4146140000000  0.4951280000000 1.0
C      1  0.4830940000000  0.5728880000000  0.5237540000000 1.0
C      1  0.4694360000000  0.4487190000000  0.4960250000000 1.0
C      1  0.4751650000000  0.5124660000000  0.5817920000000 1.0
C      1  0.4521180000000  0.5286740000000  0.5798360000000 1.0
C      1  0.5480570000000  0.4902880000000  0.4416870000000 1.0
C      1  0.5189780000000  0.5780470000000  0.5620900000000 1.0
C      1  0.5274530000000  0.4301710000000  0.5207930000000 1.0
C      1  0.5108520000000  0.4659960000000  0.5226670000000 1.0
C      1  0.4750520000000  0.4344790000000  0.4321960000000 1.0
C      1  0.5926230000000  0.4613980000000  0.5117640000000 1.0
C      1  0.4507860000000  0.5600670000000  0.4684650000000 1.0
C      1  0.5582180000000  0.5304360000000  0.5050960000000 1.0
C      1  0.4702720000000  0.4624110000000  0.4468810000000 1.0
C      1  0.5640180000000  0.4500690000000  0.4756730000000 1.0
C      1  0.4612240000000  0.5742000000000  0.4968380000000 1.0
C      1  0.4690610000000  0.5518420000000  0.4469130000000 1.0
C      1  0.5395250000000  0.4424140000000  0.4825140000000 1.0
C      1  0.5182990000000  0.4691880000000  0.4252850000000 1.0
C      1  0.4462240000000  0.4453340000000  0.5282830000000 1.0
C      1  0.5869140000000  0.4645030000000  0.4839390000000 1.0
C      1  0.5323860000000  0.5773720000000  0.5060190000000 1.0
C      1  0.4427820000000  0.4233690000000  0.5115830000000 1.0
C      1  0.4486620000000  0.5469600000000  0.5078770000000 1.0
C      1  0.5496600000000  0.5199910000000  0.5365620000000 1.0
C      1  0.5189310000000  0.4981970000000  0.5714980000000 1.0
C      1  0.5039740000000  0.5103910000000  0.5365760000000 1.0
C      1  0.5019750000000  0.4752130000000  0.5740660000000 1.0
END
