TITL C-2778428-5639-48 0.00176890040117132 125000 -670.200877189795 0 0 113 (C1) n - 1
REM
REM in /home/nfs/bkarasulu/CARBON/AIRSS/Generating-Clusters/REBO/Only-C1/SD-CG/HFTN-CG
REM
REM
REM
REM
REM
REM ./C.cell (11c1c37f851c82e70ff6c80c92926a4b)
REM
REM compiler GCC version 9.2.1 20190827 (Red Hat 9.2.1-1)
REM options -cpp -mtune=generic -march=x86-64 -g -O0 -fpre-include=/usr/include/finclude/math-vector-fortran.h
REM seed -269530062 -396870621 -236767688 -1443211110 -353796567 1537441339 2139329929 1392597111 -1681392253 1857782916 1005782188 725539204 -353305821 -820941896 -2077169398 485757923 361266030 -224142338 34049537 -773013503 540990125 1481461644 -301927484 -965183534 790717713 2612250 200690231 819764782 1953288445 -362201708 -361265029 1197901327 361078629
REM
CELL 1.54180   50.00000   50.00000   50.00000   90.00000   90.00000   90.00000
LATT -1
SFAC C  
C      1  0.5892470000000  0.5099040000000  0.4847470000000 1.0
C      1  0.4580450000000  0.5133560000000  0.4251830000000 1.0
C      1  0.5400320000000  0.4338180000000  0.4608550000000 1.0
C      1  0.4428860000000  0.5687550000000  0.4667630000000 1.0
C      1  0.5085510000000  0.4510310000000  0.5709790000000 1.0
C      1  0.4391110000000  0.4629720000000  0.4617630000000 1.0
C      1  0.5203830000000  0.4780410000000  0.5123400000000 1.0
C      1  0.4473910000000  0.4755920000000  0.5321060000000 1.0
C      1  0.5253350000000  0.5462870000000  0.4140250000000 1.0
C      1  0.4759270000000  0.4622440000000  0.4294410000000 1.0
C      1  0.4937000000000  0.5141390000000  0.4491270000000 1.0
C      1  0.4605080000000  0.5823040000000  0.4895630000000 1.0
C      1  0.4801460000000  0.4226090000000  0.4864040000000 1.0
C      1  0.5544850000000  0.5322590000000  0.5090450000000 1.0
C      1  0.5320640000000  0.5379090000000  0.5591420000000 1.0
C      1  0.5239440000000  0.5359230000000  0.4832320000000 1.0
C      1  0.5067380000000  0.5031850000000  0.4132650000000 1.0
C      1  0.5083230000000  0.4930120000000  0.5409330000000 1.0
C      1  0.5417430000000  0.4457780000000  0.4306210000000 1.0
C      1  0.5554360000000  0.4065280000000  0.5246440000000 1.0
C      1  0.4680610000000  0.5014140000000  0.4627180000000 1.0
C      1  0.4353810000000  0.5085190000000  0.4411000000000 1.0
C      1  0.5081380000000  0.4113800000000  0.5009060000000 1.0
C      1  0.5529810000000  0.4618390000000  0.5478410000000 1.0
C      1  0.5458340000000  0.5612160000000  0.4791430000000 1.0
C      1  0.4737010000000  0.5384840000000  0.4245170000000 1.0
C      1  0.5399370000000  0.4923780000000  0.5439940000000 1.0
C      1  0.5133960000000  0.4512790000000  0.4582090000000 1.0
C      1  0.4213350000000  0.4752870000000  0.5098480000000 1.0
C      1  0.4234260000000  0.5423210000000  0.5448940000000 1.0
C      1  0.4937380000000  0.4622290000000  0.5202490000000 1.0
C      1  0.4225260000000  0.4861650000000  0.4576160000000 1.0
C      1  0.4984610000000  0.4448100000000  0.5451320000000 1.0
C      1  0.5311920000000  0.4277890000000  0.5130200000000 1.0
C      1  0.4183210000000  0.4757630000000  0.5594950000000 1.0
C      1  0.5029500000000  0.5064940000000  0.5846500000000 1.0
C      1  0.5375800000000  0.4036640000000  0.4640780000000 1.0
C      1  0.5320280000000  0.4665160000000  0.5731620000000 1.0
C      1  0.4710440000000  0.4238160000000  0.4577980000000 1.0
C      1  0.5743890000000  0.5574490000000  0.4854610000000 1.0
C      1  0.4783460000000  0.4078200000000  0.5170530000000 1.0
C      1  0.4804930000000  0.4232660000000  0.5451400000000 1.0
C      1  0.5082460000000  0.5811060000000  0.4989380000000 1.0
C      1  0.4728520000000  0.4868960000000  0.5144790000000 1.0
C      1  0.5346540000000  0.5857400000000  0.4899310000000 1.0
C      1  0.5908700000000  0.4840320000000  0.4987490000000 1.0
C      1  0.4915990000000  0.5783300000000  0.5655670000000 1.0
C      1  0.5329490000000  0.5664720000000  0.5418950000000 1.0
C      1  0.5520190000000  0.5976710000000  0.5096740000000 1.0
C      1  0.4805510000000  0.4911100000000  0.4261680000000 1.0
C      1  0.5303810000000  0.5651370000000  0.4386480000000 1.0
C      1  0.5632990000000  0.4773550000000  0.4581960000000 1.0
C      1  0.5190000000000  0.5354220000000  0.4516640000000 1.0
C      1  0.4106970000000  0.5200960000000  0.5335670000000 1.0
C      1  0.5085550000000  0.5861670000000  0.5454610000000 1.0
C      1  0.4653060000000  0.5140310000000  0.5608170000000 1.0
C      1  0.4451780000000  0.5066960000000  0.5184370000000 1.0
C      1  0.5152730000000  0.5119400000000  0.5148190000000 1.0
C      1  0.4418500000000  0.5184580000000  0.4710730000000 1.0
C      1  0.5588110000000  0.5167680000000  0.4854110000000 1.0
C      1  0.4849540000000  0.5143720000000  0.5406190000000 1.0
C      1  0.5007560000000  0.5321250000000  0.4121940000000 1.0
C      1  0.5881160000000  0.5377800000000  0.4685470000000 1.0
C      1  0.5454860000000  0.5052680000000  0.4562450000000 1.0
C      1  0.5027510000000  0.4722070000000  0.4739510000000 1.0
C      1  0.4451840000000  0.5389720000000  0.5116240000000 1.0
C      1  0.5591080000000  0.5776100000000  0.5292600000000 1.0
C      1  0.5739780000000  0.5557010000000  0.5162130000000 1.0
C      1  0.5127520000000  0.5043700000000  0.4758210000000 1.0
C      1  0.4494170000000  0.5616220000000  0.5332430000000 1.0
C      1  0.5221540000000  0.3928200000000  0.4807410000000 1.0
C      1  0.5558690000000  0.4521850000000  0.4798750000000 1.0
C      1  0.5289520000000  0.4931750000000  0.5823480000000 1.0
C      1  0.4664630000000  0.5575960000000  0.4450390000000 1.0
C      1  0.4466370000000  0.4650810000000  0.4923660000000 1.0
C      1  0.5727320000000  0.5008440000000  0.5464470000000 1.0
C      1  0.5302980000000  0.4955480000000  0.4262800000000 1.0
C      1  0.5442340000000  0.4592150000000  0.5089010000000 1.0
C      1  0.5050590000000  0.5325890000000  0.5727000000000 1.0
C      1  0.4874630000000  0.5101770000000  0.4981210000000 1.0
C      1  0.5481510000000  0.5299430000000  0.4339460000000 1.0
C      1  0.4515290000000  0.5427610000000  0.5618910000000 1.0
C      1  0.5757600000000  0.5443720000000  0.4426340000000 1.0
C      1  0.5498250000000  0.5141480000000  0.5677700000000 1.0
C      1  0.4875130000000  0.4525730000000  0.5900800000000 1.0
C      1  0.5512640000000  0.4339190000000  0.5395130000000 1.0
C      1  0.4664600000000  0.4701210000000  0.5826670000000 1.0
C      1  0.4576490000000  0.4477320000000  0.4475780000000 1.0
C      1  0.4903810000000  0.4134890000000  0.4365140000000 1.0
C      1  0.4747020000000  0.4971760000000  0.5823350000000 1.0
C      1  0.4979570000000  0.4433050000000  0.4355810000000 1.0
C      1  0.4462200000000  0.4114640000000  0.5297300000000 1.0
C      1  0.5586060000000  0.5695190000000  0.4421600000000 1.0
C      1  0.4737040000000  0.4772320000000  0.4757340000000 1.0
C      1  0.4937390000000  0.5911440000000  0.5215230000000 1.0
C      1  0.4794670000000  0.5573890000000  0.4764780000000 1.0
C      1  0.5296130000000  0.5364090000000  0.5256200000000 1.0
C      1  0.5475750000000  0.4727160000000  0.4319590000000 1.0
C      1  0.4106040000000  0.4899400000000  0.5371320000000 1.0
C      1  0.5014800000000  0.5501350000000  0.4991250000000 1.0
C      1  0.5862520000000  0.4643820000000  0.4778250000000 1.0
C      1  0.4678030000000  0.5308820000000  0.4895030000000 1.0
C      1  0.4831290000000  0.5496510000000  0.5591910000000 1.0
C      1  0.4156730000000  0.5140160000000  0.5029650000000 1.0
C      1  0.4455360000000  0.4275670000000  0.5056040000000 1.0
C      1  0.4518830000000  0.4295740000000  0.5550510000000 1.0
C      1  0.4102210000000  0.4928730000000  0.4827740000000 1.0
C      1  0.4316830000000  0.5462830000000  0.4819750000000 1.0
C      1  0.4471360000000  0.4597360000000  0.5605720000000 1.0
C      1  0.4900400000000  0.5411340000000  0.5267060000000 1.0
C      1  0.5700120000000  0.4773910000000  0.5223560000000 1.0
C      1  0.4652320000000  0.5842610000000  0.5180190000000 1.0
C      1  0.4714900000000  0.4485350000000  0.5032610000000 1.0
END
