TITL C-2778432-5617-635 -0.00476155729891981 125000 -1040.65661456586 0 0 179 (C1) n - 1
REM
REM in /home/nfs/bkarasulu/CARBON/AIRSS/Generating-Clusters/REBO/Only-C1/SD-CG/HFTN-CG
REM
REM
REM
REM
REM
REM ./C.cell (11c1c37f851c82e70ff6c80c92926a4b)
REM
REM compiler GCC version 9.2.1 20190827 (Red Hat 9.2.1-1)
REM options -cpp -mtune=generic -march=x86-64 -g -O0 -fpre-include=/usr/include/finclude/math-vector-fortran.h
REM seed -1888487542 -1476499348 700088239 -335168148 -1479141337 1675460951 -2066118145 144171347 1511890043 161396052 764716951 1256765195 974758741 -668618336 -12656533 161501115 -1666793056 -1483469645 1126158923 1157446953 1083365087 -1386446704 -1864133358 -2008450531 487436131 -1860568740 691350002 -370228987 2002945526 -1815178295 -1314866570 345769693 -6544741
REM
CELL 1.54180   50.00000   50.00000   50.00000   90.00000   90.00000   90.00000
LATT -1
SFAC C  
C      1  0.5778240000000  0.4653530000000  0.4631070000000 1.0
C      1  0.4620430000000  0.4553480000000  0.5841410000000 1.0
C      1  0.5675610000000  0.5320940000000  0.5067410000000 1.0
C      1  0.5756820000000  0.5470550000000  0.4353810000000 1.0
C      1  0.4606230000000  0.4069960000000  0.5024830000000 1.0
C      1  0.5309660000000  0.5244560000000  0.4462110000000 1.0
C      1  0.6018670000000  0.4748580000000  0.4933040000000 1.0
C      1  0.5650170000000  0.4837860000000  0.5900720000000 1.0
C      1  0.5014360000000  0.5324780000000  0.4556200000000 1.0
C      1  0.5498250000000  0.4998420000000  0.5220800000000 1.0
C      1  0.5172590000000  0.5930030000000  0.5052970000000 1.0
C      1  0.5568560000000  0.4223340000000  0.4507380000000 1.0
C      1  0.5655500000000  0.4485330000000  0.4396850000000 1.0
C      1  0.4256840000000  0.4271380000000  0.5351340000000 1.0
C      1  0.4003310000000  0.4847640000000  0.5024980000000 1.0
C      1  0.5803770000000  0.5030240000000  0.5182670000000 1.0
C      1  0.5219320000000  0.5715030000000  0.4180820000000 1.0
C      1  0.4323580000000  0.4795130000000  0.4305270000000 1.0
C      1  0.4511870000000  0.4557430000000  0.5518440000000 1.0
C      1  0.4260950000000  0.4752480000000  0.4594940000000 1.0
C      1  0.5244180000000  0.4482900000000  0.5294790000000 1.0
C      1  0.4403910000000  0.5352710000000  0.5825190000000 1.0
C      1  0.4809880000000  0.4219660000000  0.4348940000000 1.0
C      1  0.4147330000000  0.5421770000000  0.5403560000000 1.0
C      1  0.4736030000000  0.4001500000000  0.5326560000000 1.0
C      1  0.4878220000000  0.4537340000000  0.5081080000000 1.0
C      1  0.4492940000000  0.4584880000000  0.4213830000000 1.0
C      1  0.6096420000000  0.4559700000000  0.4703470000000 1.0
C      1  0.4611770000000  0.5014160000000  0.4473770000000 1.0
C      1  0.4481550000000  0.4835000000000  0.5957740000000 1.0
C      1  0.6148130000000  0.5227580000000  0.5140090000000 1.0
C      1  0.6074450000000  0.5020470000000  0.4889160000000 1.0
C      1  0.5520140000000  0.5615200000000  0.5642930000000 1.0
C      1  0.5242720000000  0.4633090000000  0.6088480000000 1.0
C      1  0.4758150000000  0.5644330000000  0.4837860000000 1.0
C      1  0.4330960000000  0.4281240000000  0.4683030000000 1.0
C      1  0.4507570000000  0.5681630000000  0.5034840000000 1.0
C      1  0.4963770000000  0.4415620000000  0.5394340000000 1.0
C      1  0.4345770000000  0.5145690000000  0.4639100000000 1.0
C      1  0.4442900000000  0.5991400000000  0.5435030000000 1.0
C      1  0.4783920000000  0.5990970000000  0.5438760000000 1.0
C      1  0.4940440000000  0.5853360000000  0.4317740000000 1.0
C      1  0.5878840000000  0.5653970000000  0.5132390000000 1.0
C      1  0.5136490000000  0.5187620000000  0.4204150000000 1.0
C      1  0.4373570000000  0.5082630000000  0.4239230000000 1.0
C      1  0.5020090000000  0.5605790000000  0.4670850000000 1.0
C      1  0.4956020000000  0.3631430000000  0.5645200000000 1.0
C      1  0.5395950000000  0.5407590000000  0.4929720000000 1.0
C      1  0.4654630000000  0.4323920000000  0.5333710000000 1.0
C      1  0.4653540000000  0.5627960000000  0.4518680000000 1.0
C      1  0.4882580000000  0.5605610000000  0.5146010000000 1.0
C      1  0.4806710000000  0.3860040000000  0.4751190000000 1.0
C      1  0.5321920000000  0.5183420000000  0.5955790000000 1.0
C      1  0.3980740000000  0.4532900000000  0.4915420000000 1.0
C      1  0.5458880000000  0.4256270000000  0.5360080000000 1.0
C      1  0.5664690000000  0.4255980000000  0.5089440000000 1.0
C      1  0.4915210000000  0.4581760000000  0.6009370000000 1.0
C      1  0.5174980000000  0.5633950000000  0.5474160000000 1.0
C      1  0.5292670000000  0.4733450000000  0.4672130000000 1.0
C      1  0.5974100000000  0.5178050000000  0.4655770000000 1.0
C      1  0.5410090000000  0.4917950000000  0.6030390000000 1.0
C      1  0.4600010000000  0.5163420000000  0.3919620000000 1.0
C      1  0.5310290000000  0.5087860000000  0.4974070000000 1.0
C      1  0.5140460000000  0.5263410000000  0.3869070000000 1.0
C      1  0.4701160000000  0.5027630000000  0.6017780000000 1.0
C      1  0.4856960000000  0.5137490000000  0.5206570000000 1.0
C      1  0.4747280000000  0.5172030000000  0.4136360000000 1.0
C      1  0.6186970000000  0.4749770000000  0.5436270000000 1.0
C      1  0.5218950000000  0.5789390000000  0.4513380000000 1.0
C      1  0.4663880000000  0.5235110000000  0.5541450000000 1.0
C      1  0.5114710000000  0.4834300000000  0.5774270000000 1.0
C      1  0.4696790000000  0.4657100000000  0.4020820000000 1.0
C      1  0.5280400000000  0.4329800000000  0.5007660000000 1.0
C      1  0.4724420000000  0.4165770000000  0.4673930000000 1.0
C      1  0.4805720000000  0.5488230000000  0.5431720000000 1.0
C      1  0.4552650000000  0.4833450000000  0.5019380000000 1.0
C      1  0.4120700000000  0.5579260000000  0.4659780000000 1.0
C      1  0.5658390000000  0.4171360000000  0.4760010000000 1.0
C      1  0.4994930000000  0.5480800000000  0.4089350000000 1.0
C      1  0.4857550000000  0.5111990000000  0.4696110000000 1.0
C      1  0.5361230000000  0.4529810000000  0.4111710000000 1.0
C      1  0.4945090000000  0.3865380000000  0.4968800000000 1.0
C      1  0.4937890000000  0.4932390000000  0.4261780000000 1.0
C      1  0.4739260000000  0.5915010000000  0.5129580000000 1.0
C      1  0.5058380000000  0.5257270000000  0.5438800000000 1.0
C      1  0.5734580000000  0.4561250000000  0.4956290000000 1.0
C      1  0.5952320000000  0.5394170000000  0.5344330000000 1.0
C      1  0.5733520000000  0.5701270000000  0.4492960000000 1.0
C      1  0.5239360000000  0.5461330000000  0.5762840000000 1.0
C      1  0.5575430000000  0.5092710000000  0.5601750000000 1.0
C      1  0.5374380000000  0.5458500000000  0.4020150000000 1.0
C      1  0.5681930000000  0.4992910000000  0.4183720000000 1.0
C      1  0.4508040000000  0.4351750000000  0.4400210000000 1.0
C      1  0.5421110000000  0.4621640000000  0.4943940000000 1.0
C      1  0.4123110000000  0.4489050000000  0.4669030000000 1.0
C      1  0.5250800000000  0.4267510000000  0.5629350000000 1.0
C      1  0.4337730000000  0.5378050000000  0.4219850000000 1.0
C      1  0.4358440000000  0.5781010000000  0.5644030000000 1.0
C      1  0.5465280000000  0.5169340000000  0.4701610000000 1.0
C      1  0.5473640000000  0.5839160000000  0.4664970000000 1.0
C      1  0.4843630000000  0.5958270000000  0.4605460000000 1.0
C      1  0.5050580000000  0.4117300000000  0.4567320000000 1.0
C      1  0.4679160000000  0.4433410000000  0.4829720000000 1.0
C      1  0.4578100000000  0.5120910000000  0.4852260000000 1.0
C      1  0.4928830000000  0.4177620000000  0.5627860000000 1.0
C      1  0.6069680000000  0.4940430000000  0.5279710000000 1.0
C      1  0.5863020000000  0.4641020000000  0.5775810000000 1.0
C      1  0.4489760000000  0.4445800000000  0.5083870000000 1.0
C      1  0.5458380000000  0.4762260000000  0.4418630000000 1.0
C      1  0.5442990000000  0.5864320000000  0.4973070000000 1.0
C      1  0.5290140000000  0.4542280000000  0.5766770000000 1.0
C      1  0.5135010000000  0.4937400000000  0.3898590000000 1.0
C      1  0.4796760000000  0.5425690000000  0.4338140000000 1.0
C      1  0.4024460000000  0.5488980000000  0.4912920000000 1.0
C      1  0.5732670000000  0.6013940000000  0.4529690000000 1.0
C      1  0.5643470000000  0.5814250000000  0.5174610000000 1.0
C      1  0.5431640000000  0.4733650000000  0.5381630000000 1.0
C      1  0.4514680000000  0.5915940000000  0.4636630000000 1.0
C      1  0.4564140000000  0.5208580000000  0.5155090000000 1.0
C      1  0.4130510000000  0.5651550000000  0.5158260000000 1.0
C      1  0.4527120000000  0.6058820000000  0.4915190000000 1.0
C      1  0.5521690000000  0.5292480000000  0.4222570000000 1.0
C      1  0.4325690000000  0.5931470000000  0.5157720000000 1.0
C      1  0.4849870000000  0.5049340000000  0.5724640000000 1.0
C      1  0.5559990000000  0.4659930000000  0.5641120000000 1.0
C      1  0.4890750000000  0.3864520000000  0.5556090000000 1.0
C      1  0.5083590000000  0.5896770000000  0.5330360000000 1.0
C      1  0.5620260000000  0.5467180000000  0.5371790000000 1.0
C      1  0.4339970000000  0.4973500000000  0.5214340000000 1.0
C      1  0.5065300000000  0.4650120000000  0.4232680000000 1.0
C      1  0.4392330000000  0.4153780000000  0.5579710000000 1.0
C      1  0.5680080000000  0.4657820000000  0.4113290000000 1.0
C      1  0.4929810000000  0.5453430000000  0.5917300000000 1.0
C      1  0.5638580000000  0.4943700000000  0.4623890000000 1.0
C      1  0.4494610000000  0.5590020000000  0.4122450000000 1.0
C      1  0.5859590000000  0.5188950000000  0.4402200000000 1.0
C      1  0.5808150000000  0.5169840000000  0.5557270000000 1.0
C      1  0.4057110000000  0.5127350000000  0.5311100000000 1.0
C      1  0.4670460000000  0.5498460000000  0.5839550000000 1.0
C      1  0.5351220000000  0.3787580000000  0.5024780000000 1.0
C      1  0.5360550000000  0.5296370000000  0.5309650000000 1.0
C      1  0.4543400000000  0.4708840000000  0.4720600000000 1.0
C      1  0.4862390000000  0.4909150000000  0.5437340000000 1.0
C      1  0.5366060000000  0.4874850000000  0.4109110000000 1.0
C      1  0.4622740000000  0.4237430000000  0.5724830000000 1.0
C      1  0.4232230000000  0.5529100000000  0.5671710000000 1.0
C      1  0.4996220000000  0.5979410000000  0.4830790000000 1.0
C      1  0.5321930000000  0.4130080000000  0.4408720000000 1.0
C      1  0.5190730000000  0.5540900000000  0.5144500000000 1.0
C      1  0.4402280000000  0.5109320000000  0.5509160000000 1.0
C      1  0.5095170000000  0.5300110000000  0.6099090000000 1.0
C      1  0.4209150000000  0.4603980000000  0.5139600000000 1.0
C      1  0.5406130000000  0.4039210000000  0.5038510000000 1.0
C      1  0.4294550000000  0.5029410000000  0.5811070000000 1.0
C      1  0.4208540000000  0.5845610000000  0.4607550000000 1.0
C      1  0.5955120000000  0.5399220000000  0.4916230000000 1.0
C      1  0.4134370000000  0.4890740000000  0.5544640000000 1.0
C      1  0.5113500000000  0.4324140000000  0.4233020000000 1.0
C      1  0.4242740000000  0.5386690000000  0.4497300000000 1.0
C      1  0.4957070000000  0.4892560000000  0.6073870000000 1.0
C      1  0.4697440000000  0.5765750000000  0.4146580000000 1.0
C      1  0.6110650000000  0.4616650000000  0.5660730000000 1.0
C      1  0.4814120000000  0.4753980000000  0.4525060000000 1.0
C      1  0.5267180000000  0.5033260000000  0.5589300000000 1.0
C      1  0.4303180000000  0.4191150000000  0.5017440000000 1.0
C      1  0.5568420000000  0.5852670000000  0.5456050000000 1.0
C      1  0.4683250000000  0.4718170000000  0.5301470000000 1.0
C      1  0.5138130000000  0.4867070000000  0.5320940000000 1.0
C      1  0.4415490000000  0.5449690000000  0.5204240000000 1.0
C      1  0.5113380000000  0.4743720000000  0.5025460000000 1.0
C      1  0.4111550000000  0.4985610000000  0.4750280000000 1.0
C      1  0.3981330000000  0.5186160000000  0.4987650000000 1.0
C      1  0.5064860000000  0.4340260000000  0.4787750000000 1.0
C      1  0.5034840000000  0.4603400000000  0.4659450000000 1.0
C      1  0.5003700000000  0.5037540000000  0.4960100000000 1.0
C      1  0.4905490000000  0.4784190000000  0.3892240000000 1.0
C      1  0.4684130000000  0.5734560000000  0.5616210000000 1.0
C      1  0.4204690000000  0.4599530000000  0.5449300000000 1.0
C      1  0.4928240000000  0.4161970000000  0.5094000000000 1.0
END
