TITL C-2778435-5768-1431 -0.00664651403058062 125000 -150.483594693047 0 0 27 (C1) n - 1
REM
REM in /home/nfs/bkarasulu/CARBON/AIRSS/Generating-Clusters/REBO/Only-C1/SD-CG/HFTN-CG
REM
REM
REM
REM
REM
REM ./C.cell (11c1c37f851c82e70ff6c80c92926a4b)
REM
REM compiler GCC version 9.2.1 20190827 (Red Hat 9.2.1-1)
REM options -cpp -mtune=generic -march=x86-64 -g -O0 -fpre-include=/usr/include/finclude/math-vector-fortran.h
REM seed -1899998681 -259873890 -1800035124 -1434037332 66285440 360919532 1540314524 693697141 -1889212403 -1365994985 -572146800 -1087627183 1217575139 -1043559672 -1463854275 599639858 -222048294 -315193615 71734967 1828585427 182106118 2055013740 1889365780 -190837818 1961909179 1236433271 -794918842 -1092685351 629383609 -1966508094 -997945367 -2072681032 1733519436
REM
CELL 1.54180   50.00000   50.00000   50.00000   90.00000   90.00000   90.00000
LATT -1
SFAC C  
C      1  0.4861900000000  0.4379940000000  0.4793440000000 1.0
C      1  0.5128230000000  0.5202520000000  0.4520300000000 1.0
C      1  0.4804740000000  0.5521800000000  0.4725760000000 1.0
C      1  0.4689890000000  0.5560110000000  0.4970800000000 1.0
C      1  0.4752750000000  0.4536620000000  0.4588420000000 1.0
C      1  0.5442650000000  0.4709500000000  0.5026490000000 1.0
C      1  0.5623570000000  0.5079030000000  0.4767410000000 1.0
C      1  0.4611950000000  0.4798800000000  0.5266700000000 1.0
C      1  0.4843220000000  0.4641970000000  0.5296860000000 1.0
C      1  0.4904520000000  0.5466010000000  0.5216890000000 1.0
C      1  0.5115860000000  0.5329550000000  0.5020140000000 1.0
C      1  0.5162100000000  0.4299790000000  0.4807190000000 1.0
C      1  0.5310590000000  0.5162520000000  0.5133800000000 1.0
C      1  0.5276480000000  0.4486170000000  0.5026830000000 1.0
C      1  0.4810230000000  0.4769820000000  0.4464170000000 1.0
C      1  0.5001660000000  0.5583580000000  0.5446230000000 1.0
C      1  0.4589840000000  0.5358620000000  0.5208870000000 1.0
C      1  0.4954480000000  0.4497720000000  0.5081050000000 1.0
C      1  0.4494000000000  0.5043050000000  0.5262870000000 1.0
C      1  0.5371480000000  0.5239570000000  0.4404040000000 1.0
C      1  0.5295800000000  0.5102330000000  0.5409750000000 1.0
C      1  0.4282840000000  0.5270870000000  0.5320710000000 1.0
C      1  0.5187690000000  0.4907830000000  0.5565240000000 1.0
C      1  0.4954130000000  0.4995660000000  0.4442990000000 1.0
C      1  0.5011680000000  0.4706920000000  0.5515000000000 1.0
C      1  0.5473180000000  0.4985520000000  0.4973920000000 1.0
C      1  0.5044520000000  0.5364180000000  0.4744120000000 1.0
END
