TITL C-2778430-5657-770 0.000813590030929461 125000 -1015.72455703787 0 0 175 (C1) n - 1
REM
REM in /home/nfs/bkarasulu/CARBON/AIRSS/Generating-Clusters/REBO/Only-C1/SD-CG/HFTN-CG
REM
REM
REM
REM
REM
REM ./C.cell (11c1c37f851c82e70ff6c80c92926a4b)
REM
REM compiler GCC version 9.2.1 20190827 (Red Hat 9.2.1-1)
REM options -cpp -mtune=generic -march=x86-64 -g -O0 -fpre-include=/usr/include/finclude/math-vector-fortran.h
REM seed 429115908 946234957 10962244 1952536200 667436776 -50989143 -262938851 -1314150842 -1293399594 1811408409 733287398 1462756797 1965594588 1948433617 -450647137 -236072747 -1980139864 -761043500 -1147083703 -81721868 -41058813 574162624 655860863 174410230 -2139640213 1498902855 -1533997161 1244901321 693613880 69513105 280020087 968609391 1748445032
REM
CELL 1.54180   50.00000   50.00000   50.00000   90.00000   90.00000   90.00000
LATT -1
SFAC C  
C      1  0.5406640000000  0.5636870000000  0.4507600000000 1.0
C      1  0.3969980000000  0.4942800000000  0.4835320000000 1.0
C      1  0.4588570000000  0.5060110000000  0.6025420000000 1.0
C      1  0.4007480000000  0.4740960000000  0.5510700000000 1.0
C      1  0.5620410000000  0.4607870000000  0.5739400000000 1.0
C      1  0.4325660000000  0.4286300000000  0.5327580000000 1.0
C      1  0.4362020000000  0.5649030000000  0.4657080000000 1.0
C      1  0.5358310000000  0.5024850000000  0.5686540000000 1.0
C      1  0.4750160000000  0.4352990000000  0.5085270000000 1.0
C      1  0.5630190000000  0.5383290000000  0.4946970000000 1.0
C      1  0.4821300000000  0.4061730000000  0.5218210000000 1.0
C      1  0.5303830000000  0.5240990000000  0.4925870000000 1.0
C      1  0.5436150000000  0.4266750000000  0.5029950000000 1.0
C      1  0.5506990000000  0.5142660000000  0.4070490000000 1.0
C      1  0.4964280000000  0.4124230000000  0.4327730000000 1.0
C      1  0.5234410000000  0.5166280000000  0.4353630000000 1.0
C      1  0.4353330000000  0.5002010000000  0.4930270000000 1.0
C      1  0.4815640000000  0.6054160000000  0.4676680000000 1.0
C      1  0.4492090000000  0.4390680000000  0.4901050000000 1.0
C      1  0.5361690000000  0.4539280000000  0.4891260000000 1.0
C      1  0.4251640000000  0.5174590000000  0.4346040000000 1.0
C      1  0.5254160000000  0.4748830000000  0.5049900000000 1.0
C      1  0.4888470000000  0.4912890000000  0.3911060000000 1.0
C      1  0.5533090000000  0.5416920000000  0.4273070000000 1.0
C      1  0.4425210000000  0.5431240000000  0.4205670000000 1.0
C      1  0.5146220000000  0.4854840000000  0.4353430000000 1.0
C      1  0.4719110000000  0.5048850000000  0.4157890000000 1.0
C      1  0.4296100000000  0.4431310000000  0.4287800000000 1.0
C      1  0.5544920000000  0.4309270000000  0.4355280000000 1.0
C      1  0.4746210000000  0.4127740000000  0.5514600000000 1.0
C      1  0.5164100000000  0.5136890000000  0.4686900000000 1.0
C      1  0.5589840000000  0.5300230000000  0.4616320000000 1.0
C      1  0.5204060000000  0.4595550000000  0.5865130000000 1.0
C      1  0.5747700000000  0.5645420000000  0.4281820000000 1.0
C      1  0.4845740000000  0.4777420000000  0.4284180000000 1.0
C      1  0.3995880000000  0.4609190000000  0.4903130000000 1.0
C      1  0.5279180000000  0.5557460000000  0.5024200000000 1.0
C      1  0.4652800000000  0.5280760000000  0.5835370000000 1.0
C      1  0.5757710000000  0.4293030000000  0.5133170000000 1.0
C      1  0.5871090000000  0.4329190000000  0.4811700000000 1.0
C      1  0.5774710000000  0.4820240000000  0.5671120000000 1.0
C      1  0.4194730000000  0.5371100000000  0.5688740000000 1.0
C      1  0.5988680000000  0.5187630000000  0.4703560000000 1.0
C      1  0.4225550000000  0.4129350000000  0.5084420000000 1.0
C      1  0.4469130000000  0.5476460000000  0.5731140000000 1.0
C      1  0.4961190000000  0.5472080000000  0.4049860000000 1.0
C      1  0.4733160000000  0.6015900000000  0.5006030000000 1.0
C      1  0.5151990000000  0.6093800000000  0.4999370000000 1.0
C      1  0.5415540000000  0.5008320000000  0.5078280000000 1.0
C      1  0.5461710000000  0.5968900000000  0.4573300000000 1.0
C      1  0.4660870000000  0.5220930000000  0.4445450000000 1.0
C      1  0.4739190000000  0.5487220000000  0.4732760000000 1.0
C      1  0.5585980000000  0.4966620000000  0.5353810000000 1.0
C      1  0.5115920000000  0.5426790000000  0.5787900000000 1.0
C      1  0.5467420000000  0.6081240000000  0.4897700000000 1.0
C      1  0.5989270000000  0.4568460000000  0.4968520000000 1.0
C      1  0.4332020000000  0.5097970000000  0.5683340000000 1.0
C      1  0.4599150000000  0.4884900000000  0.5669150000000 1.0
C      1  0.4989790000000  0.4495960000000  0.5243680000000 1.0
C      1  0.5458080000000  0.4814530000000  0.4473290000000 1.0
C      1  0.4893960000000  0.5747160000000  0.4756700000000 1.0
C      1  0.4695030000000  0.5333030000000  0.4983290000000 1.0
C      1  0.4762360000000  0.4895600000000  0.4760920000000 1.0
C      1  0.5063300000000  0.4745470000000  0.3857110000000 1.0
C      1  0.5323810000000  0.4144210000000  0.4540830000000 1.0
C      1  0.4737970000000  0.4553350000000  0.5950420000000 1.0
C      1  0.4419650000000  0.5630990000000  0.5254080000000 1.0
C      1  0.5632090000000  0.4838400000000  0.4118110000000 1.0
C      1  0.4433260000000  0.3997600000000  0.4918750000000 1.0
C      1  0.4126700000000  0.4454830000000  0.4507320000000 1.0
C      1  0.5447660000000  0.4452720000000  0.5522550000000 1.0
C      1  0.4907780000000  0.5210350000000  0.5626370000000 1.0
C      1  0.4508220000000  0.4433840000000  0.5813520000000 1.0
C      1  0.4974650000000  0.5699480000000  0.5740750000000 1.0
C      1  0.4660030000000  0.4681360000000  0.5118250000000 1.0
C      1  0.4308990000000  0.4676760000000  0.4141120000000 1.0
C      1  0.4699060000000  0.5351220000000  0.4070790000000 1.0
C      1  0.4753630000000  0.4274790000000  0.4201640000000 1.0
C      1  0.5287070000000  0.5023640000000  0.6141850000000 1.0
C      1  0.5208910000000  0.4136430000000  0.5547300000000 1.0
C      1  0.4570500000000  0.4169230000000  0.4658280000000 1.0
C      1  0.4456800000000  0.4983540000000  0.5387290000000 1.0
C      1  0.5179050000000  0.4501670000000  0.4034840000000 1.0
C      1  0.4055290000000  0.4737690000000  0.4589490000000 1.0
C      1  0.4304010000000  0.4950890000000  0.5984790000000 1.0
C      1  0.5147060000000  0.5976400000000  0.4682520000000 1.0
C      1  0.5814180000000  0.5761970000000  0.5319430000000 1.0
C      1  0.5497400000000  0.5757960000000  0.5292600000000 1.0
C      1  0.4919740000000  0.5922710000000  0.5275790000000 1.0
C      1  0.5241760000000  0.4337020000000  0.5277110000000 1.0
C      1  0.4605290000000  0.4829620000000  0.4501390000000 1.0
C      1  0.4513940000000  0.4262820000000  0.4350690000000 1.0
C      1  0.3842420000000  0.4970020000000  0.5477110000000 1.0
C      1  0.4291680000000  0.5712930000000  0.4954410000000 1.0
C      1  0.5281540000000  0.5262400000000  0.6027210000000 1.0
C      1  0.5628600000000  0.5070190000000  0.4441930000000 1.0
C      1  0.5998650000000  0.5181800000000  0.5045170000000 1.0
C      1  0.4108590000000  0.5159020000000  0.5043660000000 1.0
C      1  0.4206820000000  0.4315300000000  0.4733430000000 1.0
C      1  0.5122310000000  0.4629710000000  0.4587440000000 1.0
C      1  0.4428690000000  0.5869360000000  0.4497720000000 1.0
C      1  0.4459880000000  0.5968600000000  0.5043980000000 1.0
C      1  0.4945430000000  0.5327760000000  0.4567100000000 1.0
C      1  0.4396270000000  0.4637250000000  0.5577610000000 1.0
C      1  0.5505280000000  0.5663610000000  0.4820050000000 1.0
C      1  0.5933850000000  0.4557560000000  0.5262940000000 1.0
C      1  0.4794560000000  0.5031040000000  0.5354750000000 1.0
C      1  0.4796630000000  0.4850540000000  0.6020150000000 1.0
C      1  0.5855620000000  0.5495830000000  0.4636410000000 1.0
C      1  0.5246130000000  0.4231050000000  0.4219380000000 1.0
C      1  0.5572400000000  0.4649830000000  0.4707610000000 1.0
C      1  0.5734550000000  0.5902850000000  0.4855420000000 1.0
C      1  0.4496220000000  0.4251400000000  0.5558420000000 1.0
C      1  0.4023070000000  0.5438060000000  0.5491140000000 1.0
C      1  0.4980740000000  0.5720880000000  0.4226820000000 1.0
C      1  0.5192650000000  0.5598410000000  0.5341110000000 1.0
C      1  0.3986940000000  0.4269930000000  0.4944310000000 1.0
C      1  0.4880270000000  0.4769200000000  0.5642280000000 1.0
C      1  0.4903350000000  0.4151170000000  0.4616760000000 1.0
C      1  0.4090950000000  0.5200020000000  0.4647840000000 1.0
C      1  0.5757450000000  0.4443160000000  0.4522730000000 1.0
C      1  0.4801380000000  0.5796540000000  0.5550560000000 1.0
C      1  0.5594570000000  0.4191410000000  0.5387550000000 1.0
C      1  0.5432340000000  0.5236840000000  0.5431130000000 1.0
C      1  0.5957510000000  0.5494500000000  0.4949700000000 1.0
C      1  0.5845460000000  0.5127900000000  0.4281950000000 1.0
C      1  0.4164680000000  0.4754370000000  0.5797510000000 1.0
C      1  0.5051210000000  0.5774330000000  0.5013090000000 1.0
C      1  0.5268420000000  0.4757710000000  0.6087620000000 1.0
C      1  0.5457550000000  0.5400670000000  0.5775120000000 1.0
C      1  0.5191430000000  0.5913640000000  0.5483480000000 1.0
C      1  0.4089860000000  0.5454440000000  0.4875450000000 1.0
C      1  0.4548810000000  0.5675040000000  0.5540070000000 1.0
C      1  0.4384320000000  0.5354810000000  0.4595840000000 1.0
C      1  0.5032240000000  0.4786460000000  0.5358190000000 1.0
C      1  0.5052250000000  0.4965910000000  0.5823380000000 1.0
C      1  0.4665360000000  0.5563060000000  0.4407960000000 1.0
C      1  0.6006650000000  0.5056920000000  0.5348320000000 1.0
C      1  0.4652690000000  0.5014150000000  0.5040670000000 1.0
C      1  0.4252610000000  0.4528130000000  0.5090040000000 1.0
C      1  0.4145850000000  0.5447840000000  0.5212320000000 1.0
C      1  0.4703070000000  0.4572300000000  0.5426170000000 1.0
C      1  0.5676350000000  0.5141050000000  0.5729350000000 1.0
C      1  0.5916720000000  0.5243830000000  0.5545070000000 1.0
C      1  0.5151550000000  0.5501960000000  0.4399650000000 1.0
C      1  0.5273820000000  0.4733840000000  0.5585470000000 1.0
C      1  0.5746940000000  0.4980520000000  0.5054710000000 1.0
C      1  0.5425630000000  0.4588230000000  0.4216730000000 1.0
C      1  0.5377180000000  0.6045450000000  0.5227300000000 1.0
C      1  0.5862910000000  0.5493460000000  0.5438550000000 1.0
C      1  0.5930340000000  0.5782260000000  0.5057830000000 1.0
C      1  0.4861640000000  0.4522950000000  0.4119590000000 1.0
C      1  0.4931180000000  0.5454130000000  0.5391290000000 1.0
C      1  0.5137360000000  0.4348950000000  0.4720630000000 1.0
C      1  0.4626730000000  0.3870930000000  0.5069550000000 1.0
C      1  0.4700210000000  0.5488040000000  0.5221380000000 1.0
C      1  0.4969150000000  0.4195320000000  0.5680460000000 1.0
C      1  0.4745370000000  0.5885390000000  0.4389290000000 1.0
C      1  0.5368040000000  0.5715140000000  0.5677080000000 1.0
C      1  0.4256210000000  0.4747440000000  0.5299470000000 1.0
C      1  0.5958220000000  0.4911150000000  0.4596800000000 1.0
C      1  0.5819790000000  0.4782690000000  0.4843360000000 1.0
C      1  0.5038490000000  0.4871700000000  0.4737470000000 1.0
C      1  0.5391230000000  0.3972000000000  0.5339180000000 1.0
C      1  0.3863650000000  0.4496790000000  0.5487610000000 1.0
C      1  0.5576490000000  0.5446580000000  0.5267540000000 1.0
C      1  0.4333160000000  0.4873880000000  0.4683210000000 1.0
C      1  0.4979900000000  0.4419020000000  0.5865340000000 1.0
C      1  0.5210120000000  0.5309260000000  0.4056510000000 1.0
C      1  0.5396750000000  0.4063410000000  0.4824670000000 1.0
C      1  0.5120740000000  0.3964190000000  0.5197880000000 1.0
C      1  0.5763620000000  0.5808220000000  0.4537150000000 1.0
C      1  0.5837300000000  0.4738470000000  0.4371660000000 1.0
C      1  0.5936290000000  0.4789960000000  0.5429260000000 1.0
C      1  0.4371510000000  0.4901370000000  0.4286980000000 1.0
END
