TITL C-2778437-8639-1366 0.00533477588682948 125000 -986.060999190164 0 0 169 (C1) n - 1
REM
REM in /home/nfs/bkarasulu/CARBON/AIRSS/Generating-Clusters/REBO/Only-C1/SD-CG/HFTN-CG
REM
REM
REM
REM
REM
REM ./C.cell (11c1c37f851c82e70ff6c80c92926a4b)
REM
REM compiler GCC version 9.2.1 20190827 (Red Hat 9.2.1-1)
REM options -cpp -mtune=generic -march=x86-64 -g -O0 -fpre-include=/usr/include/finclude/math-vector-fortran.h
REM seed 792152203 829876199 -554393947 1609550470 1126041073 1368769921 -426718887 -318009185 1081966983 1397940189 720025947 920024586 1637208582 -1524177619 935899022 644444033 -1093976137 -123125350 -655694190 -33869823 -1254670130 -1254524103 424173405 -1755537549 -81292377 -1029255686 1564196268 -433062152 -2010871188 -1985063138 -1488749 -1173135341 1977765728
REM
CELL 1.54180   50.00000   50.00000   50.00000   90.00000   90.00000   90.00000
LATT -1
SFAC C  
C      1  0.5378550000000  0.5242760000000  0.4263620000000 1.0
C      1  0.5644920000000  0.5137310000000  0.4554040000000 1.0
C      1  0.4957520000000  0.4560200000000  0.4588700000000 1.0
C      1  0.5599980000000  0.4781280000000  0.4166120000000 1.0
C      1  0.5638360000000  0.5161210000000  0.4952180000000 1.0
C      1  0.5898170000000  0.4511320000000  0.4643870000000 1.0
C      1  0.4958730000000  0.5991120000000  0.5484460000000 1.0
C      1  0.4643870000000  0.4102380000000  0.4681220000000 1.0
C      1  0.5462510000000  0.4011180000000  0.4689450000000 1.0
C      1  0.4793770000000  0.5386600000000  0.5219820000000 1.0
C      1  0.5351370000000  0.4461670000000  0.4939280000000 1.0
C      1  0.4494700000000  0.4821620000000  0.4675370000000 1.0
C      1  0.4790600000000  0.4917350000000  0.3791460000000 1.0
C      1  0.5134780000000  0.5043590000000  0.5656140000000 1.0
C      1  0.4399830000000  0.5494130000000  0.5477410000000 1.0
C      1  0.5526390000000  0.5040200000000  0.4147130000000 1.0
C      1  0.4198920000000  0.4660460000000  0.5735440000000 1.0
C      1  0.4635960000000  0.5614810000000  0.5127080000000 1.0
C      1  0.4932670000000  0.4723190000000  0.5784410000000 1.0
C      1  0.4471930000000  0.4755460000000  0.4177510000000 1.0
C      1  0.5043200000000  0.5528860000000  0.4787890000000 1.0
C      1  0.5961280000000  0.5210020000000  0.5022060000000 1.0
C      1  0.5178520000000  0.5160400000000  0.5224340000000 1.0
C      1  0.5497330000000  0.4465970000000  0.5663740000000 1.0
C      1  0.5840710000000  0.4403870000000  0.4859190000000 1.0
C      1  0.5377620000000  0.4552580000000  0.4156790000000 1.0
C      1  0.5183020000000  0.4810320000000  0.5034420000000 1.0
C      1  0.5096940000000  0.4605000000000  0.5219380000000 1.0
C      1  0.5279440000000  0.3923050000000  0.5116930000000 1.0
C      1  0.5268240000000  0.4224410000000  0.5627290000000 1.0
C      1  0.5876890000000  0.5424800000000  0.4774870000000 1.0
C      1  0.5736590000000  0.5560390000000  0.4426070000000 1.0
C      1  0.4724370000000  0.4966580000000  0.5666000000000 1.0
C      1  0.4123840000000  0.4684560000000  0.4841670000000 1.0
C      1  0.5265910000000  0.4066140000000  0.5359000000000 1.0
C      1  0.4124600000000  0.5451800000000  0.5300130000000 1.0
C      1  0.4808330000000  0.5259910000000  0.3859870000000 1.0
C      1  0.4686510000000  0.4871840000000  0.4961930000000 1.0
C      1  0.5630180000000  0.4439610000000  0.4357700000000 1.0
C      1  0.5118230000000  0.5151150000000  0.4434220000000 1.0
C      1  0.4601030000000  0.4874090000000  0.5372170000000 1.0
C      1  0.4391520000000  0.5311250000000  0.5041330000000 1.0
C      1  0.4644850000000  0.4466330000000  0.4974700000000 1.0
C      1  0.4817450000000  0.4271440000000  0.4457100000000 1.0
C      1  0.4619930000000  0.6257760000000  0.5246760000000 1.0
C      1  0.5278630000000  0.5415970000000  0.3864160000000 1.0
C      1  0.4787930000000  0.5677700000000  0.4372810000000 1.0
C      1  0.4784930000000  0.5463120000000  0.5862040000000 1.0
C      1  0.4202940000000  0.4462030000000  0.4673080000000 1.0
C      1  0.5278150000000  0.5717640000000  0.4361810000000 1.0
C      1  0.5046920000000  0.5779920000000  0.5257700000000 1.0
C      1  0.4857140000000  0.5083940000000  0.4144710000000 1.0
C      1  0.5596500000000  0.4844790000000  0.5743650000000 1.0
C      1  0.5794910000000  0.4989870000000  0.5343560000000 1.0
C      1  0.5063200000000  0.4842650000000  0.4571840000000 1.0
C      1  0.5711560000000  0.5785800000000  0.4607560000000 1.0
C      1  0.4455920000000  0.5440000000000  0.5784780000000 1.0
C      1  0.4691740000000  0.5167670000000  0.5937040000000 1.0
C      1  0.5328870000000  0.4366010000000  0.5259920000000 1.0
C      1  0.5941220000000  0.4971390000000  0.4524630000000 1.0
C      1  0.4546810000000  0.4575080000000  0.5282130000000 1.0
C      1  0.5453390000000  0.5916600000000  0.4569870000000 1.0
C      1  0.5290020000000  0.5496460000000  0.5852630000000 1.0
C      1  0.4838340000000  0.5694570000000  0.4642470000000 1.0
C      1  0.4929690000000  0.4372310000000  0.5067190000000 1.0
C      1  0.5840930000000  0.5810440000000  0.4866510000000 1.0
C      1  0.3959220000000  0.5223650000000  0.4889780000000 1.0
C      1  0.5328490000000  0.5548280000000  0.4653850000000 1.0
C      1  0.5561770000000  0.4649580000000  0.5105530000000 1.0
C      1  0.3963320000000  0.5235350000000  0.5202620000000 1.0
C      1  0.4057980000000  0.4927240000000  0.4460920000000 1.0
C      1  0.4405090000000  0.5124480000000  0.4689470000000 1.0
C      1  0.5442180000000  0.5782090000000  0.5311860000000 1.0
C      1  0.4304160000000  0.5530570000000  0.4483520000000 1.0
C      1  0.5436890000000  0.4972900000000  0.5103830000000 1.0
C      1  0.4381590000000  0.4254670000000  0.4762720000000 1.0
C      1  0.5413580000000  0.5247340000000  0.5902730000000 1.0
C      1  0.5213900000000  0.5618040000000  0.5030570000000 1.0
C      1  0.4524710000000  0.5797250000000  0.5386620000000 1.0
C      1  0.5204510000000  0.5244570000000  0.4893440000000 1.0
C      1  0.4308570000000  0.5764720000000  0.4712630000000 1.0
C      1  0.4549260000000  0.5485600000000  0.4312900000000 1.0
C      1  0.4155080000000  0.4624980000000  0.5345590000000 1.0
C      1  0.5183190000000  0.5007780000000  0.5982000000000 1.0
C      1  0.4159300000000  0.5278480000000  0.4619830000000 1.0
C      1  0.4593710000000  0.4707210000000  0.5992770000000 1.0
C      1  0.4365850000000  0.5813990000000  0.5103670000000 1.0
C      1  0.5090510000000  0.5456930000000  0.5373890000000 1.0
C      1  0.5277220000000  0.5938710000000  0.5056200000000 1.0
C      1  0.4839040000000  0.5029040000000  0.4701950000000 1.0
C      1  0.5919100000000  0.5600970000000  0.5064620000000 1.0
C      1  0.5365860000000  0.4767310000000  0.4681710000000 1.0
C      1  0.5069450000000  0.4577490000000  0.4097180000000 1.0
C      1  0.4655750000000  0.5313960000000  0.4656750000000 1.0
C      1  0.4878510000000  0.4153250000000  0.5274470000000 1.0
C      1  0.4858790000000  0.4919240000000  0.6038890000000 1.0
C      1  0.4657370000000  0.4535200000000  0.4329580000000 1.0
C      1  0.3996690000000  0.4922200000000  0.4740660000000 1.0
C      1  0.5738560000000  0.4676010000000  0.5402470000000 1.0
C      1  0.5812760000000  0.4598410000000  0.5723960000000 1.0
C      1  0.4880670000000  0.5216150000000  0.4970170000000 1.0
C      1  0.5845010000000  0.4703050000000  0.4383210000000 1.0
C      1  0.5051530000000  0.4751970000000  0.5493930000000 1.0
C      1  0.4298500000000  0.4719130000000  0.5091250000000 1.0
C      1  0.4349620000000  0.4819380000000  0.5917070000000 1.0
C      1  0.5100600000000  0.4499100000000  0.5960010000000 1.0
C      1  0.4380940000000  0.4196270000000  0.5353600000000 1.0
C      1  0.4614050000000  0.4019330000000  0.5254550000000 1.0
C      1  0.5840370000000  0.4831800000000  0.5051730000000 1.0
C      1  0.5056050000000  0.5566910000000  0.5978540000000 1.0
C      1  0.5450890000000  0.5068680000000  0.5531350000000 1.0
C      1  0.5664350000000  0.4285220000000  0.5067350000000 1.0
C      1  0.5687310000000  0.5227330000000  0.5811580000000 1.0
C      1  0.4878870000000  0.4991430000000  0.5219040000000 1.0
C      1  0.5342240000000  0.5109920000000  0.4664830000000 1.0
C      1  0.5360500000000  0.4245050000000  0.4382500000000 1.0
C      1  0.5092520000000  0.4358220000000  0.4787670000000 1.0
C      1  0.6044530000000  0.4947550000000  0.4822360000000 1.0
C      1  0.4563410000000  0.5272110000000  0.4095460000000 1.0
C      1  0.5038990000000  0.3847910000000  0.4982380000000 1.0
C      1  0.4314990000000  0.4852910000000  0.4410430000000 1.0
C      1  0.5471900000000  0.5476920000000  0.5161330000000 1.0
C      1  0.4125860000000  0.5650360000000  0.5091650000000 1.0
C      1  0.4631580000000  0.4467480000000  0.5845090000000 1.0
C      1  0.5022430000000  0.5502240000000  0.3965640000000 1.0
C      1  0.4890800000000  0.4330930000000  0.5850060000000 1.0
C      1  0.5015470000000  0.5661430000000  0.4205640000000 1.0
C      1  0.5439760000000  0.4828180000000  0.6017030000000 1.0
C      1  0.4043120000000  0.4862920000000  0.5514760000000 1.0
C      1  0.5348490000000  0.6051320000000  0.4783690000000 1.0
C      1  0.4828270000000  0.5282100000000  0.4393280000000 1.0
C      1  0.5319730000000  0.5605160000000  0.5577540000000 1.0
C      1  0.4941360000000  0.3935760000000  0.4679890000000 1.0
C      1  0.5507060000000  0.4032050000000  0.4967900000000 1.0
C      1  0.5543520000000  0.5454130000000  0.4835110000000 1.0
C      1  0.3862080000000  0.5049270000000  0.5369760000000 1.0
C      1  0.5442420000000  0.4465890000000  0.4628810000000 1.0
C      1  0.4954810000000  0.4229050000000  0.5560140000000 1.0
C      1  0.5363630000000  0.4746050000000  0.5518790000000 1.0
C      1  0.5866240000000  0.5197210000000  0.5605170000000 1.0
C      1  0.5093820000000  0.4987330000000  0.3920090000000 1.0
C      1  0.4688090000000  0.6047770000000  0.5430220000000 1.0
C      1  0.5374920000000  0.4543650000000  0.5959680000000 1.0
C      1  0.4952930000000  0.5289960000000  0.5621640000000 1.0
C      1  0.5299590000000  0.5141040000000  0.3833920000000 1.0
C      1  0.5257460000000  0.5934300000000  0.5555090000000 1.0
C      1  0.4720930000000  0.3941550000000  0.4973920000000 1.0
C      1  0.4266820000000  0.4405480000000  0.5519800000000 1.0
C      1  0.4065610000000  0.5539100000000  0.4804470000000 1.0
C      1  0.4505330000000  0.6256850000000  0.4992950000000 1.0
C      1  0.4392730000000  0.5011060000000  0.5011520000000 1.0
C      1  0.5925040000000  0.5308490000000  0.4482300000000 1.0
C      1  0.4379940000000  0.4278560000000  0.5064210000000 1.0
C      1  0.4520730000000  0.4978080000000  0.3962270000000 1.0
C      1  0.4386930000000  0.6035770000000  0.4888020000000 1.0
C      1  0.5646360000000  0.4879610000000  0.4777280000000 1.0
C      1  0.5639620000000  0.4363080000000  0.5369880000000 1.0
C      1  0.4342840000000  0.4985730000000  0.5553990000000 1.0
C      1  0.5586590000000  0.5264070000000  0.5333260000000 1.0
C      1  0.5912720000000  0.5368480000000  0.5313030000000 1.0
C      1  0.4786030000000  0.4694520000000  0.4051860000000 1.0
C      1  0.4644470000000  0.4555960000000  0.4675260000000 1.0
C      1  0.4666280000000  0.4412070000000  0.5531150000000 1.0
C      1  0.4642000000000  0.5251930000000  0.5489020000000 1.0
C      1  0.5492640000000  0.5497570000000  0.4295010000000 1.0
C      1  0.4380190000000  0.5126250000000  0.5839730000000 1.0
C      1  0.5169990000000  0.4115840000000  0.4610940000000 1.0
C      1  0.5082160000000  0.4341240000000  0.4278130000000 1.0
C      1  0.4501080000000  0.5525390000000  0.4841560000000 1.0
END
