TITL C-2778437-8639-476 0.00104712163547845 125000 -1099.22476809201 0 0 188 (C1) n - 1
REM
REM in /home/nfs/bkarasulu/CARBON/AIRSS/Generating-Clusters/REBO/Only-C1/SD-CG/HFTN-CG
REM
REM
REM
REM
REM
REM ./C.cell (11c1c37f851c82e70ff6c80c92926a4b)
REM
REM compiler GCC version 9.2.1 20190827 (Red Hat 9.2.1-1)
REM options -cpp -mtune=generic -march=x86-64 -g -O0 -fpre-include=/usr/include/finclude/math-vector-fortran.h
REM seed -1734260637 -1168559343 -727231687 294321018 1896849208 -2104180922 -338782805 615752919 272943527 1199537716 1755515129 -845659063 -1259730395 -615722267 -1169937792 -1993517990 2005636960 -893205067 -1177082865 -598918980 -1182756241 749588873 -641336556 -344005160 -351554339 755755081 210719704 1379622852 -1111572012 2022382164 1845518045 -568390086 1967898846
REM
CELL 1.54180   50.00000   50.00000   50.00000   90.00000   90.00000   90.00000
LATT -1
SFAC C  
C      1  0.4313490000000  0.5370200000000  0.5657250000000 1.0
C      1  0.6048630000000  0.4605210000000  0.5041820000000 1.0
C      1  0.5026250000000  0.4253450000000  0.4114940000000 1.0
C      1  0.5483920000000  0.5218930000000  0.6036940000000 1.0
C      1  0.4120120000000  0.4689720000000  0.4795010000000 1.0
C      1  0.5649680000000  0.4745860000000  0.5770480000000 1.0
C      1  0.5518330000000  0.5583330000000  0.5304640000000 1.0
C      1  0.5410260000000  0.5494710000000  0.4449100000000 1.0
C      1  0.5039340000000  0.4640150000000  0.5738720000000 1.0
C      1  0.5316640000000  0.4282650000000  0.4185820000000 1.0
C      1  0.5398100000000  0.4301310000000  0.5624300000000 1.0
C      1  0.4205250000000  0.4136740000000  0.4627280000000 1.0
C      1  0.4568240000000  0.4411620000000  0.5204070000000 1.0
C      1  0.5399350000000  0.5124080000000  0.4299230000000 1.0
C      1  0.5353430000000  0.5944740000000  0.5726320000000 1.0
C      1  0.5855230000000  0.4927660000000  0.5437690000000 1.0
C      1  0.5678780000000  0.5086190000000  0.5636150000000 1.0
C      1  0.4285940000000  0.4539840000000  0.4193600000000 1.0
C      1  0.4576160000000  0.5739570000000  0.4388860000000 1.0
C      1  0.4822210000000  0.3967360000000  0.4561960000000 1.0
C      1  0.4348470000000  0.5098530000000  0.4732580000000 1.0
C      1  0.5847320000000  0.4499680000000  0.4098500000000 1.0
C      1  0.5060990000000  0.5978320000000  0.4632220000000 1.0
C      1  0.5178810000000  0.5350410000000  0.5446730000000 1.0
C      1  0.5304950000000  0.5855850000000  0.4836310000000 1.0
C      1  0.4559840000000  0.4416680000000  0.4179690000000 1.0
C      1  0.3858510000000  0.5133990000000  0.5086000000000 1.0
C      1  0.5218360000000  0.5639610000000  0.4269430000000 1.0
C      1  0.4965520000000  0.5338250000000  0.5012110000000 1.0
C      1  0.5332330000000  0.4317460000000  0.5317480000000 1.0
C      1  0.4764430000000  0.4677330000000  0.4100570000000 1.0
C      1  0.4534360000000  0.5605110000000  0.5725190000000 1.0
C      1  0.5592810000000  0.4058760000000  0.4808350000000 1.0
C      1  0.5855520000000  0.5835150000000  0.4529450000000 1.0
C      1  0.5170470000000  0.5083420000000  0.6029370000000 1.0
C      1  0.4682560000000  0.4333200000000  0.4585050000000 1.0
C      1  0.5315060000000  0.4980950000000  0.5509350000000 1.0
C      1  0.4635580000000  0.4924220000000  0.5158930000000 1.0
C      1  0.4729000000000  0.5193940000000  0.5433590000000 1.0
C      1  0.5414410000000  0.4073620000000  0.5097640000000 1.0
C      1  0.4590890000000  0.5231050000000  0.4448590000000 1.0
C      1  0.4371830000000  0.5922580000000  0.5374350000000 1.0
C      1  0.4413830000000  0.5155240000000  0.5429480000000 1.0
C      1  0.4699460000000  0.4635940000000  0.6140210000000 1.0
C      1  0.4391670000000  0.4139230000000  0.5211330000000 1.0
C      1  0.4481340000000  0.5143560000000  0.6055280000000 1.0
C      1  0.5213810000000  0.5121450000000  0.3945600000000 1.0
C      1  0.4688350000000  0.5717810000000  0.5125630000000 1.0
C      1  0.6038500000000  0.5018520000000  0.4514360000000 1.0
C      1  0.5902750000000  0.5564820000000  0.4516250000000 1.0
C      1  0.5559620000000  0.4339730000000  0.4619080000000 1.0
C      1  0.4746910000000  0.5234690000000  0.3868020000000 1.0
C      1  0.4731260000000  0.5547010000000  0.5947060000000 1.0
C      1  0.4713580000000  0.4489590000000  0.5566750000000 1.0
C      1  0.5662880000000  0.4742510000000  0.4141100000000 1.0
C      1  0.4259620000000  0.4829390000000  0.5072950000000 1.0
C      1  0.5650990000000  0.4423930000000  0.5659110000000 1.0
C      1  0.5565480000000  0.4374920000000  0.4023060000000 1.0
C      1  0.5624920000000  0.5874320000000  0.5214860000000 1.0
C      1  0.5657170000000  0.4663220000000  0.4985080000000 1.0
C      1  0.4565370000000  0.5896660000000  0.5569050000000 1.0
C      1  0.4589010000000  0.5335910000000  0.4774650000000 1.0
C      1  0.5512320000000  0.4878160000000  0.6003980000000 1.0
C      1  0.4836890000000  0.5123420000000  0.5721640000000 1.0
C      1  0.5835580000000  0.4511910000000  0.4563920000000 1.0
C      1  0.5151430000000  0.5285130000000  0.4440230000000 1.0
C      1  0.4780530000000  0.4185770000000  0.4299590000000 1.0
C      1  0.5501420000000  0.4754670000000  0.5495700000000 1.0
C      1  0.4672890000000  0.5254900000000  0.5095150000000 1.0
C      1  0.5743790000000  0.5031210000000  0.5155840000000 1.0
C      1  0.4091510000000  0.5340140000000  0.5009050000000 1.0
C      1  0.4638310000000  0.3982690000000  0.5361620000000 1.0
C      1  0.4278770000000  0.4084800000000  0.4937530000000 1.0
C      1  0.5178400000000  0.4370180000000  0.5821650000000 1.0
C      1  0.4120370000000  0.4707000000000  0.4444590000000 1.0
C      1  0.5023840000000  0.3922970000000  0.4745630000000 1.0
C      1  0.4242270000000  0.5375850000000  0.4579690000000 1.0
C      1  0.4707340000000  0.4461860000000  0.4961890000000 1.0
C      1  0.4072140000000  0.4325340000000  0.5063740000000 1.0
C      1  0.4908090000000  0.4162220000000  0.5447740000000 1.0
C      1  0.5174090000000  0.5932220000000  0.5935550000000 1.0
C      1  0.5202780000000  0.4986000000000  0.4794750000000 1.0
C      1  0.5439190000000  0.5331410000000  0.4038780000000 1.0
C      1  0.5388410000000  0.5995400000000  0.5414470000000 1.0
C      1  0.5705320000000  0.5408890000000  0.4702650000000 1.0
C      1  0.5949220000000  0.4668950000000  0.5423690000000 1.0
C      1  0.5031090000000  0.4393410000000  0.5276600000000 1.0
C      1  0.4418340000000  0.4602070000000  0.5975640000000 1.0
C      1  0.4275060000000  0.4821880000000  0.4096090000000 1.0
C      1  0.5068170000000  0.5678910000000  0.5645230000000 1.0
C      1  0.4728580000000  0.5264710000000  0.5973140000000 1.0
C      1  0.5417300000000  0.4997400000000  0.5189700000000 1.0
C      1  0.3857660000000  0.5004290000000  0.4715100000000 1.0
C      1  0.5800580000000  0.4422880000000  0.5410680000000 1.0
C      1  0.5118170000000  0.4953930000000  0.5737660000000 1.0
C      1  0.4956940000000  0.4659180000000  0.5419370000000 1.0
C      1  0.4508120000000  0.4728870000000  0.5608830000000 1.0
C      1  0.5241440000000  0.4897950000000  0.4468610000000 1.0
C      1  0.4780820000000  0.5550380000000  0.4588650000000 1.0
C      1  0.5131370000000  0.3937870000000  0.5013320000000 1.0
C      1  0.5911080000000  0.5262320000000  0.4353470000000 1.0
C      1  0.5371340000000  0.5250130000000  0.5655370000000 1.0
C      1  0.6040170000000  0.4870520000000  0.5091200000000 1.0
C      1  0.5154400000000  0.4456350000000  0.4987340000000 1.0
C      1  0.5381090000000  0.5010700000000  0.6290260000000 1.0
C      1  0.5326490000000  0.4397980000000  0.4442600000000 1.0
C      1  0.5458240000000  0.4417220000000  0.4903780000000 1.0
C      1  0.5121980000000  0.5168040000000  0.5217230000000 1.0
C      1  0.4751390000000  0.4816220000000  0.5790730000000 1.0
C      1  0.4428420000000  0.5712730000000  0.4902330000000 1.0
C      1  0.5069510000000  0.4574530000000  0.4059500000000 1.0
C      1  0.3989030000000  0.4561740000000  0.5191650000000 1.0
C      1  0.4479690000000  0.5603170000000  0.4131850000000 1.0
C      1  0.5457750000000  0.4604300000000  0.5252270000000 1.0
C      1  0.4305010000000  0.5161460000000  0.5119120000000 1.0
C      1  0.6096640000000  0.5111290000000  0.4778220000000 1.0
C      1  0.4358450000000  0.5017930000000  0.4342600000000 1.0
C      1  0.4969320000000  0.5766770000000  0.4431910000000 1.0
C      1  0.5168580000000  0.5518520000000  0.3954920000000 1.0
C      1  0.4842120000000  0.5734890000000  0.5492200000000 1.0
C      1  0.4872890000000  0.5150580000000  0.4355070000000 1.0
C      1  0.6102160000000  0.4426710000000  0.4121740000000 1.0
C      1  0.5856650000000  0.4411700000000  0.4876990000000 1.0
C      1  0.5658380000000  0.5093150000000  0.4612420000000 1.0
C      1  0.5328520000000  0.5496700000000  0.5059520000000 1.0
C      1  0.5131860000000  0.6152020000000  0.5279050000000 1.0
C      1  0.5386010000000  0.6079360000000  0.4603390000000 1.0
C      1  0.5265670000000  0.4437420000000  0.6111510000000 1.0
C      1  0.4305170000000  0.5645570000000  0.5212310000000 1.0
C      1  0.4120580000000  0.4621500000000  0.5501240000000 1.0
C      1  0.5384420000000  0.4643870000000  0.4030830000000 1.0
C      1  0.4957430000000  0.5749640000000  0.4091120000000 1.0
C      1  0.5327500000000  0.5233180000000  0.4881280000000 1.0
C      1  0.5234640000000  0.5877610000000  0.5131390000000 1.0
C      1  0.5254250000000  0.4718810000000  0.6162070000000 1.0
C      1  0.5835310000000  0.5203710000000  0.4909730000000 1.0
C      1  0.4288930000000  0.5106550000000  0.5853880000000 1.0
C      1  0.5453320000000  0.5587640000000  0.4757270000000 1.0
C      1  0.4979430000000  0.5693920000000  0.5937870000000 1.0
C      1  0.4751790000000  0.6026610000000  0.5044640000000 1.0
C      1  0.4190340000000  0.5521760000000  0.4817990000000 1.0
C      1  0.4578130000000  0.5541780000000  0.5390000000000 1.0
C      1  0.5012840000000  0.5288940000000  0.3790030000000 1.0
C      1  0.4549040000000  0.4651040000000  0.4817580000000 1.0
C      1  0.5091930000000  0.4596060000000  0.4517340000000 1.0
C      1  0.5682440000000  0.4289630000000  0.5133770000000 1.0
C      1  0.5017910000000  0.5636660000000  0.5102750000000 1.0
C      1  0.5706810000000  0.5408810000000  0.5528100000000 1.0
C      1  0.4472970000000  0.4552740000000  0.4545930000000 1.0
C      1  0.4168680000000  0.4918890000000  0.5395300000000 1.0
C      1  0.4853520000000  0.4832280000000  0.4457440000000 1.0
C      1  0.5631470000000  0.4877070000000  0.4805350000000 1.0
C      1  0.4245010000000  0.4796960000000  0.5767880000000 1.0
C      1  0.5692000000000  0.5004610000000  0.4298120000000 1.0
C      1  0.4775900000000  0.6027970000000  0.4760240000000 1.0
C      1  0.5950210000000  0.4745800000000  0.4486650000000 1.0
C      1  0.4790320000000  0.5009990000000  0.4073000000000 1.0
C      1  0.6279910000000  0.5026640000000  0.4994920000000 1.0
C      1  0.4941500000000  0.3920450000000  0.5224120000000 1.0
C      1  0.4978900000000  0.5312900000000  0.4703760000000 1.0
C      1  0.4944560000000  0.4831600000000  0.6075510000000 1.0
C      1  0.4952610000000  0.4427070000000  0.4754590000000 1.0
C      1  0.4661710000000  0.4381630000000  0.5947370000000 1.0
C      1  0.5272580000000  0.4762110000000  0.5006390000000 1.0
C      1  0.4869980000000  0.5005810000000  0.4726470000000 1.0
C      1  0.4475530000000  0.4685820000000  0.5296060000000 1.0
C      1  0.5651800000000  0.5426370000000  0.4253710000000 1.0
C      1  0.3984220000000  0.5179050000000  0.5356670000000 1.0
C      1  0.5670800000000  0.5989530000000  0.4689930000000 1.0
C      1  0.4583470000000  0.5463370000000  0.3907900000000 1.0
C      1  0.4094300000000  0.5005990000000  0.4553960000000 1.0
C      1  0.4565580000000  0.4768210000000  0.4363800000000 1.0
C      1  0.4128750000000  0.5431190000000  0.5401360000000 1.0
C      1  0.5557720000000  0.5448360000000  0.5834400000000 1.0
C      1  0.4533730000000  0.4237300000000  0.5562360000000 1.0
C      1  0.4556230000000  0.5871790000000  0.4660710000000 1.0
C      1  0.4522540000000  0.4055380000000  0.4698360000000 1.0
C      1  0.4877860000000  0.6207730000000  0.5217130000000 1.0
C      1  0.4888210000000  0.4270090000000  0.5750090000000 1.0
C      1  0.4354760000000  0.5415680000000  0.4318170000000 1.0
C      1  0.4917110000000  0.4932350000000  0.5307870000000 1.0
C      1  0.5397800000000  0.5644290000000  0.5605510000000 1.0
C      1  0.5105230000000  0.4896340000000  0.4154360000000 1.0
C      1  0.5698950000000  0.5960080000000  0.4972950000000 1.0
C      1  0.4251410000000  0.4333100000000  0.5456410000000 1.0
C      1  0.4179330000000  0.4424070000000  0.4587150000000 1.0
C      1  0.4600810000000  0.4944170000000  0.4851210000000 1.0
C      1  0.3870540000000  0.4812790000000  0.4995190000000 1.0
END
