TITL C-2778427-5640-1277 0.00013360087845285 125000 -197.786222118653 0 0 35 (C1) n - 1
REM
REM in /home/nfs/bkarasulu/CARBON/AIRSS/Generating-Clusters/REBO/Only-C1/SD-CG/HFTN-CG
REM
REM
REM
REM
REM
REM ./C.cell (11c1c37f851c82e70ff6c80c92926a4b)
REM
REM compiler GCC version 9.2.1 20190827 (Red Hat 9.2.1-1)
REM options -cpp -mtune=generic -march=x86-64 -g -O0 -fpre-include=/usr/include/finclude/math-vector-fortran.h
REM seed -496105311 -1107545691 1647684162 1176895767 -1628513478 594231779 1300975022 -393317162 1159245757 1893732923 2049433671 -1990358038 -369509717 708112333 -812421858 -1436379828 65752694 936726991 -612367774 1115091350 1492688337 -1671378652 -62232822 -4053843 831437044 -208577098 1175312512 -952753289 1888315784 -1138763962 792342876 262376423 1413856802
REM
CELL 1.54180   50.00000   50.00000   50.00000   90.00000   90.00000   90.00000
LATT -1
SFAC C  
C      1  0.5027520000000  0.4979630000000  0.5115350000000 1.0
C      1  0.4987640000000  0.5273200000000  0.4963810000000 1.0
C      1  0.5394050000000  0.4870140000000  0.4770570000000 1.0
C      1  0.4511940000000  0.5439880000000  0.5349840000000 1.0
C      1  0.5318380000000  0.4559050000000  0.5138180000000 1.0
C      1  0.4485060000000  0.4663680000000  0.5327960000000 1.0
C      1  0.5278940000000  0.4818870000000  0.5055180000000 1.0
C      1  0.4584870000000  0.4413920000000  0.5267770000000 1.0
C      1  0.5656620000000  0.5316970000000  0.4744410000000 1.0
C      1  0.5097650000000  0.4755430000000  0.4593770000000 1.0
C      1  0.4833690000000  0.4659170000000  0.4726250000000 1.0
C      1  0.4613390000000  0.5679190000000  0.4939900000000 1.0
C      1  0.4548170000000  0.5213920000000  0.4683820000000 1.0
C      1  0.5878590000000  0.5463460000000  0.4758070000000 1.0
C      1  0.5428430000000  0.5166360000000  0.4730360000000 1.0
C      1  0.6097030000000  0.5607630000000  0.4771510000000 1.0
C      1  0.5037090000000  0.5038280000000  0.5413980000000 1.0
C      1  0.5336900000000  0.4546450000000  0.4683830000000 1.0
C      1  0.4508500000000  0.5184570000000  0.5199670000000 1.0
C      1  0.5285870000000  0.4370700000000  0.4918820000000 1.0
C      1  0.5037400000000  0.4224240000000  0.4927930000000 1.0
C      1  0.5034620000000  0.5352070000000  0.5457290000000 1.0
C      1  0.4749650000000  0.5085060000000  0.4472140000000 1.0
C      1  0.5028400000000  0.5054590000000  0.4513560000000 1.0
C      1  0.4600290000000  0.4885220000000  0.4690870000000 1.0
C      1  0.4963930000000  0.5483110000000  0.5217670000000 1.0
C      1  0.4655660000000  0.5341430000000  0.4937070000000 1.0
C      1  0.4763760000000  0.4853490000000  0.4988670000000 1.0
C      1  0.5187030000000  0.5128240000000  0.5953810000000 1.0
C      1  0.5150350000000  0.5241070000000  0.4697820000000 1.0
C      1  0.4706700000000  0.5615800000000  0.5223170000000 1.0
C      1  0.4796640000000  0.4371710000000  0.4782270000000 1.0
C      1  0.4549000000000  0.4906450000000  0.5197400000000 1.0
C      1  0.5119370000000  0.5161020000000  0.5700880000000 1.0
C      1  0.4746860000000  0.4275990000000  0.5086410000000 1.0
END
