TITL C-2778428-5639-119 -0.000745019468693818 125000 -180.560703013579 0 0 33 (C1) n - 1
REM
REM in /home/nfs/bkarasulu/CARBON/AIRSS/Generating-Clusters/REBO/Only-C1/SD-CG/HFTN-CG
REM
REM
REM
REM
REM
REM ./C.cell (11c1c37f851c82e70ff6c80c92926a4b)
REM
REM compiler GCC version 9.2.1 20190827 (Red Hat 9.2.1-1)
REM options -cpp -mtune=generic -march=x86-64 -g -O0 -fpre-include=/usr/include/finclude/math-vector-fortran.h
REM seed -292058315 566074758 -1465154451 1291778505 858889265 1468443916 -728893385 676991923 1192782261 439032651 1109173222 -278745617 -1668179717 1948142849 1995223799 1973202185 924948543 -1364849169 2119053911 -735909417 1165036030 -1264546522 1370444460 -1507184854 2128834467 36779350 856448295 373497467 513915824 -1878855633 204747469 -457170850 -1389872687
REM
CELL 1.54180   50.00000   50.00000   50.00000   90.00000   90.00000   90.00000
LATT -1
SFAC C  
C      1  0.5364260000000  0.4287820000000  0.5570960000000 1.0
C      1  0.4747910000000  0.4743670000000  0.4488750000000 1.0
C      1  0.5046580000000  0.5370430000000  0.4734340000000 1.0
C      1  0.4958350000000  0.5649570000000  0.5153670000000 1.0
C      1  0.5415470000000  0.4568850000000  0.5626180000000 1.0
C      1  0.4624360000000  0.5159560000000  0.4249700000000 1.0
C      1  0.4739400000000  0.5017510000000  0.5216090000000 1.0
C      1  0.5358100000000  0.5374010000000  0.5413530000000 1.0
C      1  0.4711630000000  0.5023160000000  0.4472940000000 1.0
C      1  0.4537440000000  0.5367600000000  0.4842220000000 1.0
C      1  0.5258850000000  0.4723120000000  0.5389310000000 1.0
C      1  0.5453590000000  0.4071910000000  0.5720240000000 1.0
C      1  0.5420990000000  0.4895790000000  0.5601620000000 1.0
C      1  0.4540100000000  0.5291270000000  0.4034130000000 1.0
C      1  0.4457170000000  0.5420880000000  0.3821980000000 1.0
C      1  0.5239400000000  0.5509550000000  0.5206950000000 1.0
C      1  0.4864060000000  0.4685100000000  0.4731620000000 1.0
C      1  0.4784130000000  0.5152740000000  0.4743000000000 1.0
C      1  0.4998560000000  0.4633170000000  0.5003060000000 1.0
C      1  0.5428970000000  0.5169890000000  0.5573740000000 1.0
C      1  0.5247420000000  0.5557280000000  0.4893840000000 1.0
C      1  0.4859370000000  0.5441140000000  0.4476690000000 1.0
C      1  0.4834270000000  0.4929760000000  0.4968620000000 1.0
C      1  0.4689530000000  0.4568410000000  0.4291060000000 1.0
C      1  0.4293490000000  0.5360710000000  0.4960400000000 1.0
C      1  0.5199230000000  0.4272460000000  0.5328630000000 1.0
C      1  0.5002350000000  0.5931660000000  0.5048040000000 1.0
C      1  0.5129260000000  0.4533540000000  0.5219970000000 1.0
C      1  0.4821390000000  0.5478090000000  0.4966580000000 1.0
C      1  0.5201200000000  0.5842840000000  0.4852940000000 1.0
C      1  0.5539390000000  0.3864540000000  0.5863610000000 1.0
C      1  0.4609970000000  0.5443470000000  0.4530910000000 1.0
C      1  0.5623820000000  0.3660470000000  0.6004710000000 1.0
END
