TITL C-2778422-5617-1069 0.000612812207317514 125000 -167.189526536523 0 0 29 (C1) n - 1
REM
REM in /home/nfs/bkarasulu/CARBON/AIRSS/Generating-Clusters/REBO/Only-C1/SD-CG/HFTN-CG
REM
REM
REM
REM
REM
REM ./C.cell (11c1c37f851c82e70ff6c80c92926a4b)
REM
REM compiler GCC version 9.2.1 20190827 (Red Hat 9.2.1-1)
REM options -cpp -mtune=generic -march=x86-64 -g -O0 -fpre-include=/usr/include/finclude/math-vector-fortran.h
REM seed 659921509 1901782785 -688351138 -1027330172 -1257957793 1285099927 -1645993615 -798342619 -467563192 -526967390 2030771232 427425025 -991139108 2132493149 1778059427 -1800432957 -1004706619 -2056447787 664393264 171510100 1446916224 -2058778382 130375969 -1066774378 -802755046 -844855074 1705958001 -316413280 522546711 1350802122 406210694 -2040165497 -1099331939
REM
CELL 1.54180   50.00000   50.00000   50.00000   90.00000   90.00000   90.00000
LATT -1
SFAC C  
C      1  0.5066370000000  0.4731040000000  0.5238000000000 1.0
C      1  0.4693640000000  0.5357970000000  0.5479560000000 1.0
C      1  0.5070540000000  0.5181280000000  0.5045420000000 1.0
C      1  0.4913480000000  0.4721950000000  0.4340420000000 1.0
C      1  0.4811900000000  0.5461650000000  0.4746810000000 1.0
C      1  0.4868270000000  0.5251690000000  0.5657710000000 1.0
C      1  0.5054610000000  0.5668190000000  0.5127920000000 1.0
C      1  0.4609430000000  0.4977800000000  0.4653340000000 1.0
C      1  0.4438750000000  0.5294780000000  0.5048070000000 1.0
C      1  0.4665870000000  0.4823230000000  0.4391200000000 1.0
C      1  0.5519540000000  0.5072160000000  0.5275950000000 1.0
C      1  0.5357040000000  0.5162960000000  0.5018730000000 1.0
C      1  0.4389020000000  0.5148610000000  0.4823590000000 1.0
C      1  0.4653310000000  0.5389360000000  0.5204360000000 1.0
C      1  0.5476480000000  0.4989540000000  0.4778930000000 1.0
C      1  0.4758220000000  0.4818380000000  0.4869630000000 1.0
C      1  0.5142790000000  0.4816930000000  0.5497160000000 1.0
C      1  0.4701710000000  0.5283710000000  0.4615150000000 1.0
C      1  0.4990540000000  0.4384480000000  0.4920620000000 1.0
C      1  0.4932240000000  0.4928950000000  0.5066210000000 1.0
C      1  0.5190240000000  0.4523570000000  0.5072940000000 1.0
C      1  0.5421370000000  0.4625400000000  0.4927210000000 1.0
C      1  0.5602240000000  0.4853490000000  0.5062760000000 1.0
C      1  0.5091490000000  0.5087610000000  0.5668670000000 1.0
C      1  0.5355670000000  0.4736090000000  0.4635340000000 1.0
C      1  0.4773800000000  0.4535270000000  0.4835580000000 1.0
C      1  0.5378030000000  0.5033960000000  0.5517870000000 1.0
C      1  0.4909530000000  0.5443080000000  0.5041020000000 1.0
C      1  0.5163880000000  0.4696890000000  0.4439830000000 1.0
END
