TITL C-2778437-8639-1471 -0.000328622557193295 125000 -684.839122875489 0 0 119 (C1) n - 1
REM
REM in /home/nfs/bkarasulu/CARBON/AIRSS/Generating-Clusters/REBO/Only-C1/SD-CG/HFTN-CG
REM
REM
REM
REM
REM
REM ./C.cell (11c1c37f851c82e70ff6c80c92926a4b)
REM
REM compiler GCC version 9.2.1 20190827 (Red Hat 9.2.1-1)
REM options -cpp -mtune=generic -march=x86-64 -g -O0 -fpre-include=/usr/include/finclude/math-vector-fortran.h
REM seed -156059085 796551638 -1169982835 -950679624 1080742767 -662420930 -1998649834 1057133701 -1817074246 -2108307797 -2137937136 63186009 -1521768671 -1457492814 1339673779 351603247 -1423773584 885085371 700803086 -2028977657 -1912564508 804948076 1500379600 227154210 2039442648 -2057203126 1306160174 108634987 -265887468 -859641640 764091247 -645050698 30617547
REM
CELL 1.54180   50.00000   50.00000   50.00000   90.00000   90.00000   90.00000
LATT -1
SFAC C  
C      1  0.5366380000000  0.5205470000000  0.4120820000000 1.0
C      1  0.4935640000000  0.5318550000000  0.4549400000000 1.0
C      1  0.4569170000000  0.4843140000000  0.4598120000000 1.0
C      1  0.4750090000000  0.5076190000000  0.4578760000000 1.0
C      1  0.4526850000000  0.5613160000000  0.5705610000000 1.0
C      1  0.4902590000000  0.4474040000000  0.4861530000000 1.0
C      1  0.5520170000000  0.5622840000000  0.5360740000000 1.0
C      1  0.4156350000000  0.5393540000000  0.4930780000000 1.0
C      1  0.5329110000000  0.4115170000000  0.4822710000000 1.0
C      1  0.5645410000000  0.5600860000000  0.4711270000000 1.0
C      1  0.4431530000000  0.5667310000000  0.4398240000000 1.0
C      1  0.5464140000000  0.5842860000000  0.5128340000000 1.0
C      1  0.5630970000000  0.5800720000000  0.4897710000000 1.0
C      1  0.5495570000000  0.5175070000000  0.5481420000000 1.0
C      1  0.4943850000000  0.5793430000000  0.4886810000000 1.0
C      1  0.4567580000000  0.5332910000000  0.5896330000000 1.0
C      1  0.5259350000000  0.5546270000000  0.4903590000000 1.0
C      1  0.5533190000000  0.4263850000000  0.5414720000000 1.0
C      1  0.4939620000000  0.5441990000000  0.5339820000000 1.0
C      1  0.5179070000000  0.4457740000000  0.4960340000000 1.0
C      1  0.4488970000000  0.5267930000000  0.3911020000000 1.0
C      1  0.4942280000000  0.4482320000000  0.4320030000000 1.0
C      1  0.4930910000000  0.4110900000000  0.5226440000000 1.0
C      1  0.4786950000000  0.4775310000000  0.4832050000000 1.0
C      1  0.5307880000000  0.5251640000000  0.5723720000000 1.0
C      1  0.5057960000000  0.4053320000000  0.4638460000000 1.0
C      1  0.4912480000000  0.5780990000000  0.5390750000000 1.0
C      1  0.5177770000000  0.5848110000000  0.5057550000000 1.0
C      1  0.4253280000000  0.5468990000000  0.4611900000000 1.0
C      1  0.4886580000000  0.5118770000000  0.5247030000000 1.0
C      1  0.5011690000000  0.5695890000000  0.4628700000000 1.0
C      1  0.4146420000000  0.5094690000000  0.5095090000000 1.0
C      1  0.4304510000000  0.4621110000000  0.4842780000000 1.0
C      1  0.5586090000000  0.5135330000000  0.4984900000000 1.0
C      1  0.4641510000000  0.4906940000000  0.5111440000000 1.0
C      1  0.4652500000000  0.4358560000000  0.4451740000000 1.0
C      1  0.4859870000000  0.5236240000000  0.5860080000000 1.0
C      1  0.4614840000000  0.5686920000000  0.5392390000000 1.0
C      1  0.4855300000000  0.4970030000000  0.4115770000000 1.0
C      1  0.5121930000000  0.5030060000000  0.4199780000000 1.0
C      1  0.5664630000000  0.4672560000000  0.5043630000000 1.0
C      1  0.4177210000000  0.4836920000000  0.5324830000000 1.0
C      1  0.4583580000000  0.5455260000000  0.5167500000000 1.0
C      1  0.4679370000000  0.5287730000000  0.4911860000000 1.0
C      1  0.5866320000000  0.4952270000000  0.5039480000000 1.0
C      1  0.4840490000000  0.5496150000000  0.5661040000000 1.0
C      1  0.5110100000000  0.5109110000000  0.5020890000000 1.0
C      1  0.4799920000000  0.4694110000000  0.4108280000000 1.0
C      1  0.5604460000000  0.5105240000000  0.4236800000000 1.0
C      1  0.5286290000000  0.4294800000000  0.5209520000000 1.0
C      1  0.4803620000000  0.4220580000000  0.4703820000000 1.0
C      1  0.4635480000000  0.5227330000000  0.4151330000000 1.0
C      1  0.5790180000000  0.4556420000000  0.5330260000000 1.0
C      1  0.4689130000000  0.5741660000000  0.5004280000000 1.0
C      1  0.4842820000000  0.4684920000000  0.5275840000000 1.0
C      1  0.4561850000000  0.4565880000000  0.4232730000000 1.0
C      1  0.4374350000000  0.5139530000000  0.4862180000000 1.0
C      1  0.4219740000000  0.5612760000000  0.5144140000000 1.0
C      1  0.4414730000000  0.4761890000000  0.4374440000000 1.0
C      1  0.5030350000000  0.4250650000000  0.5512180000000 1.0
C      1  0.5104960000000  0.4182910000000  0.4360490000000 1.0
C      1  0.4698330000000  0.4216750000000  0.5455010000000 1.0
C      1  0.5211910000000  0.4495550000000  0.5469970000000 1.0
C      1  0.6006450000000  0.5250220000000  0.4954630000000 1.0
C      1  0.4651950000000  0.4487280000000  0.5071860000000 1.0
C      1  0.4950260000000  0.4923310000000  0.5490680000000 1.0
C      1  0.4502990000000  0.4415650000000  0.5332850000000 1.0
C      1  0.5341370000000  0.5532060000000  0.5594280000000 1.0
C      1  0.5548450000000  0.4284180000000  0.4833060000000 1.0
C      1  0.5796920000000  0.4768720000000  0.5512120000000 1.0
C      1  0.4493960000000  0.5173900000000  0.5276440000000 1.0
C      1  0.4447950000000  0.5267890000000  0.4400520000000 1.0
C      1  0.4648860000000  0.5072020000000  0.5563090000000 1.0
C      1  0.5751670000000  0.4743770000000  0.4600110000000 1.0
C      1  0.5324870000000  0.4377770000000  0.4349140000000 1.0
C      1  0.5188110000000  0.5419250000000  0.4256420000000 1.0
C      1  0.4522410000000  0.4408960000000  0.4763980000000 1.0
C      1  0.5359190000000  0.4799110000000  0.4638210000000 1.0
C      1  0.4312480000000  0.5528170000000  0.5451130000000 1.0
C      1  0.5969120000000  0.4809520000000  0.4758490000000 1.0
C      1  0.4397610000000  0.5801940000000  0.5042130000000 1.0
C      1  0.5285950000000  0.5504060000000  0.4567190000000 1.0
C      1  0.5857530000000  0.5465330000000  0.5036950000000 1.0
C      1  0.4984170000000  0.5413080000000  0.5003850000000 1.0
C      1  0.5135410000000  0.5091430000000  0.4485050000000 1.0
C      1  0.4372200000000  0.5253730000000  0.5646190000000 1.0
C      1  0.5628600000000  0.4487470000000  0.4644590000000 1.0
C      1  0.5801570000000  0.5487360000000  0.5330940000000 1.0
C      1  0.4814910000000  0.4645290000000  0.5782930000000 1.0
C      1  0.4819590000000  0.4359140000000  0.5739960000000 1.0
C      1  0.4246720000000  0.5072540000000  0.4563950000000 1.0
C      1  0.4360520000000  0.4757950000000  0.5083550000000 1.0
C      1  0.5525890000000  0.4360430000000  0.5673030000000 1.0
C      1  0.5049480000000  0.4065550000000  0.4983370000000 1.0
C      1  0.4181260000000  0.5152100000000  0.5415360000000 1.0
C      1  0.5574540000000  0.5014740000000  0.4532990000000 1.0
C      1  0.4760520000000  0.5600830000000  0.4466950000000 1.0
C      1  0.5217450000000  0.4645050000000  0.4445500000000 1.0
C      1  0.5105380000000  0.5678200000000  0.5616250000000 1.0
C      1  0.5782120000000  0.5235510000000  0.5453870000000 1.0
C      1  0.5266200000000  0.4930730000000  0.5489610000000 1.0
C      1  0.5164580000000  0.4674740000000  0.5202240000000 1.0
C      1  0.5525740000000  0.5293280000000  0.4692370000000 1.0
C      1  0.5513160000000  0.5453940000000  0.5058210000000 1.0
C      1  0.5359300000000  0.5068010000000  0.5190330000000 1.0
C      1  0.4925700000000  0.5404400000000  0.4161260000000 1.0
C      1  0.5549650000000  0.4815930000000  0.5644460000000 1.0
C      1  0.4405400000000  0.4647470000000  0.5474620000000 1.0
C      1  0.4601970000000  0.4774280000000  0.5640760000000 1.0
C      1  0.5072430000000  0.4785560000000  0.5843390000000 1.0
C      1  0.4112020000000  0.4839900000000  0.4353560000000 1.0
C      1  0.5027900000000  0.4976730000000  0.4771360000000 1.0
C      1  0.5670320000000  0.4336830000000  0.5113200000000 1.0
C      1  0.5905130000000  0.4996130000000  0.5370700000000 1.0
C      1  0.5376810000000  0.4716610000000  0.4935680000000 1.0
C      1  0.5314060000000  0.4621100000000  0.5736920000000 1.0
C      1  0.5096350000000  0.5084840000000  0.5834260000000 1.0
C      1  0.4574070000000  0.5423050000000  0.4668380000000 1.0
C      1  0.4144640000000  0.4762830000000  0.4667870000000 1.0
END
