TITL C-2778434-4341-331 0.0020304131922272 125000 -319.54918878983 0 0 54 (C1) n - 1
REM
REM in /home/nfs/bkarasulu/CARBON/AIRSS/Generating-Clusters/REBO/Only-C1/SD-CG/HFTN-CG
REM
REM
REM
REM
REM
REM ./C.cell (11c1c37f851c82e70ff6c80c92926a4b)
REM
REM compiler GCC version 9.2.1 20190827 (Red Hat 9.2.1-1)
REM options -cpp -mtune=generic -march=x86-64 -g -O0 -fpre-include=/usr/include/finclude/math-vector-fortran.h
REM seed -1109343724 -746273198 -1890512001 20767112 2131533375 -1693992793 -21763051 -322525012 982397725 -1889347238 791949707 -285888573 -720877621 1057839307 -1982108709 405631600 -882296034 916779419 1772688409 -805243658 -794095939 145888921 837869030 -585159681 1071075622 -1806186709 -1091224429 483141518 1595850829 209472865 -149532499 -1036129163 1055258779
REM
CELL 1.54180   50.00000   50.00000   50.00000   90.00000   90.00000   90.00000
LATT -1
SFAC C  
C      1  0.5463770000000  0.5464850000000  0.5486050000000 1.0
C      1  0.5169160000000  0.4913750000000  0.5571930000000 1.0
C      1  0.5360660000000  0.4438100000000  0.4732370000000 1.0
C      1  0.4315940000000  0.4897090000000  0.4904590000000 1.0
C      1  0.4945550000000  0.4742780000000  0.5584820000000 1.0
C      1  0.5548490000000  0.5196300000000  0.5437190000000 1.0
C      1  0.4490590000000  0.4671600000000  0.5350130000000 1.0
C      1  0.4800290000000  0.5131140000000  0.4375520000000 1.0
C      1  0.4887220000000  0.5518300000000  0.4625280000000 1.0
C      1  0.5331560000000  0.5014120000000  0.5364480000000 1.0
C      1  0.5517200000000  0.4661540000000  0.4670030000000 1.0
C      1  0.4736360000000  0.5189780000000  0.5040990000000 1.0
C      1  0.4971580000000  0.5703900000000  0.5305360000000 1.0
C      1  0.4334210000000  0.4899790000000  0.5190880000000 1.0
C      1  0.4694540000000  0.4851230000000  0.5509010000000 1.0
C      1  0.5801660000000  0.5070580000000  0.5410570000000 1.0
C      1  0.5136240000000  0.5033240000000  0.4775880000000 1.0
C      1  0.5232120000000  0.5008320000000  0.5103220000000 1.0
C      1  0.4502960000000  0.4702060000000  0.4787570000000 1.0
C      1  0.4478810000000  0.5130590000000  0.4487960000000 1.0
C      1  0.5577740000000  0.5190110000000  0.4630000000000 1.0
C      1  0.5007840000000  0.4467860000000  0.5522880000000 1.0
C      1  0.5434740000000  0.4451690000000  0.5261670000000 1.0
C      1  0.4688420000000  0.4540090000000  0.4925500000000 1.0
C      1  0.5579710000000  0.4920980000000  0.4633930000000 1.0
C      1  0.5021750000000  0.4207310000000  0.5120220000000 1.0
C      1  0.4759110000000  0.5540080000000  0.5416290000000 1.0
C      1  0.5037490000000  0.5699290000000  0.4790920000000 1.0
C      1  0.5825820000000  0.4810250000000  0.5326880000000 1.0
C      1  0.4604210000000  0.5434690000000  0.5209450000000 1.0
C      1  0.5120130000000  0.4750280000000  0.4667180000000 1.0
C      1  0.4608390000000  0.5553560000000  0.4674740000000 1.0
C      1  0.4356940000000  0.5425950000000  0.4829240000000 1.0
C      1  0.5033000000000  0.5242220000000  0.5019270000000 1.0
C      1  0.4289310000000  0.5155390000000  0.4754840000000 1.0
C      1  0.4848530000000  0.4835530000000  0.4300800000000 1.0
C      1  0.5290120000000  0.4413520000000  0.5505570000000 1.0
C      1  0.4673300000000  0.5060380000000  0.4763300000000 1.0
C      1  0.4853480000000  0.4332520000000  0.5317100000000 1.0
C      1  0.5674510000000  0.4594130000000  0.5265220000000 1.0
C      1  0.4554230000000  0.5659820000000  0.4985060000000 1.0
C      1  0.5089260000000  0.4726140000000  0.4395700000000 1.0
C      1  0.5210000000000  0.5480610000000  0.5075300000000 1.0
C      1  0.4587300000000  0.5052340000000  0.5293110000000 1.0
C      1  0.5326610000000  0.5606810000000  0.4828110000000 1.0
C      1  0.5256230000000  0.5596720000000  0.5345940000000 1.0
C      1  0.4608320000000  0.4819240000000  0.4523750000000 1.0
C      1  0.4633350000000  0.4472500000000  0.5197630000000 1.0
C      1  0.5503450000000  0.5445370000000  0.4680690000000 1.0
C      1  0.4875890000000  0.5764870000000  0.5028960000000 1.0
C      1  0.5267320000000  0.4383050000000  0.5024040000000 1.0
C      1  0.4975920000000  0.5250580000000  0.4567310000000 1.0
C      1  0.4984810000000  0.4512290000000  0.4842480000000 1.0
C      1  0.5123860000000  0.4364760000000  0.4563100000000 1.0
END
