TITL C-2778428-5639-46 0.00227963770067716 125000 -302.42842213194 0 0 54 (C1) n - 1
REM
REM in /home/nfs/bkarasulu/CARBON/AIRSS/Generating-Clusters/REBO/Only-C1/SD-CG/HFTN-CG
REM
REM
REM
REM
REM
REM ./C.cell (11c1c37f851c82e70ff6c80c92926a4b)
REM
REM compiler GCC version 9.2.1 20190827 (Red Hat 9.2.1-1)
REM options -cpp -mtune=generic -march=x86-64 -g -O0 -fpre-include=/usr/include/finclude/math-vector-fortran.h
REM seed 2146152363 1322545492 1767499797 1269193831 241060132 1432415214 -1336107625 -1695218322 1175755921 87716256 1297400183 -353700933 1198292126 1500582321 -786467354 556294677 877171985 605052642 249904521 -1171900491 1800592455 -1868642989 2021274415 1896422658 -850241627 -1154898296 -1557119856 -1116552905 1476937948 -1920292458 -328791599 2046913727 -1921454382
REM
CELL 1.54180   50.00000   50.00000   50.00000   90.00000   90.00000   90.00000
LATT -1
SFAC C  
C      1  0.5132990000000  0.4811020000000  0.5553560000000 1.0
C      1  0.5522260000000  0.5416530000000  0.4484380000000 1.0
C      1  0.4579800000000  0.5180880000000  0.5620720000000 1.0
C      1  0.4866010000000  0.4486690000000  0.5301710000000 1.0
C      1  0.5210090000000  0.4736060000000  0.4423240000000 1.0
C      1  0.4461220000000  0.5165830000000  0.5361490000000 1.0
C      1  0.5341820000000  0.4834340000000  0.4948440000000 1.0
C      1  0.5284220000000  0.4972290000000  0.4315310000000 1.0
C      1  0.4993560000000  0.4939790000000  0.5764650000000 1.0
C      1  0.4231180000000  0.4893750000000  0.4739950000000 1.0
C      1  0.4988670000000  0.5489350000000  0.5155080000000 1.0
C      1  0.5409250000000  0.4130260000000  0.5136500000000 1.0
C      1  0.5048570000000  0.4539710000000  0.5513810000000 1.0
C      1  0.5505420000000  0.4341740000000  0.4991600000000 1.0
C      1  0.4623000000000  0.5152250000000  0.4913930000000 1.0
C      1  0.4889070000000  0.5543390000000  0.4528120000000 1.0
C      1  0.4939400000000  0.5618820000000  0.4789350000000 1.0
C      1  0.4419450000000  0.4813090000000  0.4971640000000 1.0
C      1  0.4726220000000  0.5654790000000  0.5034100000000 1.0
C      1  0.4314030000000  0.4833860000000  0.4471890000000 1.0
C      1  0.5482410000000  0.5069420000000  0.5151040000000 1.0
C      1  0.4374720000000  0.4930290000000  0.5228020000000 1.0
C      1  0.5140430000000  0.4098830000000  0.5189070000000 1.0
C      1  0.5019360000000  0.5305870000000  0.4461420000000 1.0
C      1  0.4732750000000  0.5013840000000  0.5815450000000 1.0
C      1  0.5218360000000  0.4940040000000  0.5310510000000 1.0
C      1  0.4745720000000  0.4774640000000  0.4885260000000 1.0
C      1  0.4958930000000  0.5478980000000  0.5782190000000 1.0
C      1  0.4715470000000  0.4712390000000  0.5218340000000 1.0
C      1  0.5657090000000  0.5372960000000  0.4757520000000 1.0
C      1  0.4392330000000  0.5601310000000  0.4997970000000 1.0
C      1  0.5397730000000  0.5220030000000  0.4334350000000 1.0
C      1  0.5192620000000  0.5427130000000  0.4916000000000 1.0
C      1  0.4221390000000  0.5442990000000  0.4845780000000 1.0
C      1  0.4923380000000  0.5274960000000  0.5326300000000 1.0
C      1  0.4842000000000  0.5327070000000  0.5592200000000 1.0
C      1  0.5652840000000  0.5084760000000  0.4663680000000 1.0
C      1  0.5480220000000  0.5367080000000  0.5023550000000 1.0
C      1  0.4575150000000  0.5375270000000  0.5158240000000 1.0
C      1  0.4949380000000  0.4351400000000  0.4827670000000 1.0
C      1  0.5975040000000  0.4936070000000  0.5380160000000 1.0
C      1  0.4576450000000  0.4911060000000  0.4420370000000 1.0
C      1  0.5750320000000  0.4996900000000  0.5275640000000 1.0
C      1  0.4948220000000  0.4293070000000  0.5103780000000 1.0
C      1  0.5186650000000  0.4507740000000  0.4632310000000 1.0
C      1  0.5040130000000  0.4851140000000  0.5039780000000 1.0
C      1  0.4796190000000  0.5042450000000  0.5174810000000 1.0
C      1  0.4997700000000  0.4241350000000  0.4536870000000 1.0
C      1  0.4310520000000  0.5172060000000  0.4829320000000 1.0
C      1  0.5395310000000  0.4549250000000  0.4861230000000 1.0
C      1  0.5574770000000  0.5574840000000  0.5227930000000 1.0
C      1  0.5380120000000  0.5005420000000  0.4701640000000 1.0
C      1  0.4724020000000  0.4983740000000  0.4638780000000 1.0
C      1  0.5186050000000  0.5211250000000  0.4673350000000 1.0
END
