TITL C-2778429-3646-146 -0.00225105426593821 125000 -108.541774055974 0 0 20 (Cs) n - 1
REM
REM in /home/nfs/bkarasulu/CARBON/AIRSS/Generating-Clusters/REBO/Only-C1/SD-CG/HFTN-CG
REM
REM
REM
REM
REM
REM ./C.cell (11c1c37f851c82e70ff6c80c92926a4b)
REM
REM compiler GCC version 9.2.1 20190827 (Red Hat 9.2.1-1)
REM options -cpp -mtune=generic -march=x86-64 -g -O0 -fpre-include=/usr/include/finclude/math-vector-fortran.h
REM seed -266227819 1977079754 -1931063838 -410479256 -282450615 -189484396 1136693511 978709755 -1946319829 -572436120 133025533 857464364 486259653 927742105 -2016782035 -651077140 719478189 1627489088 -1719833576 1805080345 385957064 675098716 123889086 -1204938414 -1173498460 873788289 -399721080 1153895326 -1793509526 -1036974256 -1298475927 289212084 1696743100
REM
CELL 1.54180   50.00000   50.00000   50.00000   90.00000   90.00000   90.00000
LATT -1
SFAC C  
C      1  0.5105850000000  0.5085290000000  0.5304550000000 1.0
C      1  0.5299800000000  0.4644570000000  0.5330050000000 1.0
C      1  0.4750200000000  0.5271610000000  0.4703100000000 1.0
C      1  0.4352910000000  0.6260130000000  0.4727400000000 1.0
C      1  0.4913780000000  0.5034050000000  0.4844270000000 1.0
C      1  0.5170960000000  0.4671660000000  0.5076110000000 1.0
C      1  0.4649180000000  0.5522950000000  0.4709280000000 1.0
C      1  0.5158480000000  0.4478770000000  0.4877090000000 1.0
C      1  0.5257750000000  0.4917680000000  0.5482900000000 1.0
C      1  0.5134700000000  0.4111400000000  0.4498070000000 1.0
C      1  0.4793930000000  0.4992720000000  0.4548710000000 1.0
C      1  0.5405430000000  0.4860180000000  0.5750390000000 1.0
C      1  0.4450620000000  0.6017020000000  0.4721430000000 1.0
C      1  0.5146490000000  0.4293610000000  0.4686060000000 1.0
C      1  0.5053190000000  0.4937350000000  0.5058930000000 1.0
C      1  0.4549900000000  0.5769990000000  0.4715350000000 1.0
C      1  0.5576880000000  0.4364820000000  0.5678550000000 1.0
C      1  0.5024520000000  0.5338450000000  0.5354850000000 1.0
C      1  0.5447560000000  0.4586590000000  0.5597260000000 1.0
C      1  0.4757860000000  0.4841160000000  0.4335650000000 1.0
END
