TITL C-2778423-5760-665 -0.00144527162296401 125000 -796.968793097146 0 0 137 (C1) n - 1
REM
REM in /home/nfs/bkarasulu/CARBON/AIRSS/Generating-Clusters/REBO/Only-C1/SD-CG/HFTN-CG
REM
REM
REM
REM
REM
REM ./C.cell (11c1c37f851c82e70ff6c80c92926a4b)
REM
REM compiler GCC version 9.2.1 20190827 (Red Hat 9.2.1-1)
REM options -cpp -mtune=generic -march=x86-64 -g -O0 -fpre-include=/usr/include/finclude/math-vector-fortran.h
REM seed -1972790898 -1277532517 -265246660 307580351 1932061675 1160799985 -2131443947 1820431561 531875064 -399702288 2094299020 384232107 -1320857781 -77108932 -501970770 -1600628644 1381430790 -1849027548 284357214 -535337469 57727844 562102901 -1403812370 -254624256 -139856330 -1586385691 344573634 752513590 -1135033281 510485071 -309276905 -1928257536 -1428386345
REM
CELL 1.54180   50.00000   50.00000   50.00000   90.00000   90.00000   90.00000
LATT -1
SFAC C  
C      1  0.4868190000000  0.4773570000000  0.6091450000000 1.0
C      1  0.5391530000000  0.5776870000000  0.4704360000000 1.0
C      1  0.5207110000000  0.4397210000000  0.5959460000000 1.0
C      1  0.4785830000000  0.5439120000000  0.4845000000000 1.0
C      1  0.4409860000000  0.5174790000000  0.5207960000000 1.0
C      1  0.5726980000000  0.4127180000000  0.4819150000000 1.0
C      1  0.4406300000000  0.4603800000000  0.5756550000000 1.0
C      1  0.5100060000000  0.4729450000000  0.6153170000000 1.0
C      1  0.4377390000000  0.4636050000000  0.4480630000000 1.0
C      1  0.4906750000000  0.5743760000000  0.4466890000000 1.0
C      1  0.5536600000000  0.4521110000000  0.6334320000000 1.0
C      1  0.4779260000000  0.4811840000000  0.4778470000000 1.0
C      1  0.4980950000000  0.4168040000000  0.5001470000000 1.0
C      1  0.4145970000000  0.5349000000000  0.5318140000000 1.0
C      1  0.4623710000000  0.4781290000000  0.5866870000000 1.0
C      1  0.5468820000000  0.5747360000000  0.5522030000000 1.0
C      1  0.5650130000000  0.5680300000000  0.5179790000000 1.0
C      1  0.5197650000000  0.5660880000000  0.4465990000000 1.0
C      1  0.5342710000000  0.5695000000000  0.5772730000000 1.0
C      1  0.4148140000000  0.4820650000000  0.4655420000000 1.0
C      1  0.5691200000000  0.4677750000000  0.4323480000000 1.0
C      1  0.5868260000000  0.4550250000000  0.5047090000000 1.0
C      1  0.4703140000000  0.5865690000000  0.4672460000000 1.0
C      1  0.4842920000000  0.4473430000000  0.4018440000000 1.0
C      1  0.4666840000000  0.4460570000000  0.5118230000000 1.0
C      1  0.5094430000000  0.5160650000000  0.4809370000000 1.0
C      1  0.4834700000000  0.4409050000000  0.5565420000000 1.0
C      1  0.4972510000000  0.5616690000000  0.5051850000000 1.0
C      1  0.5067730000000  0.4190460000000  0.4311650000000 1.0
C      1  0.4908950000000  0.4588340000000  0.4605550000000 1.0
C      1  0.4774720000000  0.4120140000000  0.4574430000000 1.0
C      1  0.4847500000000  0.5599510000000  0.5708420000000 1.0
C      1  0.4412080000000  0.5685190000000  0.4695990000000 1.0
C      1  0.5021540000000  0.4329590000000  0.5815670000000 1.0
C      1  0.4531880000000  0.5158680000000  0.4715740000000 1.0
C      1  0.4762720000000  0.5478900000000  0.4541970000000 1.0
C      1  0.5238110000000  0.3927410000000  0.4678300000000 1.0
C      1  0.4689700000000  0.5579800000000  0.5341720000000 1.0
C      1  0.4977910000000  0.4028610000000  0.4737610000000 1.0
C      1  0.5282170000000  0.4772040000000  0.3913050000000 1.0
C      1  0.5459320000000  0.4100190000000  0.4718960000000 1.0
C      1  0.5727010000000  0.5115970000000  0.5203780000000 1.0
C      1  0.4574470000000  0.5586880000000  0.5047200000000 1.0
C      1  0.5117710000000  0.4868070000000  0.5527230000000 1.0
C      1  0.5246260000000  0.4878250000000  0.4750460000000 1.0
C      1  0.4396270000000  0.4881270000000  0.5470070000000 1.0
C      1  0.4409090000000  0.4966970000000  0.4487920000000 1.0
C      1  0.4582330000000  0.5073300000000  0.4244480000000 1.0
C      1  0.4069950000000  0.4707190000000  0.4951910000000 1.0
C      1  0.5057930000000  0.5359510000000  0.4101080000000 1.0
C      1  0.4994810000000  0.5749940000000  0.5583290000000 1.0
C      1  0.5524220000000  0.5414700000000  0.4214900000000 1.0
C      1  0.4276170000000  0.5173030000000  0.5888910000000 1.0
C      1  0.4328610000000  0.5021630000000  0.4945010000000 1.0
C      1  0.4930960000000  0.4473900000000  0.4926620000000 1.0
C      1  0.5348020000000  0.4726010000000  0.5114800000000 1.0
C      1  0.4285040000000  0.4415380000000  0.5313420000000 1.0
C      1  0.5563500000000  0.4786650000000  0.5915200000000 1.0
C      1  0.5163010000000  0.4528500000000  0.4121400000000 1.0
C      1  0.5882180000000  0.4888040000000  0.4301000000000 1.0
C      1  0.4632180000000  0.5122330000000  0.5461890000000 1.0
C      1  0.4137280000000  0.5162390000000  0.4694430000000 1.0
C      1  0.5398670000000  0.4610840000000  0.6108450000000 1.0
C      1  0.5118460000000  0.4378470000000  0.4489130000000 1.0
C      1  0.4691810000000  0.5208160000000  0.5076130000000 1.0
C      1  0.4382070000000  0.5411190000000  0.4888180000000 1.0
C      1  0.5482750000000  0.5435780000000  0.5903400000000 1.0
C      1  0.4499170000000  0.4195010000000  0.5060750000000 1.0
C      1  0.5237230000000  0.5935770000000  0.4942880000000 1.0
C      1  0.5218300000000  0.4580360000000  0.4857790000000 1.0
C      1  0.5611040000000  0.5272000000000  0.5664560000000 1.0
C      1  0.5988470000000  0.4829410000000  0.5121390000000 1.0
C      1  0.4873110000000  0.5216270000000  0.4349170000000 1.0
C      1  0.4654940000000  0.5365160000000  0.5698430000000 1.0
C      1  0.4523910000000  0.4413980000000  0.5534370000000 1.0
C      1  0.4505640000000  0.5368670000000  0.4377130000000 1.0
C      1  0.4428040000000  0.4413190000000  0.4807130000000 1.0
C      1  0.4161320000000  0.4573830000000  0.5558180000000 1.0
C      1  0.5658400000000  0.5619840000000  0.4852390000000 1.0
C      1  0.4908020000000  0.4695000000000  0.5701630000000 1.0
C      1  0.5247530000000  0.5404650000000  0.4688020000000 1.0
C      1  0.5644730000000  0.4970310000000  0.5776250000000 1.0
C      1  0.5351290000000  0.5553150000000  0.4951250000000 1.0
C      1  0.4523080000000  0.5889640000000  0.4955220000000 1.0
C      1  0.5426050000000  0.5238070000000  0.5312640000000 1.0
C      1  0.5365820000000  0.5041080000000  0.5074700000000 1.0
C      1  0.5713230000000  0.5295090000000  0.4048480000000 1.0
C      1  0.5645820000000  0.4560200000000  0.4609960000000 1.0
C      1  0.5380560000000  0.5881620000000  0.5234260000000 1.0
C      1  0.4740980000000  0.5898800000000  0.5220460000000 1.0
C      1  0.4836010000000  0.5090020000000  0.4659290000000 1.0
C      1  0.4060430000000  0.4839620000000  0.5437070000000 1.0
C      1  0.4940600000000  0.4786470000000  0.3916690000000 1.0
C      1  0.4219430000000  0.4479960000000  0.5040290000000 1.0
C      1  0.5354710000000  0.5006710000000  0.4465750000000 1.0
C      1  0.3958210000000  0.4854470000000  0.5169960000000 1.0
C      1  0.4416580000000  0.5456380000000  0.5489070000000 1.0
C      1  0.4850320000000  0.5022550000000  0.5779680000000 1.0
C      1  0.5242540000000  0.5487340000000  0.5226070000000 1.0
C      1  0.5111570000000  0.4981650000000  0.4293700000000 1.0
C      1  0.5266100000000  0.5536180000000  0.4195270000000 1.0
C      1  0.5067260000000  0.5839750000000  0.5291320000000 1.0
C      1  0.6014250000000  0.5106640000000  0.5015340000000 1.0
C      1  0.5810590000000  0.4402860000000  0.4821690000000 1.0
C      1  0.5167500000000  0.5434560000000  0.5878420000000 1.0
C      1  0.5129640000000  0.5067400000000  0.3964970000000 1.0
C      1  0.4826290000000  0.4820250000000  0.5093420000000 1.0
C      1  0.5380510000000  0.4390630000000  0.4655410000000 1.0
C      1  0.4595370000000  0.4517050000000  0.4247420000000 1.0
C      1  0.5014890000000  0.5184470000000  0.5109940000000 1.0
C      1  0.5856810000000  0.5064780000000  0.4079690000000 1.0
C      1  0.4918080000000  0.5924570000000  0.4929590000000 1.0
C      1  0.4888810000000  0.5001780000000  0.5355220000000 1.0
C      1  0.5033570000000  0.5240950000000  0.5667750000000 1.0
C      1  0.4503520000000  0.5273950000000  0.5955050000000 1.0
C      1  0.5324960000000  0.5105770000000  0.5578860000000 1.0
C      1  0.5669440000000  0.5517090000000  0.5458170000000 1.0
C      1  0.5653230000000  0.4780820000000  0.5177650000000 1.0
C      1  0.4488300000000  0.4737040000000  0.4896840000000 1.0
C      1  0.5987110000000  0.5178650000000  0.4742140000000 1.0
C      1  0.6018870000000  0.4994180000000  0.4528430000000 1.0
C      1  0.4992500000000  0.4338890000000  0.5298060000000 1.0
C      1  0.4127370000000  0.5386630000000  0.5022580000000 1.0
C      1  0.5726450000000  0.5358000000000  0.4710870000000 1.0
C      1  0.4756420000000  0.4096470000000  0.5224940000000 1.0
C      1  0.4252570000000  0.5431150000000  0.4520440000000 1.0
C      1  0.5622640000000  0.5091190000000  0.4876850000000 1.0
C      1  0.5572350000000  0.4856350000000  0.4670150000000 1.0
C      1  0.4559880000000  0.4347840000000  0.4532830000000 1.0
C      1  0.4966790000000  0.4704420000000  0.4315930000000 1.0
C      1  0.4530020000000  0.4732910000000  0.5236840000000 1.0
C      1  0.4251370000000  0.5161730000000  0.5577510000000 1.0
C      1  0.5075190000000  0.4661370000000  0.5259510000000 1.0
C      1  0.4954000000000  0.5393810000000  0.5381060000000 1.0
C      1  0.5482420000000  0.4638970000000  0.4145520000000 1.0
C      1  0.5497090000000  0.5291760000000  0.4494240000000 1.0
C      1  0.4697720000000  0.4818300000000  0.4139910000000 1.0
END
