TITL C-2778423-5760-563 -0.00335198056436063 125000 -678.900352442706 0 0 118 (C1) n - 1
REM
REM in /home/nfs/bkarasulu/CARBON/AIRSS/Generating-Clusters/REBO/Only-C1/SD-CG/HFTN-CG
REM
REM
REM
REM
REM
REM ./C.cell (11c1c37f851c82e70ff6c80c92926a4b)
REM
REM compiler GCC version 9.2.1 20190827 (Red Hat 9.2.1-1)
REM options -cpp -mtune=generic -march=x86-64 -g -O0 -fpre-include=/usr/include/finclude/math-vector-fortran.h
REM seed -872352966 -1182136094 -842423647 -1356384816 -2137797348 1875602965 -714706785 -1717445757 -545411626 1908657700 2033073196 -783863589 -434870648 1387037312 -1942553907 2142000694 -818854797 1394550756 -440422107 -2113221166 -572054360 864468227 -1736004853 1627818716 -803749944 802574846 1949877647 -482523288 -132404190 -1016010022 947701558 -225773449 1303690562
REM
CELL 1.54180   50.00000   50.00000   50.00000   90.00000   90.00000   90.00000
LATT -1
SFAC C  
C      1  0.5656970000000  0.5655460000000  0.4684800000000 1.0
C      1  0.5529970000000  0.5287530000000  0.4769260000000 1.0
C      1  0.5461160000000  0.4426530000000  0.5378280000000 1.0
C      1  0.4617060000000  0.5238870000000  0.5487690000000 1.0
C      1  0.4776530000000  0.6038870000000  0.4810440000000 1.0
C      1  0.5355320000000  0.4857420000000  0.4459570000000 1.0
C      1  0.5456670000000  0.5393550000000  0.5700700000000 1.0
C      1  0.4871740000000  0.5171950000000  0.5009610000000 1.0
C      1  0.5914060000000  0.4748320000000  0.4911830000000 1.0
C      1  0.5786860000000  0.4841470000000  0.5425340000000 1.0
C      1  0.4342400000000  0.5347950000000  0.5436410000000 1.0
C      1  0.5006270000000  0.4128200000000  0.5474370000000 1.0
C      1  0.5650040000000  0.4683130000000  0.4295540000000 1.0
C      1  0.4397640000000  0.4466930000000  0.5098890000000 1.0
C      1  0.4281330000000  0.4577680000000  0.4735040000000 1.0
C      1  0.4706530000000  0.4611060000000  0.5173740000000 1.0
C      1  0.4759860000000  0.4794400000000  0.4886030000000 1.0
C      1  0.4722300000000  0.5881620000000  0.5032290000000 1.0
C      1  0.5113300000000  0.4586660000000  0.5277710000000 1.0
C      1  0.5421950000000  0.5755960000000  0.4906930000000 1.0
C      1  0.5109320000000  0.4984780000000  0.4886470000000 1.0
C      1  0.4483280000000  0.4804680000000  0.5693110000000 1.0
C      1  0.4106960000000  0.5319370000000  0.4736370000000 1.0
C      1  0.4683310000000  0.4145260000000  0.5406480000000 1.0
C      1  0.4929560000000  0.5565000000000  0.4740020000000 1.0
C      1  0.5398250000000  0.4980030000000  0.4722050000000 1.0
C      1  0.4538540000000  0.5592180000000  0.4666610000000 1.0
C      1  0.5224430000000  0.5301690000000  0.4875050000000 1.0
C      1  0.5402120000000  0.4722060000000  0.4117210000000 1.0
C      1  0.4865790000000  0.4560060000000  0.4685420000000 1.0
C      1  0.4170180000000  0.4683470000000  0.5038920000000 1.0
C      1  0.5031440000000  0.5553750000000  0.4283830000000 1.0
C      1  0.5655250000000  0.4545280000000  0.5186070000000 1.0
C      1  0.5421670000000  0.4547920000000  0.4761120000000 1.0
C      1  0.5135340000000  0.5866870000000  0.5389670000000 1.0
C      1  0.4812690000000  0.4187680000000  0.4815020000000 1.0
C      1  0.4160250000000  0.4937940000000  0.4282220000000 1.0
C      1  0.4746710000000  0.5644240000000  0.5587930000000 1.0
C      1  0.4531490000000  0.5677050000000  0.4972360000000 1.0
C      1  0.4287390000000  0.4914410000000  0.4811430000000 1.0
C      1  0.5124970000000  0.4614410000000  0.4211260000000 1.0
C      1  0.5220220000000  0.5815590000000  0.4637620000000 1.0
C      1  0.5047730000000  0.5376220000000  0.5280520000000 1.0
C      1  0.4970380000000  0.5424250000000  0.5825870000000 1.0
C      1  0.4644070000000  0.5055300000000  0.4338110000000 1.0
C      1  0.4654200000000  0.4400510000000  0.4512390000000 1.0
C      1  0.4819430000000  0.5159540000000  0.5694150000000 1.0
C      1  0.4792930000000  0.4463470000000  0.5474520000000 1.0
C      1  0.4432300000000  0.5277870000000  0.5839490000000 1.0
C      1  0.5061230000000  0.4690380000000  0.5007090000000 1.0
C      1  0.5501350000000  0.5605340000000  0.5204420000000 1.0
C      1  0.4034340000000  0.5186010000000  0.4958610000000 1.0
C      1  0.5368000000000  0.5663100000000  0.5513010000000 1.0
C      1  0.5524210000000  0.4689600000000  0.4978440000000 1.0
C      1  0.4696170000000  0.5068020000000  0.5257330000000 1.0
C      1  0.5124600000000  0.4164760000000  0.4953550000000 1.0
C      1  0.4741950000000  0.5630010000000  0.4396590000000 1.0
C      1  0.5148290000000  0.5594960000000  0.4962030000000 1.0
C      1  0.5531180000000  0.5321800000000  0.5394210000000 1.0
C      1  0.5539110000000  0.5527690000000  0.4451500000000 1.0
C      1  0.5781050000000  0.4965830000000  0.5107520000000 1.0
C      1  0.4462690000000  0.5155740000000  0.4945640000000 1.0
C      1  0.4459130000000  0.4897050000000  0.5168250000000 1.0
C      1  0.5350630000000  0.5098730000000  0.4234950000000 1.0
C      1  0.5953280000000  0.4627050000000  0.5218170000000 1.0
C      1  0.5142190000000  0.4445980000000  0.4807710000000 1.0
C      1  0.5201290000000  0.4256950000000  0.5239050000000 1.0
C      1  0.5624730000000  0.4463590000000  0.4526070000000 1.0
C      1  0.5269450000000  0.4898140000000  0.5931560000000 1.0
C      1  0.5529000000000  0.4723470000000  0.5533900000000 1.0
C      1  0.4280400000000  0.5428930000000  0.4566670000000 1.0
C      1  0.5084430000000  0.4710650000000  0.4516030000000 1.0
C      1  0.4510570000000  0.4349110000000  0.4805830000000 1.0
C      1  0.4419200000000  0.4358880000000  0.5391670000000 1.0
C      1  0.4525000000000  0.5374390000000  0.4336030000000 1.0
C      1  0.5029070000000  0.5318100000000  0.4149170000000 1.0
C      1  0.4978650000000  0.5752120000000  0.5162650000000 1.0
C      1  0.4351620000000  0.5111220000000  0.4207990000000 1.0
C      1  0.4496750000000  0.5422540000000  0.5154050000000 1.0
C      1  0.5475960000000  0.5000470000000  0.5040990000000 1.0
C      1  0.4624240000000  0.4579100000000  0.4258770000000 1.0
C      1  0.5112710000000  0.5232850000000  0.5578150000000 1.0
C      1  0.4627690000000  0.5482160000000  0.5824450000000 1.0
C      1  0.4129220000000  0.4982630000000  0.5176810000000 1.0
C      1  0.5273580000000  0.5634370000000  0.4415190000000 1.0
C      1  0.4788640000000  0.4476620000000  0.5795770000000 1.0
C      1  0.4177510000000  0.4803580000000  0.4510610000000 1.0
C      1  0.5019830000000  0.4806450000000  0.5515390000000 1.0
C      1  0.4779430000000  0.4866790000000  0.5729180000000 1.0
C      1  0.5702460000000  0.5478100000000  0.4962390000000 1.0
C      1  0.4752250000000  0.4287780000000  0.5118330000000 1.0
C      1  0.4151410000000  0.5117430000000  0.5454500000000 1.0
C      1  0.4767730000000  0.5548210000000  0.5289290000000 1.0
C      1  0.5306230000000  0.5156370000000  0.5237030000000 1.0
C      1  0.4899420000000  0.5860220000000  0.4592990000000 1.0
C      1  0.4709280000000  0.5352080000000  0.4822740000000 1.0
C      1  0.5391470000000  0.4246220000000  0.4502790000000 1.0
C      1  0.4918370000000  0.4214340000000  0.4492860000000 1.0
C      1  0.5757560000000  0.4945600000000  0.4445320000000 1.0
C      1  0.5295210000000  0.4962740000000  0.5597570000000 1.0
C      1  0.5152670000000  0.4323730000000  0.4371970000000 1.0
C      1  0.5013700000000  0.4995490000000  0.5272040000000 1.0
C      1  0.4407720000000  0.4554230000000  0.5585410000000 1.0
C      1  0.5412210000000  0.4986570000000  0.3949470000000 1.0
C      1  0.5577830000000  0.5202710000000  0.4442580000000 1.0
C      1  0.5349760000000  0.4091760000000  0.4729360000000 1.0
C      1  0.5069750000000  0.5706540000000  0.5674020000000 1.0
C      1  0.5391240000000  0.5209920000000  0.5894950000000 1.0
C      1  0.5036380000000  0.5049380000000  0.4316630000000 1.0
C      1  0.5925220000000  0.5337260000000  0.5129550000000 1.0
C      1  0.5803540000000  0.5176150000000  0.5361270000000 1.0
C      1  0.5309460000000  0.4602200000000  0.5764590000000 1.0
C      1  0.5004860000000  0.4684860000000  0.5895830000000 1.0
C      1  0.4831350000000  0.4792730000000  0.4219950000000 1.0
C      1  0.5119910000000  0.4429720000000  0.5584390000000 1.0
C      1  0.4323410000000  0.5047260000000  0.5699170000000 1.0
C      1  0.5816700000000  0.4716230000000  0.4653750000000 1.0
C      1  0.4846390000000  0.4944600000000  0.4588500000000 1.0
END
