TITL C-2778427-5640-406 -0.00495510355223098 125000 -988.734459130757 0 0 167 (C1) n - 1
REM
REM in /home/nfs/bkarasulu/CARBON/AIRSS/Generating-Clusters/REBO/Only-C1/SD-CG/HFTN-CG
REM
REM
REM
REM
REM
REM ./C.cell (11c1c37f851c82e70ff6c80c92926a4b)
REM
REM compiler GCC version 9.2.1 20190827 (Red Hat 9.2.1-1)
REM options -cpp -mtune=generic -march=x86-64 -g -O0 -fpre-include=/usr/include/finclude/math-vector-fortran.h
REM seed -390805255 2100704395 -1093238040 133094959 -1130954283 -850023499 -1260279699 340938022 1221109042 -1940712583 -2046745639 1777381277 -893354393 1439692180 -461260917 612592849 -429385155 -1303434950 -434412647 442466298 -1411670074 1632078293 910237348 -1470058929 -577014905 -370295491 40635081 1285520910 354580088 -856028970 823842656 644431123 -997129397
REM
CELL 1.54180   50.00000   50.00000   50.00000   90.00000   90.00000   90.00000
LATT -1
SFAC C  
C      1  0.5703610000000  0.4584630000000  0.4646360000000 1.0
C      1  0.5533100000000  0.4514670000000  0.5158390000000 1.0
C      1  0.4469070000000  0.5928810000000  0.4420500000000 1.0
C      1  0.5110880000000  0.4156150000000  0.5681010000000 1.0
C      1  0.3944000000000  0.4775160000000  0.4881440000000 1.0
C      1  0.5788790000000  0.4798630000000  0.5666270000000 1.0
C      1  0.4793590000000  0.5744970000000  0.5639170000000 1.0
C      1  0.4729220000000  0.4939160000000  0.5727530000000 1.0
C      1  0.5218920000000  0.4543160000000  0.4573680000000 1.0
C      1  0.4181640000000  0.4834300000000  0.5218760000000 1.0
C      1  0.4247940000000  0.5774380000000  0.5356780000000 1.0
C      1  0.4404430000000  0.4315380000000  0.5625400000000 1.0
C      1  0.5781500000000  0.5444110000000  0.5119960000000 1.0
C      1  0.4838140000000  0.5390020000000  0.5353630000000 1.0
C      1  0.5345570000000  0.5274640000000  0.4610920000000 1.0
C      1  0.4839000000000  0.5141380000000  0.5152070000000 1.0
C      1  0.5197960000000  0.4134800000000  0.5224220000000 1.0
C      1  0.4640040000000  0.4241810000000  0.4468430000000 1.0
C      1  0.5436270000000  0.4282310000000  0.4939330000000 1.0
C      1  0.5626040000000  0.5657840000000  0.5416370000000 1.0
C      1  0.4295230000000  0.5400450000000  0.5132500000000 1.0
C      1  0.5925290000000  0.4440200000000  0.5073190000000 1.0
C      1  0.4638520000000  0.5798210000000  0.4236850000000 1.0
C      1  0.4250520000000  0.5827030000000  0.5073950000000 1.0
C      1  0.4953680000000  0.3957080000000  0.4762330000000 1.0
C      1  0.4299140000000  0.4925070000000  0.4207960000000 1.0
C      1  0.5274650000000  0.4791000000000  0.4350360000000 1.0
C      1  0.5811200000000  0.5043670000000  0.4400000000000 1.0
C      1  0.5195580000000  0.5293170000000  0.5057760000000 1.0
C      1  0.5108580000000  0.4666460000000  0.5911790000000 1.0
C      1  0.5342170000000  0.4159150000000  0.5490120000000 1.0
C      1  0.5749070000000  0.5669840000000  0.4649890000000 1.0
C      1  0.4547800000000  0.5229470000000  0.5924550000000 1.0
C      1  0.5063020000000  0.4331500000000  0.5891750000000 1.0
C      1  0.4514860000000  0.4778730000000  0.4681340000000 1.0
C      1  0.4136960000000  0.5193900000000  0.5634940000000 1.0
C      1  0.6188570000000  0.5138440000000  0.4788450000000 1.0
C      1  0.5835140000000  0.5308880000000  0.5401030000000 1.0
C      1  0.4708570000000  0.4321620000000  0.5688660000000 1.0
C      1  0.4778130000000  0.4461810000000  0.5987710000000 1.0
C      1  0.5030410000000  0.4282960000000  0.4544480000000 1.0
C      1  0.5307420000000  0.5181890000000  0.5337030000000 1.0
C      1  0.5029310000000  0.5636510000000  0.5399550000000 1.0
C      1  0.4714890000000  0.4065500000000  0.4669840000000 1.0
C      1  0.5663510000000  0.5829680000000  0.4867810000000 1.0
C      1  0.5152260000000  0.4129770000000  0.4338230000000 1.0
C      1  0.4929220000000  0.3833700000000  0.5305270000000 1.0
C      1  0.4222050000000  0.5471670000000  0.4209640000000 1.0
C      1  0.4116920000000  0.5085360000000  0.4554620000000 1.0
C      1  0.5393990000000  0.5029210000000  0.4961730000000 1.0
C      1  0.5307360000000  0.4754340000000  0.3955020000000 1.0
C      1  0.5068030000000  0.4979640000000  0.4038490000000 1.0
C      1  0.4025520000000  0.5056630000000  0.5413540000000 1.0
C      1  0.5688340000000  0.5432890000000  0.5646010000000 1.0
C      1  0.4592650000000  0.5078420000000  0.5379420000000 1.0
C      1  0.4738560000000  0.4632790000000  0.4168120000000 1.0
C      1  0.5933500000000  0.5356190000000  0.4766800000000 1.0
C      1  0.4833720000000  0.4042200000000  0.5540040000000 1.0
C      1  0.5553910000000  0.4359110000000  0.5460190000000 1.0
C      1  0.4265620000000  0.4347250000000  0.4849030000000 1.0
C      1  0.5208550000000  0.4455690000000  0.3988640000000 1.0
C      1  0.5060020000000  0.5173230000000  0.4621940000000 1.0
C      1  0.4494430000000  0.5917460000000  0.4943490000000 1.0
C      1  0.4539800000000  0.3872740000000  0.5100430000000 1.0
C      1  0.5646110000000  0.5103900000000  0.5731940000000 1.0
C      1  0.5226810000000  0.4769920000000  0.5075700000000 1.0
C      1  0.4858030000000  0.4863080000000  0.5437030000000 1.0
C      1  0.5405440000000  0.5125810000000  0.5958200000000 1.0
C      1  0.5031130000000  0.5861880000000  0.4926260000000 1.0
C      1  0.4765890000000  0.4408000000000  0.5249740000000 1.0
C      1  0.4825660000000  0.5642220000000  0.4553820000000 1.0
C      1  0.5243750000000  0.4037820000000  0.4922200000000 1.0
C      1  0.5801990000000  0.5442840000000  0.4400270000000 1.0
C      1  0.5007830000000  0.3829880000000  0.5051100000000 1.0
C      1  0.3969190000000  0.5107450000000  0.4844040000000 1.0
C      1  0.5246530000000  0.5880540000000  0.5680060000000 1.0
C      1  0.6028390000000  0.4684900000000  0.5179180000000 1.0
C      1  0.4961110000000  0.5844980000000  0.4334710000000 1.0
C      1  0.5359520000000  0.5953100000000  0.4886100000000 1.0
C      1  0.4606050000000  0.5072750000000  0.4270640000000 1.0
C      1  0.4800040000000  0.5546200000000  0.3971630000000 1.0
C      1  0.4927740000000  0.4422740000000  0.3987760000000 1.0
C      1  0.5531890000000  0.4574340000000  0.5696530000000 1.0
C      1  0.4440410000000  0.5051290000000  0.4558740000000 1.0
C      1  0.6065980000000  0.5279670000000  0.5076330000000 1.0
C      1  0.4770980000000  0.4320630000000  0.4244320000000 1.0
C      1  0.6084470000000  0.5111150000000  0.5371660000000 1.0
C      1  0.5218090000000  0.5616090000000  0.5047540000000 1.0
C      1  0.5776330000000  0.4752570000000  0.4379080000000 1.0
C      1  0.4554410000000  0.5354180000000  0.4589570000000 1.0
C      1  0.4584780000000  0.4581710000000  0.5382540000000 1.0
C      1  0.4511760000000  0.5705710000000  0.5546630000000 1.0
C      1  0.5757110000000  0.4363130000000  0.4868610000000 1.0
C      1  0.5666720000000  0.5170830000000  0.4657590000000 1.0
C      1  0.4556760000000  0.3965900000000  0.5356080000000 1.0
C      1  0.6071790000000  0.4898690000000  0.4959760000000 1.0
C      1  0.5372550000000  0.4705480000000  0.5355320000000 1.0
C      1  0.5233010000000  0.5612230000000  0.5796640000000 1.0
C      1  0.4840830000000  0.5915020000000  0.5352460000000 1.0
C      1  0.4905270000000  0.4594080000000  0.5635440000000 1.0
C      1  0.4500670000000  0.4103450000000  0.4896930000000 1.0
C      1  0.6059440000000  0.5233510000000  0.4486090000000 1.0
C      1  0.4322020000000  0.5037690000000  0.5800430000000 1.0
C      1  0.5388480000000  0.5550650000000  0.4790090000000 1.0
C      1  0.5073300000000  0.5103620000000  0.5919700000000 1.0
C      1  0.4503110000000  0.5551700000000  0.4056530000000 1.0
C      1  0.4811120000000  0.4780750000000  0.5975020000000 1.0
C      1  0.4445060000000  0.4461120000000  0.4586870000000 1.0
C      1  0.4548150000000  0.5529170000000  0.5258160000000 1.0
C      1  0.4947480000000  0.5343710000000  0.4163130000000 1.0
C      1  0.5634600000000  0.5106320000000  0.5268720000000 1.0
C      1  0.4133560000000  0.4774030000000  0.4466640000000 1.0
C      1  0.4253460000000  0.4553220000000  0.5598800000000 1.0
C      1  0.4355390000000  0.4158130000000  0.5393660000000 1.0
C      1  0.4488810000000  0.4832020000000  0.5210820000000 1.0
C      1  0.5336810000000  0.4297970000000  0.4190640000000 1.0
C      1  0.4926570000000  0.5269290000000  0.4888790000000 1.0
C      1  0.5136080000000  0.6018640000000  0.5446530000000 1.0
C      1  0.4497600000000  0.4696750000000  0.4348930000000 1.0
C      1  0.4216660000000  0.4320480000000  0.5184460000000 1.0
C      1  0.4739680000000  0.5746520000000  0.5071510000000 1.0
C      1  0.4039230000000  0.5424450000000  0.4742920000000 1.0
C      1  0.5026300000000  0.4352200000000  0.5342770000000 1.0
C      1  0.5588350000000  0.5215890000000  0.4241010000000 1.0
C      1  0.4832320000000  0.5254050000000  0.5644910000000 1.0
C      1  0.5548690000000  0.4902760000000  0.5475460000000 1.0
C      1  0.5334530000000  0.5691000000000  0.5339380000000 1.0
C      1  0.5465230000000  0.5488330000000  0.4374970000000 1.0
C      1  0.4144510000000  0.5582110000000  0.4950240000000 1.0
C      1  0.5337620000000  0.4827640000000  0.5806230000000 1.0
C      1  0.4240200000000  0.5391380000000  0.4498340000000 1.0
C      1  0.4859310000000  0.4905810000000  0.4245700000000 1.0
C      1  0.4945200000000  0.4836020000000  0.5134320000000 1.0
C      1  0.5219450000000  0.5084340000000  0.5610530000000 1.0
C      1  0.5382370000000  0.5039080000000  0.4140060000000 1.0
C      1  0.5592270000000  0.4748320000000  0.4918280000000 1.0
C      1  0.5377760000000  0.5805290000000  0.4591060000000 1.0
C      1  0.4245840000000  0.5491940000000  0.5549690000000 1.0
C      1  0.5547710000000  0.4679560000000  0.4167820000000 1.0
C      1  0.4392570000000  0.5226850000000  0.4074120000000 1.0
C      1  0.5500290000000  0.4469370000000  0.4415340000000 1.0
C      1  0.4865120000000  0.5342650000000  0.4450560000000 1.0
C      1  0.4134980000000  0.4558630000000  0.5331020000000 1.0
C      1  0.4723120000000  0.4323180000000  0.4975300000000 1.0
C      1  0.5573130000000  0.5318950000000  0.4935700000000 1.0
C      1  0.5256050000000  0.4542690000000  0.4873210000000 1.0
C      1  0.5211310000000  0.4533870000000  0.5551850000000 1.0
C      1  0.5444200000000  0.5428370000000  0.5845810000000 1.0
C      1  0.4094670000000  0.4607650000000  0.4709020000000 1.0
C      1  0.4817130000000  0.5177570000000  0.6035140000000 1.0
C      1  0.5302670000000  0.5990010000000  0.5190390000000 1.0
C      1  0.4576900000000  0.5988790000000  0.4681150000000 1.0
C      1  0.4965880000000  0.5512690000000  0.5772780000000 1.0
C      1  0.4892520000000  0.5951570000000  0.4652020000000 1.0
C      1  0.4742900000000  0.5503860000000  0.4829980000000 1.0
C      1  0.4890320000000  0.4421720000000  0.4765650000000 1.0
C      1  0.4515670000000  0.5310220000000  0.5590080000000 1.0
C      1  0.6017300000000  0.4831340000000  0.5430300000000 1.0
C      1  0.5751060000000  0.5745290000000  0.5128460000000 1.0
C      1  0.4899570000000  0.4704400000000  0.4751060000000 1.0
C      1  0.5106250000000  0.5599750000000  0.4056710000000 1.0
C      1  0.5016710000000  0.4885760000000  0.4532550000000 1.0
C      1  0.4455780000000  0.4790020000000  0.5627720000000 1.0
C      1  0.4664800000000  0.4818510000000  0.4948480000000 1.0
C      1  0.5268830000000  0.5733340000000  0.4295630000000 1.0
C      1  0.5778670000000  0.4963270000000  0.5038020000000 1.0
C      1  0.4125890000000  0.5143190000000  0.5115910000000 1.0
END
