TITL C-2778437-8639-1194 -0.00526223259129609 125000 -639.618763899929 0 0 112 (C1) n - 1
REM
REM in /home/nfs/bkarasulu/CARBON/AIRSS/Generating-Clusters/REBO/Only-C1/SD-CG/HFTN-CG
REM
REM
REM
REM
REM
REM ./C.cell (11c1c37f851c82e70ff6c80c92926a4b)
REM
REM compiler GCC version 9.2.1 20190827 (Red Hat 9.2.1-1)
REM options -cpp -mtune=generic -march=x86-64 -g -O0 -fpre-include=/usr/include/finclude/math-vector-fortran.h
REM seed -1257819311 -1743212683 432450476 -1257265449 -56703734 -764129686 -1373397085 12909946 -1152994057 -1570289415 -382101849 -675195733 -1438757461 -1405351664 665668048 375165910 2142030368 1533379593 350991617 1647132803 -275594134 -800135568 1924982577 -1538896677 -756887237 -826593122 -592091699 -2008918453 -1116811409 2002696463 210451369 508488980 -1467990402
REM
CELL 1.54180   50.00000   50.00000   50.00000   90.00000   90.00000   90.00000
LATT -1
SFAC C  
C      1  0.5610680000000  0.4700340000000  0.5271360000000 1.0
C      1  0.4393390000000  0.4741570000000  0.5748180000000 1.0
C      1  0.4790390000000  0.4708080000000  0.4861080000000 1.0
C      1  0.4749760000000  0.4448910000000  0.4561710000000 1.0
C      1  0.5375900000000  0.4407120000000  0.5584380000000 1.0
C      1  0.5076290000000  0.5451360000000  0.5729730000000 1.0
C      1  0.5444050000000  0.5181550000000  0.5172820000000 1.0
C      1  0.5410370000000  0.4700140000000  0.4925910000000 1.0
C      1  0.5535500000000  0.5042300000000  0.4637730000000 1.0
C      1  0.4508860000000  0.4544460000000  0.5423570000000 1.0
C      1  0.5581470000000  0.5287460000000  0.5446050000000 1.0
C      1  0.5423180000000  0.4349540000000  0.5287810000000 1.0
C      1  0.4746750000000  0.5242620000000  0.4686770000000 1.0
C      1  0.5322890000000  0.4735860000000  0.5314380000000 1.0
C      1  0.4953810000000  0.5316260000000  0.4436190000000 1.0
C      1  0.5444440000000  0.5659970000000  0.5438580000000 1.0
C      1  0.5145920000000  0.5116650000000  0.4120010000000 1.0
C      1  0.5591360000000  0.5236590000000  0.4360630000000 1.0
C      1  0.4371330000000  0.5695730000000  0.4999310000000 1.0
C      1  0.5370240000000  0.5355930000000  0.4148310000000 1.0
C      1  0.4481370000000  0.4433930000000  0.4627810000000 1.0
C      1  0.4510680000000  0.4815510000000  0.4308270000000 1.0
C      1  0.5321280000000  0.5407640000000  0.4986600000000 1.0
C      1  0.5936670000000  0.4967680000000  0.5223840000000 1.0
C      1  0.5796390000000  0.4742830000000  0.4650600000000 1.0
C      1  0.5992510000000  0.5234070000000  0.4918440000000 1.0
C      1  0.4744270000000  0.4936760000000  0.5183710000000 1.0
C      1  0.4809390000000  0.5548500000000  0.5007920000000 1.0
C      1  0.4598790000000  0.5221390000000  0.5897140000000 1.0
C      1  0.4334580000000  0.4202090000000  0.5320910000000 1.0
C      1  0.4533880000000  0.5129520000000  0.4198240000000 1.0
C      1  0.4352040000000  0.5321200000000  0.5735410000000 1.0
C      1  0.5291260000000  0.5650930000000  0.4104870000000 1.0
C      1  0.4269650000000  0.5240830000000  0.5188960000000 1.0
C      1  0.4935750000000  0.5268320000000  0.5896770000000 1.0
C      1  0.4703180000000  0.4593450000000  0.5165760000000 1.0
C      1  0.4575870000000  0.5296330000000  0.5505350000000 1.0
C      1  0.5824060000000  0.5470500000000  0.5036630000000 1.0
C      1  0.4511660000000  0.5079150000000  0.4529080000000 1.0
C      1  0.4891170000000  0.4517130000000  0.5731940000000 1.0
C      1  0.4728700000000  0.4627540000000  0.4167860000000 1.0
C      1  0.4852510000000  0.5208290000000  0.5008660000000 1.0
C      1  0.5328000000000  0.5047360000000  0.5671750000000 1.0
C      1  0.4464270000000  0.4795140000000  0.4920760000000 1.0
C      1  0.5076550000000  0.4453310000000  0.5453210000000 1.0
C      1  0.5717270000000  0.4465010000000  0.4828390000000 1.0
C      1  0.5109000000000  0.4949300000000  0.4848280000000 1.0
C      1  0.5375480000000  0.4914310000000  0.4271090000000 1.0
C      1  0.5081980000000  0.4768370000000  0.5136390000000 1.0
C      1  0.5076480000000  0.5503620000000  0.5158940000000 1.0
C      1  0.5107340000000  0.5015400000000  0.5500210000000 1.0
C      1  0.5174540000000  0.5723640000000  0.5351050000000 1.0
C      1  0.4626440000000  0.5800440000000  0.4938910000000 1.0
C      1  0.5573880000000  0.4936990000000  0.5059980000000 1.0
C      1  0.5651550000000  0.4979580000000  0.5690600000000 1.0
C      1  0.5269180000000  0.5283820000000  0.4461410000000 1.0
C      1  0.4692140000000  0.5036310000000  0.5485250000000 1.0
C      1  0.5856430000000  0.4934620000000  0.4895830000000 1.0
C      1  0.5170930000000  0.5239780000000  0.4761510000000 1.0
C      1  0.4178740000000  0.4683260000000  0.5076790000000 1.0
C      1  0.5131680000000  0.4915780000000  0.4509450000000 1.0
C      1  0.4426560000000  0.4269160000000  0.4843290000000 1.0
C      1  0.5022130000000  0.5536960000000  0.4758790000000 1.0
C      1  0.4832950000000  0.4375840000000  0.4176490000000 1.0
C      1  0.5735830000000  0.5277430000000  0.4730740000000 1.0
C      1  0.4984050000000  0.4767130000000  0.5523020000000 1.0
C      1  0.4083780000000  0.4942430000000  0.4963680000000 1.0
C      1  0.5142520000000  0.5768010000000  0.4302840000000 1.0
C      1  0.5110700000000  0.5172560000000  0.5231140000000 1.0
C      1  0.5228840000000  0.4484520000000  0.4489060000000 1.0
C      1  0.5210470000000  0.5737760000000  0.4591390000000 1.0
C      1  0.4949200000000  0.5611710000000  0.5522090000000 1.0
C      1  0.4216580000000  0.4498130000000  0.5277650000000 1.0
C      1  0.5124070000000  0.4683320000000  0.5887920000000 1.0
C      1  0.4332960000000  0.4830320000000  0.5466870000000 1.0
C      1  0.4505720000000  0.5469790000000  0.4601000000000 1.0
C      1  0.4594580000000  0.4516030000000  0.5736840000000 1.0
C      1  0.5675650000000  0.4438930000000  0.5133860000000 1.0
C      1  0.5141770000000  0.4236670000000  0.4874870000000 1.0
C      1  0.4162420000000  0.5267170000000  0.4891820000000 1.0
C      1  0.4280220000000  0.3980880000000  0.5458460000000 1.0
C      1  0.4189880000000  0.5389510000000  0.5484960000000 1.0
C      1  0.4789010000000  0.5775780000000  0.4683470000000 1.0
C      1  0.4865800000000  0.5641090000000  0.4405990000000 1.0
C      1  0.5413190000000  0.4366860000000  0.4840820000000 1.0
C      1  0.4384890000000  0.5551750000000  0.5266530000000 1.0
C      1  0.5014660000000  0.4944980000000  0.5897370000000 1.0
C      1  0.4238710000000  0.5023000000000  0.4684480000000 1.0
C      1  0.5141200000000  0.4429600000000  0.5132360000000 1.0
C      1  0.5033760000000  0.4268790000000  0.4350110000000 1.0
C      1  0.4292630000000  0.5519200000000  0.4789380000000 1.0
C      1  0.5347430000000  0.4623700000000  0.4228570000000 1.0
C      1  0.5662800000000  0.5541940000000  0.5250090000000 1.0
C      1  0.4837300000000  0.5238250000000  0.4137510000000 1.0
C      1  0.5414920000000  0.5627560000000  0.4777640000000 1.0
C      1  0.5376360000000  0.4555450000000  0.5830110000000 1.0
C      1  0.5111960000000  0.4619270000000  0.4775450000000 1.0
C      1  0.4687430000000  0.5563810000000  0.5422840000000 1.0
C      1  0.4523260000000  0.4309830000000  0.5104410000000 1.0
C      1  0.5384670000000  0.5442650000000  0.5678810000000 1.0
C      1  0.4411310000000  0.4979320000000  0.5206800000000 1.0
C      1  0.4729580000000  0.4957020000000  0.5765810000000 1.0
C      1  0.4946710000000  0.4865830000000  0.4225980000000 1.0
C      1  0.5703240000000  0.4914120000000  0.4368210000000 1.0
C      1  0.5660940000000  0.5560700000000  0.4676230000000 1.0
C      1  0.5807380000000  0.5045480000000  0.5445080000000 1.0
C      1  0.4610200000000  0.5449970000000  0.4286560000000 1.0
C      1  0.5534140000000  0.5222490000000  0.5863510000000 1.0
C      1  0.4959930000000  0.4242720000000  0.4658630000000 1.0
C      1  0.4837870000000  0.4755730000000  0.4527840000000 1.0
C      1  0.4364650000000  0.4718350000000  0.4600470000000 1.0
C      1  0.5459030000000  0.4708440000000  0.4603040000000 1.0
END
