TITL C-2778430-5657-615 0.00106628396888965 125000 -428.326931423564 0 0 74 (C1) n - 1
REM
REM in /home/nfs/bkarasulu/CARBON/AIRSS/Generating-Clusters/REBO/Only-C1/SD-CG/HFTN-CG
REM
REM
REM
REM
REM
REM ./C.cell (11c1c37f851c82e70ff6c80c92926a4b)
REM
REM compiler GCC version 9.2.1 20190827 (Red Hat 9.2.1-1)
REM options -cpp -mtune=generic -march=x86-64 -g -O0 -fpre-include=/usr/include/finclude/math-vector-fortran.h
REM seed 1493659293 -973950524 -1447481729 -946350274 -2145958404 1234132853 -236850555 -1996033436 1804532060 -443691176 2035017948 -1075258887 -274123112 -799851951 324991886 513268000 -2099158117 82162234 -1104588522 1478557863 -1625560717 304951784 703442733 396015775 2066039604 -526421841 -531957772 1967202160 1236335968 527521629 -409788079 470365171 -290799969
REM
CELL 1.54180   50.00000   50.00000   50.00000   90.00000   90.00000   90.00000
LATT -1
SFAC C  
C      1  0.4744560000000  0.5075620000000  0.4185990000000 1.0
C      1  0.5345920000000  0.4728810000000  0.5085850000000 1.0
C      1  0.5940720000000  0.5243600000000  0.4759270000000 1.0
C      1  0.4772510000000  0.4449520000000  0.5372920000000 1.0
C      1  0.4618250000000  0.4413190000000  0.5069680000000 1.0
C      1  0.4759450000000  0.5134800000000  0.4885070000000 1.0
C      1  0.4836810000000  0.5432290000000  0.4455610000000 1.0
C      1  0.4072630000000  0.4436710000000  0.4742990000000 1.0
C      1  0.5003280000000  0.4654340000000  0.4429790000000 1.0
C      1  0.4405630000000  0.4764740000000  0.4693360000000 1.0
C      1  0.4280230000000  0.5484210000000  0.4635510000000 1.0
C      1  0.5252220000000  0.4837380000000  0.4540720000000 1.0
C      1  0.5306060000000  0.5269650000000  0.5429510000000 1.0
C      1  0.5262640000000  0.4310790000000  0.4850490000000 1.0
C      1  0.5201480000000  0.5446660000000  0.4960090000000 1.0
C      1  0.5053900000000  0.5957290000000  0.5008700000000 1.0
C      1  0.4511420000000  0.4633970000000  0.5305950000000 1.0
C      1  0.5643360000000  0.5269770000000  0.4906150000000 1.0
C      1  0.4829290000000  0.5441100000000  0.5628610000000 1.0
C      1  0.4528870000000  0.4973850000000  0.4881200000000 1.0
C      1  0.5151030000000  0.5719450000000  0.4927970000000 1.0
C      1  0.4122250000000  0.4708980000000  0.4823080000000 1.0
C      1  0.4895140000000  0.4731160000000  0.5411800000000 1.0
C      1  0.5316060000000  0.5369770000000  0.5740130000000 1.0
C      1  0.4402300000000  0.5334510000000  0.4390700000000 1.0
C      1  0.5366260000000  0.5279400000000  0.4791100000000 1.0
C      1  0.5495180000000  0.4292380000000  0.5052570000000 1.0
C      1  0.4617300000000  0.5872630000000  0.4538520000000 1.0
C      1  0.4779920000000  0.5176820000000  0.5673600000000 1.0
C      1  0.5565170000000  0.5068350000000  0.5367930000000 1.0
C      1  0.5624180000000  0.5350270000000  0.5202720000000 1.0
C      1  0.5194730000000  0.4053910000000  0.5383810000000 1.0
C      1  0.4310940000000  0.4308820000000  0.4673340000000 1.0
C      1  0.4912830000000  0.5181710000000  0.4632850000000 1.0
C      1  0.4481430000000  0.4844620000000  0.5553410000000 1.0
C      1  0.4849800000000  0.5349510000000  0.4185380000000 1.0
C      1  0.4857460000000  0.5168770000000  0.5147500000000 1.0
C      1  0.5341510000000  0.4882850000000  0.5522650000000 1.0
C      1  0.6136930000000  0.5350240000000  0.4634510000000 1.0
C      1  0.5678340000000  0.4512810000000  0.5043950000000 1.0
C      1  0.4580420000000  0.5600140000000  0.4521960000000 1.0
C      1  0.4923790000000  0.6078500000000  0.5219060000000 1.0
C      1  0.5183630000000  0.4930470000000  0.5759140000000 1.0
C      1  0.5214370000000  0.5097460000000  0.4642370000000 1.0
C      1  0.4635910000000  0.6425860000000  0.5560580000000 1.0
C      1  0.5344150000000  0.4595780000000  0.4840480000000 1.0
C      1  0.5641980000000  0.4840480000000  0.5155130000000 1.0
C      1  0.4905170000000  0.4922310000000  0.5674620000000 1.0
C      1  0.5519180000000  0.4668000000000  0.4565610000000 1.0
C      1  0.4372970000000  0.4855830000000  0.4401450000000 1.0
C      1  0.4917990000000  0.4206980000000  0.5461040000000 1.0
C      1  0.5189810000000  0.4751530000000  0.5316820000000 1.0
C      1  0.5506890000000  0.5584510000000  0.5289720000000 1.0
C      1  0.4114090000000  0.4846830000000  0.5063550000000 1.0
C      1  0.5095500000000  0.5303060000000  0.5189090000000 1.0
C      1  0.5232240000000  0.5597410000000  0.5422580000000 1.0
C      1  0.5262050000000  0.5159230000000  0.5910220000000 1.0
C      1  0.4765230000000  0.6218330000000  0.5461240000000 1.0
C      1  0.5729380000000  0.4690370000000  0.4798600000000 1.0
C      1  0.4406990000000  0.4913350000000  0.5170240000000 1.0
C      1  0.4819050000000  0.4167390000000  0.4984010000000 1.0
C      1  0.4880150000000  0.5918490000000  0.5494240000000 1.0
C      1  0.5057310000000  0.4528160000000  0.4183430000000 1.0
C      1  0.4992600000000  0.4266160000000  0.4777940000000 1.0
C      1  0.4572120000000  0.4491180000000  0.4747160000000 1.0
C      1  0.4856470000000  0.4468620000000  0.4624730000000 1.0
C      1  0.4925520000000  0.4021420000000  0.5204140000000 1.0
C      1  0.4891710000000  0.4945520000000  0.4406610000000 1.0
C      1  0.5795470000000  0.4979050000000  0.4893350000000 1.0
C      1  0.4701020000000  0.4984750000000  0.5330100000000 1.0
C      1  0.5442620000000  0.4125030000000  0.5275360000000 1.0
C      1  0.5610860000000  0.4553700000000  0.4331640000000 1.0
C      1  0.4980710000000  0.5659930000000  0.5528310000000 1.0
C      1  0.4464630000000  0.5088890000000  0.4270530000000 1.0
END
