TITL C-2778430-5657-1380 -0.0015844480041459 125000 -525.579627341892 0 0 91 (C1) n - 1
REM
REM in /home/nfs/bkarasulu/CARBON/AIRSS/Generating-Clusters/REBO/Only-C1/SD-CG/HFTN-CG
REM
REM
REM
REM
REM
REM ./C.cell (11c1c37f851c82e70ff6c80c92926a4b)
REM
REM compiler GCC version 9.2.1 20190827 (Red Hat 9.2.1-1)
REM options -cpp -mtune=generic -march=x86-64 -g -O0 -fpre-include=/usr/include/finclude/math-vector-fortran.h
REM seed 1165475122 458230723 1183111881 -1718918535 407801162 645376177 1105064215 -1418999904 -1391915915 -1306763580 -422135173 1528012974 954762238 47450540 -1022943719 1991374294 -1208730392 -1739909995 1859295915 -8115067 -896554825 -582755244 -585856713 335633040 -1917263721 1418988968 -1779492434 1915449815 596762909 205353037 -1816366453 1878562482 -917588146
REM
CELL 1.54180   50.00000   50.00000   50.00000   90.00000   90.00000   90.00000
LATT -1
SFAC C  
C      1  0.4601570000000  0.4165970000000  0.5105810000000 1.0
C      1  0.5763170000000  0.5262250000000  0.4497230000000 1.0
C      1  0.4926540000000  0.5056230000000  0.4116010000000 1.0
C      1  0.5857500000000  0.5171460000000  0.4811380000000 1.0
C      1  0.4722780000000  0.4395680000000  0.4694110000000 1.0
C      1  0.5149710000000  0.5471820000000  0.4230950000000 1.0
C      1  0.5054190000000  0.5190350000000  0.4395910000000 1.0
C      1  0.4234920000000  0.4935340000000  0.5707740000000 1.0
C      1  0.5641410000000  0.5399560000000  0.4843750000000 1.0
C      1  0.5524510000000  0.4484180000000  0.4343860000000 1.0
C      1  0.5305650000000  0.5582240000000  0.5498010000000 1.0
C      1  0.4156250000000  0.5046230000000  0.4694120000000 1.0
C      1  0.4705350000000  0.4982360000000  0.5032770000000 1.0
C      1  0.5370780000000  0.5181970000000  0.5506190000000 1.0
C      1  0.4298700000000  0.5525130000000  0.4858620000000 1.0
C      1  0.5128810000000  0.4244210000000  0.5387150000000 1.0
C      1  0.4982280000000  0.4001480000000  0.5401040000000 1.0
C      1  0.5798400000000  0.5202130000000  0.5376530000000 1.0
C      1  0.4938540000000  0.4785990000000  0.4090020000000 1.0
C      1  0.5572800000000  0.4921700000000  0.5217770000000 1.0
C      1  0.4553940000000  0.5356590000000  0.4433110000000 1.0
C      1  0.5198480000000  0.4409450000000  0.5030050000000 1.0
C      1  0.4871050000000  0.5410870000000  0.5614580000000 1.0
C      1  0.5156690000000  0.5450980000000  0.5708340000000 1.0
C      1  0.5650540000000  0.4543770000000  0.5121160000000 1.0
C      1  0.4914950000000  0.5448180000000  0.5307280000000 1.0
C      1  0.5164080000000  0.4945620000000  0.5888330000000 1.0
C      1  0.5565990000000  0.5419930000000  0.5360130000000 1.0
C      1  0.4759880000000  0.5119450000000  0.5634230000000 1.0
C      1  0.4434840000000  0.4859190000000  0.4743530000000 1.0
C      1  0.4570780000000  0.5503890000000  0.5664890000000 1.0
C      1  0.4389200000000  0.5410250000000  0.5434990000000 1.0
C      1  0.4501490000000  0.5757220000000  0.4882510000000 1.0
C      1  0.4924060000000  0.5195430000000  0.5147160000000 1.0
C      1  0.4290070000000  0.4670960000000  0.5181650000000 1.0
C      1  0.4821300000000  0.4639840000000  0.5739310000000 1.0
C      1  0.4574220000000  0.4821280000000  0.4462370000000 1.0
C      1  0.4393880000000  0.5074010000000  0.5013290000000 1.0
C      1  0.4620230000000  0.4159860000000  0.4818290000000 1.0
C      1  0.4330100000000  0.5342600000000  0.5113430000000 1.0
C      1  0.5539120000000  0.5033440000000  0.4613290000000 1.0
C      1  0.5284160000000  0.5192640000000  0.5797000000000 1.0
C      1  0.4361170000000  0.5080890000000  0.4422720000000 1.0
C      1  0.4754190000000  0.5109340000000  0.4488630000000 1.0
C      1  0.5392980000000  0.4640660000000  0.4998040000000 1.0
C      1  0.5037610000000  0.4708870000000  0.4666190000000 1.0
C      1  0.4841080000000  0.4486570000000  0.5519530000000 1.0
C      1  0.4852860000000  0.4579090000000  0.4925980000000 1.0
C      1  0.5144850000000  0.5192700000000  0.4899740000000 1.0
C      1  0.5288510000000  0.5648060000000  0.4446700000000 1.0
C      1  0.4897670000000  0.5367550000000  0.4075600000000 1.0
C      1  0.5187010000000  0.5764900000000  0.4729220000000 1.0
C      1  0.4276800000000  0.5354080000000  0.4617530000000 1.0
C      1  0.5053800000000  0.5503840000000  0.4915750000000 1.0
C      1  0.4119640000000  0.4873060000000  0.4984990000000 1.0
C      1  0.4381360000000  0.4835490000000  0.5439180000000 1.0
C      1  0.4727300000000  0.4561290000000  0.4457130000000 1.0
C      1  0.4944400000000  0.5681720000000  0.4501230000000 1.0
C      1  0.5538740000000  0.5511500000000  0.5064930000000 1.0
C      1  0.5254930000000  0.5184900000000  0.4617880000000 1.0
C      1  0.4665850000000  0.4755030000000  0.5282500000000 1.0
C      1  0.4882270000000  0.4651850000000  0.3854370000000 1.0
C      1  0.4794580000000  0.5702720000000  0.5145010000000 1.0
C      1  0.5264310000000  0.4443400000000  0.4271790000000 1.0
C      1  0.5862180000000  0.4702550000000  0.5026520000000 1.0
C      1  0.4459670000000  0.5130120000000  0.5579330000000 1.0
C      1  0.4737910000000  0.3985920000000  0.5273990000000 1.0
C      1  0.5376040000000  0.4336820000000  0.5505220000000 1.0
C      1  0.4802280000000  0.5703580000000  0.4803780000000 1.0
C      1  0.4893040000000  0.4902800000000  0.5811480000000 1.0
C      1  0.4547270000000  0.4445290000000  0.5196950000000 1.0
C      1  0.4826790000000  0.4935210000000  0.4749430000000 1.0
C      1  0.5320550000000  0.4708610000000  0.5892600000000 1.0
C      1  0.5792050000000  0.4843920000000  0.4745170000000 1.0
C      1  0.4889780000000  0.4960370000000  0.5385970000000 1.0
C      1  0.5603880000000  0.4370440000000  0.5336770000000 1.0
C      1  0.5688230000000  0.4939610000000  0.5504540000000 1.0
C      1  0.5476700000000  0.5426910000000  0.4564710000000 1.0
C      1  0.5206450000000  0.5005190000000  0.5354810000000 1.0
C      1  0.5013770000000  0.4614350000000  0.4339420000000 1.0
C      1  0.5292860000000  0.4959410000000  0.5063030000000 1.0
C      1  0.4470030000000  0.5642120000000  0.5199510000000 1.0
C      1  0.5308010000000  0.5691620000000  0.5021030000000 1.0
C      1  0.5868220000000  0.5031440000000  0.5089590000000 1.0
C      1  0.4764190000000  0.5530270000000  0.4304140000000 1.0
C      1  0.4518410000000  0.4645000000000  0.4929750000000 1.0
C      1  0.5369120000000  0.4486550000000  0.5745150000000 1.0
C      1  0.5115250000000  0.5705290000000  0.5263550000000 1.0
C      1  0.5345840000000  0.4770210000000  0.4715650000000 1.0
C      1  0.5601120000000  0.4651850000000  0.4539490000000 1.0
C      1  0.4945580000000  0.4465330000000  0.5215920000000 1.0
END
