TITL C-2778428-5639-1220 0.00453986758324363 125000 -233.41661860625 0 0 43 (C1) n - 1
REM
REM in /home/nfs/bkarasulu/CARBON/AIRSS/Generating-Clusters/REBO/Only-C1/SD-CG/HFTN-CG
REM
REM
REM
REM
REM
REM ./C.cell (11c1c37f851c82e70ff6c80c92926a4b)
REM
REM compiler GCC version 9.2.1 20190827 (Red Hat 9.2.1-1)
REM options -cpp -mtune=generic -march=x86-64 -g -O0 -fpre-include=/usr/include/finclude/math-vector-fortran.h
REM seed 1652602458 1221086692 2017612439 1329242188 498120799 329597382 -1491932082 -360099626 -2132118196 86891909 -1292090976 -220193397 -819115889 -448307931 617835089 -1119904447 -139032428 -2082363634 -1198861123 -2137067726 -270330483 1337610267 -653653780 554750948 143144902 -207190468 1770232355 1899048328 -145290351 938394902 1616452535 -74573205 1413698812
REM
CELL 1.54180   50.00000   50.00000   50.00000   90.00000   90.00000   90.00000
LATT -1
SFAC C  
C      1  0.4981150000000  0.4996530000000  0.5067860000000 1.0
C      1  0.4552860000000  0.5161580000000  0.5566720000000 1.0
C      1  0.5018160000000  0.4040240000000  0.5346220000000 1.0
C      1  0.4616300000000  0.5374500000000  0.5067330000000 1.0
C      1  0.5271530000000  0.5065530000000  0.5081040000000 1.0
C      1  0.4870450000000  0.4764480000000  0.5291350000000 1.0
C      1  0.4973400000000  0.4670080000000  0.4553860000000 1.0
C      1  0.4624810000000  0.4877060000000  0.5441530000000 1.0
C      1  0.5003820000000  0.4360210000000  0.4687990000000 1.0
C      1  0.5616110000000  0.4691640000000  0.5690480000000 1.0
C      1  0.4870050000000  0.4479100000000  0.5170500000000 1.0
C      1  0.5342790000000  0.5159630000000  0.5670470000000 1.0
C      1  0.5391020000000  0.5223100000000  0.4834720000000 1.0
C      1  0.4644410000000  0.4755920000000  0.4097870000000 1.0
C      1  0.4962940000000  0.4996960000000  0.4502650000000 1.0
C      1  0.5578470000000  0.4753140000000  0.5445210000000 1.0
C      1  0.4925680000000  0.5293010000000  0.4649540000000 1.0
C      1  0.5230650000000  0.5171990000000  0.4576100000000 1.0
C      1  0.5756950000000  0.4955060000000  0.5003120000000 1.0
C      1  0.5176950000000  0.4597750000000  0.4799790000000 1.0
C      1  0.5394070000000  0.5231230000000  0.4326990000000 1.0
C      1  0.4932290000000  0.5597570000000  0.4647310000000 1.0
C      1  0.4580620000000  0.5426540000000  0.6030660000000 1.0
C      1  0.4742690000000  0.4580330000000  0.4920460000000 1.0
C      1  0.4487530000000  0.5205160000000  0.5263120000000 1.0
C      1  0.4488480000000  0.4718530000000  0.3890590000000 1.0
C      1  0.5332610000000  0.4681160000000  0.4989270000000 1.0
C      1  0.4541750000000  0.5630800000000  0.4968500000000 1.0
C      1  0.5612320000000  0.5268490000000  0.5532750000000 1.0
C      1  0.4693520000000  0.4858730000000  0.4946320000000 1.0
C      1  0.4567030000000  0.5296750000000  0.5803390000000 1.0
C      1  0.4697650000000  0.5719540000000  0.4747340000000 1.0
C      1  0.5376860000000  0.5141450000000  0.5347160000000 1.0
C      1  0.4820590000000  0.5234600000000  0.4930110000000 1.0
C      1  0.4965170000000  0.4144120000000  0.4863800000000 1.0
C      1  0.5372320000000  0.5537180000000  0.4856390000000 1.0
C      1  0.5535340000000  0.4823610000000  0.5164110000000 1.0
C      1  0.4490480000000  0.4917310000000  0.5146210000000 1.0
C      1  0.4947490000000  0.4206400000000  0.5144720000000 1.0
C      1  0.4798430000000  0.4792860000000  0.4302610000000 1.0
C      1  0.4338450000000  0.5776720000000  0.5074120000000 1.0
C      1  0.5187150000000  0.5693800000000  0.4728590000000 1.0
C      1  0.5688650000000  0.5129590000000  0.4831140000000 1.0
END
