TITL C-2778426-5645-301 0.00162246865168687 125000 -240.385610609217 0 0 41 (C1) n - 1
REM
REM in /home/nfs/bkarasulu/CARBON/AIRSS/Generating-Clusters/REBO/Only-C1/SD-CG/HFTN-CG
REM
REM
REM
REM
REM
REM ./C.cell (11c1c37f851c82e70ff6c80c92926a4b)
REM
REM compiler GCC version 9.2.1 20190827 (Red Hat 9.2.1-1)
REM options -cpp -mtune=generic -march=x86-64 -g -O0 -fpre-include=/usr/include/finclude/math-vector-fortran.h
REM seed 702548244 857820618 14884552 1176707924 -1532977416 1498743755 -2024532021 1410073909 1451295852 -1868049308 -1669331073 1245537014 -300282970 -1809836210 -233283321 207550811 -1574745023 362452536 1039276848 616167781 224765085 -1452602072 1114592971 -1538496415 893028632 1022768339 -54691006 496431631 -1546563917 -2024519907 -1503329388 -401772541 -1731185029
REM
CELL 1.54180   50.00000   50.00000   50.00000   90.00000   90.00000   90.00000
LATT -1
SFAC C  
C      1  0.4895100000000  0.5077170000000  0.5001770000000 1.0
C      1  0.4984380000000  0.4863680000000  0.4551750000000 1.0
C      1  0.4597800000000  0.4976650000000  0.5330040000000 1.0
C      1  0.4878340000000  0.5327630000000  0.4586210000000 1.0
C      1  0.5339460000000  0.5236240000000  0.4785910000000 1.0
C      1  0.5180030000000  0.5365300000000  0.5501940000000 1.0
C      1  0.4867250000000  0.5602490000000  0.5224860000000 1.0
C      1  0.4861780000000  0.4473890000000  0.4844830000000 1.0
C      1  0.5067580000000  0.4920000000000  0.5227890000000 1.0
C      1  0.5411630000000  0.5035720000000  0.4528180000000 1.0
C      1  0.4994140000000  0.4162490000000  0.4813280000000 1.0
C      1  0.5214180000000  0.4883510000000  0.4382780000000 1.0
C      1  0.4992780000000  0.5570220000000  0.5475510000000 1.0
C      1  0.5169440000000  0.4381390000000  0.4958190000000 1.0
C      1  0.4675110000000  0.4576630000000  0.5069540000000 1.0
C      1  0.5287510000000  0.4643930000000  0.3905320000000 1.0
C      1  0.4530610000000  0.4843820000000  0.4721790000000 1.0
C      1  0.5446110000000  0.5017590000000  0.5308330000000 1.0
C      1  0.5251870000000  0.4760380000000  0.4137380000000 1.0
C      1  0.4890370000000  0.5591060000000  0.4747110000000 1.0
C      1  0.5426010000000  0.4934570000000  0.4831250000000 1.0
C      1  0.4782060000000  0.4770020000000  0.5241330000000 1.0
C      1  0.4871130000000  0.5019850000000  0.5718240000000 1.0
C      1  0.4958240000000  0.5095950000000  0.4722140000000 1.0
C      1  0.5272430000000  0.5399470000000  0.5008970000000 1.0
C      1  0.4619640000000  0.5030780000000  0.5606740000000 1.0
C      1  0.5347530000000  0.5286720000000  0.5270190000000 1.0
C      1  0.4490710000000  0.5616820000000  0.4930000000000 1.0
C      1  0.5401550000000  0.4885590000000  0.5577890000000 1.0
C      1  0.5118870000000  0.5054260000000  0.5533570000000 1.0
C      1  0.5458480000000  0.4609640000000  0.5589830000000 1.0
C      1  0.4432920000000  0.4671450000000  0.4939660000000 1.0
C      1  0.4544130000000  0.5127320000000  0.4785010000000 1.0
C      1  0.5344990000000  0.4816050000000  0.5087900000000 1.0
C      1  0.5343250000000  0.4516000000000  0.5119340000000 1.0
C      1  0.4775890000000  0.4689130000000  0.4629740000000 1.0
C      1  0.4605200000000  0.5501230000000  0.5157430000000 1.0
C      1  0.5041160000000  0.5582840000000  0.4991140000000 1.0
C      1  0.5443770000000  0.4437020000000  0.5373190000000 1.0
C      1  0.4579210000000  0.5446890000000  0.4672400000000 1.0
C      1  0.4607370000000  0.5198600000000  0.5111420000000 1.0
END
