TITL C-2778423-5760-1294 0.00226087219873022 125000 -633.856344413721 0 0 109 (C1) n - 1
REM
REM in /home/nfs/bkarasulu/CARBON/AIRSS/Generating-Clusters/REBO/Only-C1/SD-CG/HFTN-CG
REM
REM
REM
REM
REM
REM ./C.cell (11c1c37f851c82e70ff6c80c92926a4b)
REM
REM compiler GCC version 9.2.1 20190827 (Red Hat 9.2.1-1)
REM options -cpp -mtune=generic -march=x86-64 -g -O0 -fpre-include=/usr/include/finclude/math-vector-fortran.h
REM seed -22403909 -259889828 -133025535 -2121885761 1288231339 -439113581 -2115102180 1780347039 -407966822 -1930207772 1523639029 -1273377369 1065908672 -1984257250 1725964768 1918511569 -1829071124 1943887495 345658555 506898070 -1182232182 -1762238433 1785312676 1522453576 1140941082 1158744992 61825192 131383803 -986677768 -1284613587 -404155035 -1896640713 625683947
REM
CELL 1.54180   50.00000   50.00000   50.00000   90.00000   90.00000   90.00000
LATT -1
SFAC C  
C      1  0.4149440000000  0.5298800000000  0.4963410000000 1.0
C      1  0.5228310000000  0.5636790000000  0.4366840000000 1.0
C      1  0.4965990000000  0.5168770000000  0.4285320000000 1.0
C      1  0.4412520000000  0.4734730000000  0.5815550000000 1.0
C      1  0.4631800000000  0.5696530000000  0.5160940000000 1.0
C      1  0.5495490000000  0.5095280000000  0.4192270000000 1.0
C      1  0.5764990000000  0.5427020000000  0.4707310000000 1.0
C      1  0.4567410000000  0.5247950000000  0.5346280000000 1.0
C      1  0.5023100000000  0.5360040000000  0.5160730000000 1.0
C      1  0.4962980000000  0.4250460000000  0.5607130000000 1.0
C      1  0.5119690000000  0.4500070000000  0.5619760000000 1.0
C      1  0.4630290000000  0.4814190000000  0.4153560000000 1.0
C      1  0.4949850000000  0.5673460000000  0.5168840000000 1.0
C      1  0.4269700000000  0.4527260000000  0.5024130000000 1.0
C      1  0.4250430000000  0.5213220000000  0.5585430000000 1.0
C      1  0.5265350000000  0.4850520000000  0.4135020000000 1.0
C      1  0.4673360000000  0.4308400000000  0.5195900000000 1.0
C      1  0.5328440000000  0.4186340000000  0.5258980000000 1.0
C      1  0.4435420000000  0.4756150000000  0.4427630000000 1.0
C      1  0.4106340000000  0.4703290000000  0.5271820000000 1.0
C      1  0.5589240000000  0.4598050000000  0.4915660000000 1.0
C      1  0.4948790000000  0.4941230000000  0.5384240000000 1.0
C      1  0.4518280000000  0.5712710000000  0.5418560000000 1.0
C      1  0.4923380000000  0.4160880000000  0.5318230000000 1.0
C      1  0.5071590000000  0.5388930000000  0.4721010000000 1.0
C      1  0.4302740000000  0.5524730000000  0.5456560000000 1.0
C      1  0.5273580000000  0.4616390000000  0.5269420000000 1.0
C      1  0.4599530000000  0.5260790000000  0.4412420000000 1.0
C      1  0.5840810000000  0.4744700000000  0.4731070000000 1.0
C      1  0.5744830000000  0.5459410000000  0.5017540000000 1.0
C      1  0.4719810000000  0.4307550000000  0.5735430000000 1.0
C      1  0.5629920000000  0.4655860000000  0.4524460000000 1.0
C      1  0.4931600000000  0.4899610000000  0.5890440000000 1.0
C      1  0.4912820000000  0.5797620000000  0.4759940000000 1.0
C      1  0.4747150000000  0.5086020000000  0.4888190000000 1.0
C      1  0.4273940000000  0.5107620000000  0.4790290000000 1.0
C      1  0.5295750000000  0.5175000000000  0.5739930000000 1.0
C      1  0.4950550000000  0.5593150000000  0.5622560000000 1.0
C      1  0.4940440000000  0.4856090000000  0.4247430000000 1.0
C      1  0.5699220000000  0.5238200000000  0.4429040000000 1.0
C      1  0.4966620000000  0.4417160000000  0.4242490000000 1.0
C      1  0.5136660000000  0.5236460000000  0.4496370000000 1.0
C      1  0.5433510000000  0.5045090000000  0.4966020000000 1.0
C      1  0.4696510000000  0.4502330000000  0.4266970000000 1.0
C      1  0.5360880000000  0.5070770000000  0.4483730000000 1.0
C      1  0.4572070000000  0.5303050000000  0.5650160000000 1.0
C      1  0.4840440000000  0.5351350000000  0.5741090000000 1.0
C      1  0.5563830000000  0.4845410000000  0.5479570000000 1.0
C      1  0.5424770000000  0.4541690000000  0.5544070000000 1.0
C      1  0.5288550000000  0.6143950000000  0.4877780000000 1.0
C      1  0.4490780000000  0.4993180000000  0.4955200000000 1.0
C      1  0.4294100000000  0.5326140000000  0.5205190000000 1.0
C      1  0.4129590000000  0.4932900000000  0.5429550000000 1.0
C      1  0.5511680000000  0.5093000000000  0.5297360000000 1.0
C      1  0.4272190000000  0.5039580000000  0.4511160000000 1.0
C      1  0.5100840000000  0.5936220000000  0.5007630000000 1.0
C      1  0.3928240000000  0.5441340000000  0.4898400000000 1.0
C      1  0.5588780000000  0.4379210000000  0.4648610000000 1.0
C      1  0.5016150000000  0.4615490000000  0.4911650000000 1.0
C      1  0.5779070000000  0.5167640000000  0.5124850000000 1.0
C      1  0.4467550000000  0.4781870000000  0.5129360000000 1.0
C      1  0.4862160000000  0.4792710000000  0.6134440000000 1.0
C      1  0.5956710000000  0.4991840000000  0.4893940000000 1.0
C      1  0.5612100000000  0.5570340000000  0.4454260000000 1.0
C      1  0.5190330000000  0.5556600000000  0.5466270000000 1.0
C      1  0.5607660000000  0.4305580000000  0.5158430000000 1.0
C      1  0.5672660000000  0.5107140000000  0.4745480000000 1.0
C      1  0.5756700000000  0.4823420000000  0.5112490000000 1.0
C      1  0.4193040000000  0.4422900000000  0.5398220000000 1.0
C      1  0.4903160000000  0.4745130000000  0.5630610000000 1.0
C      1  0.5332040000000  0.5309320000000  0.5484370000000 1.0
C      1  0.5086180000000  0.4346980000000  0.4529220000000 1.0
C      1  0.4751450000000  0.4428380000000  0.4930250000000 1.0
C      1  0.5668610000000  0.4571250000000  0.5306460000000 1.0
C      1  0.5108300000000  0.4184700000000  0.4812330000000 1.0
C      1  0.4923510000000  0.4072700000000  0.4987910000000 1.0
C      1  0.5276680000000  0.5743200000000  0.5218710000000 1.0
C      1  0.5210210000000  0.5643200000000  0.4764140000000 1.0
C      1  0.4508220000000  0.4474560000000  0.4519130000000 1.0
C      1  0.5301960000000  0.4761810000000  0.4884460000000 1.0
C      1  0.5185220000000  0.4868860000000  0.5251080000000 1.0
C      1  0.5455490000000  0.5532610000000  0.5080870000000 1.0
C      1  0.4622750000000  0.4594990000000  0.5638710000000 1.0
C      1  0.5276860000000  0.5306500000000  0.5055720000000 1.0
C      1  0.4804770000000  0.5353640000000  0.4826650000000 1.0
C      1  0.5366490000000  0.4213140000000  0.4936050000000 1.0
C      1  0.4836140000000  0.5174750000000  0.5270030000000 1.0
C      1  0.4235420000000  0.4915870000000  0.5728540000000 1.0
C      1  0.4731920000000  0.5782060000000  0.5600400000000 1.0
C      1  0.4751100000000  0.5490250000000  0.4387540000000 1.0
C      1  0.5392620000000  0.4229120000000  0.4537270000000 1.0
C      1  0.5948730000000  0.5655300000000  0.5131560000000 1.0
C      1  0.5027980000000  0.5162040000000  0.5841470000000 1.0
C      1  0.4890730000000  0.4858950000000  0.4718060000000 1.0
C      1  0.4428930000000  0.5083260000000  0.4211450000000 1.0
C      1  0.4665820000000  0.4980390000000  0.4514140000000 1.0
C      1  0.5482120000000  0.4959510000000  0.5765110000000 1.0
C      1  0.5362460000000  0.4794850000000  0.4571120000000 1.0
C      1  0.4508910000000  0.4546510000000  0.5360730000000 1.0
C      1  0.5430250000000  0.5792940000000  0.4581950000000 1.0
C      1  0.4499120000000  0.4447680000000  0.4791480000000 1.0
C      1  0.4684120000000  0.5617570000000  0.4877640000000 1.0
C      1  0.5165510000000  0.4568330000000  0.4089030000000 1.0
C      1  0.4346600000000  0.4233670000000  0.5181300000000 1.0
C      1  0.5443530000000  0.6078120000000  0.4688190000000 1.0
C      1  0.4958750000000  0.5665420000000  0.4455050000000 1.0
C      1  0.5085010000000  0.4399140000000  0.5149080000000 1.0
C      1  0.5076210000000  0.4687120000000  0.4512820000000 1.0
C      1  0.5407090000000  0.5417980000000  0.4229400000000 1.0
END
