TITL C-2778427-5640-1451 -0.00160910094691967 125000 -444.12756337396 0 0 77 (C1) n - 1
REM
REM in /home/nfs/bkarasulu/CARBON/AIRSS/Generating-Clusters/REBO/Only-C1/SD-CG/HFTN-CG
REM
REM
REM
REM
REM
REM ./C.cell (11c1c37f851c82e70ff6c80c92926a4b)
REM
REM compiler GCC version 9.2.1 20190827 (Red Hat 9.2.1-1)
REM options -cpp -mtune=generic -march=x86-64 -g -O0 -fpre-include=/usr/include/finclude/math-vector-fortran.h
REM seed -100715811 -1013238321 1131968580 200955090 -1739283900 -1069187179 270479229 270402850 -152531201 846991264 1194063662 1507029078 -1011494372 371100923 1244677754 1390206515 -209835533 924804442 1332468753 -1507159054 -1101530800 -769346000 -260628000 -1415753800 -1286297737 -1441307251 -902421384 1110363513 -318347065 -1569873644 -1689670417 -1450321243 231371440
REM
CELL 1.54180   50.00000   50.00000   50.00000   90.00000   90.00000   90.00000
LATT -1
SFAC C  
C      1  0.4768600000000  0.4531370000000  0.4333250000000 1.0
C      1  0.5315080000000  0.4404370000000  0.5193460000000 1.0
C      1  0.4968800000000  0.5559150000000  0.4378920000000 1.0
C      1  0.4473910000000  0.4969420000000  0.4770130000000 1.0
C      1  0.4778160000000  0.5688090000000  0.4814720000000 1.0
C      1  0.4800740000000  0.4669750000000  0.5345340000000 1.0
C      1  0.4783960000000  0.4900300000000  0.4868260000000 1.0
C      1  0.5386890000000  0.4979750000000  0.4558170000000 1.0
C      1  0.4862330000000  0.4335540000000  0.5374460000000 1.0
C      1  0.5046290000000  0.4840730000000  0.5421850000000 1.0
C      1  0.5523850000000  0.4698820000000  0.4532290000000 1.0
C      1  0.5953370000000  0.5134060000000  0.5325520000000 1.0
C      1  0.4488890000000  0.5576820000000  0.4817460000000 1.0
C      1  0.4439510000000  0.4590480000000  0.5660220000000 1.0
C      1  0.5359220000000  0.5257730000000  0.5867440000000 1.0
C      1  0.4879960000000  0.5038630000000  0.4511040000000 1.0
C      1  0.6320820000000  0.5594750000000  0.5449710000000 1.0
C      1  0.5436560000000  0.5048350000000  0.5693210000000 1.0
C      1  0.5104170000000  0.4809640000000  0.4942080000000 1.0
C      1  0.5640850000000  0.5540140000000  0.5032950000000 1.0
C      1  0.5162580000000  0.5442040000000  0.5824490000000 1.0
C      1  0.4577830000000  0.4349040000000  0.5260520000000 1.0
C      1  0.4645770000000  0.5140970000000  0.4335020000000 1.0
C      1  0.4621050000000  0.4789390000000  0.5721610000000 1.0
C      1  0.5293550000000  0.4542190000000  0.4143410000000 1.0
C      1  0.4745610000000  0.5302910000000  0.4684340000000 1.0
C      1  0.4354690000000  0.4981420000000  0.5493970000000 1.0
C      1  0.5251210000000  0.4542700000000  0.4931980000000 1.0
C      1  0.4325010000000  0.4639930000000  0.5129470000000 1.0
C      1  0.4994280000000  0.5490690000000  0.5606350000000 1.0
C      1  0.4807080000000  0.5424790000000  0.5005210000000 1.0
C      1  0.6115040000000  0.5424850000000  0.5408000000000 1.0
C      1  0.4931630000000  0.4468130000000  0.4836690000000 1.0
C      1  0.5469810000000  0.4220180000000  0.4666490000000 1.0
C      1  0.5125610000000  0.4917120000000  0.4381680000000 1.0
C      1  0.4715170000000  0.5441650000000  0.4310840000000 1.0
C      1  0.5593120000000  0.5268440000000  0.5232440000000 1.0
C      1  0.4737490000000  0.5028900000000  0.5669740000000 1.0
C      1  0.4317150000000  0.5127370000000  0.4977190000000 1.0
C      1  0.5262620000000  0.4070480000000  0.4776600000000 1.0
C      1  0.4268010000000  0.5224530000000  0.5583540000000 1.0
C      1  0.5308480000000  0.5230760000000  0.5130830000000 1.0
C      1  0.4410410000000  0.5062910000000  0.4481710000000 1.0
C      1  0.5947190000000  0.5247580000000  0.5646430000000 1.0
C      1  0.5458410000000  0.4500750000000  0.4718920000000 1.0
C      1  0.5229770000000  0.4860260000000  0.5635490000000 1.0
C      1  0.5066270000000  0.4666340000000  0.4258470000000 1.0
C      1  0.4443670000000  0.5430290000000  0.5544530000000 1.0
C      1  0.5202110000000  0.5515330000000  0.5131430000000 1.0
C      1  0.5531270000000  0.4450330000000  0.5355890000000 1.0
C      1  0.5253580000000  0.5771720000000  0.4730030000000 1.0
C      1  0.4355810000000  0.4459590000000  0.5418580000000 1.0
C      1  0.4687950000000  0.4371260000000  0.4117630000000 1.0
C      1  0.4185720000000  0.4940900000000  0.5134490000000 1.0
C      1  0.5286540000000  0.5064280000000  0.4834960000000 1.0
C      1  0.4990490000000  0.5717690000000  0.4623770000000 1.0
C      1  0.5916850000000  0.5411000000000  0.5131470000000 1.0
C      1  0.5062320000000  0.4190460000000  0.4939510000000 1.0
C      1  0.5089900000000  0.5607650000000  0.5369480000000 1.0
C      1  0.4873400000000  0.4706410000000  0.4605590000000 1.0
C      1  0.4205140000000  0.5275260000000  0.4466490000000 1.0
C      1  0.5388410000000  0.5655710000000  0.4952610000000 1.0
C      1  0.4478370000000  0.4646700000000  0.4827530000000 1.0
C      1  0.5204770000000  0.5425470000000  0.4296030000000 1.0
C      1  0.4476880000000  0.5452360000000  0.4533160000000 1.0
C      1  0.5537780000000  0.4599950000000  0.4263770000000 1.0
C      1  0.5664990000000  0.5113980000000  0.5509810000000 1.0
C      1  0.5377530000000  0.5225600000000  0.4350520000000 1.0
C      1  0.4977930000000  0.5179680000000  0.4887650000000 1.0
C      1  0.5142950000000  0.4977790000000  0.5197110000000 1.0
C      1  0.4616910000000  0.5412330000000  0.5262440000000 1.0
C      1  0.4752840000000  0.5324780000000  0.5560700000000 1.0
C      1  0.4506740000000  0.4818840000000  0.5339440000000 1.0
C      1  0.5084820000000  0.4220290000000  0.5242790000000 1.0
C      1  0.4524470000000  0.4519450000000  0.4570680000000 1.0
C      1  0.4410610000000  0.5392960000000  0.5023370000000 1.0
C      1  0.4702480000000  0.4547650000000  0.5036630000000 1.0
END
