TITL C-2778422-5617-1210 0.00838741059610908 125000 -1022.60510170557 0 0 174 (C1) n - 1
REM
REM in /home/nfs/bkarasulu/CARBON/AIRSS/Generating-Clusters/REBO/Only-C1/SD-CG/HFTN-CG
REM
REM
REM
REM
REM
REM ./C.cell (11c1c37f851c82e70ff6c80c92926a4b)
REM
REM compiler GCC version 9.2.1 20190827 (Red Hat 9.2.1-1)
REM options -cpp -mtune=generic -march=x86-64 -g -O0 -fpre-include=/usr/include/finclude/math-vector-fortran.h
REM seed 1998056659 338946243 -680749723 100140770 1827780800 256972397 -1085989318 -2113160426 -1450335338 322519935 107099514 214144332 206231964 -1985262421 -1100484646 548181289 -941432006 1852062394 1306339749 -1894679171 -1984780992 920124925 -1052358117 -884452493 1242612183 -1592092841 1179084968 1687223838 -1970656954 -2123732122 -85009531 -405308053 -182708260
REM
CELL 1.54180   50.00000   50.00000   50.00000   90.00000   90.00000   90.00000
LATT -1
SFAC C  
C      1  0.5657510000000  0.5761450000000  0.5004590000000 1.0
C      1  0.5151250000000  0.5092460000000  0.3926440000000 1.0
C      1  0.4747310000000  0.4672950000000  0.4408830000000 1.0
C      1  0.4815460000000  0.3892750000000  0.4941940000000 1.0
C      1  0.4291160000000  0.4797990000000  0.4201750000000 1.0
C      1  0.5055060000000  0.4523990000000  0.4803050000000 1.0
C      1  0.5381170000000  0.5289860000000  0.4551310000000 1.0
C      1  0.5598970000000  0.4909450000000  0.5733440000000 1.0
C      1  0.5028790000000  0.4489880000000  0.5801760000000 1.0
C      1  0.4339430000000  0.4227350000000  0.5425170000000 1.0
C      1  0.4540540000000  0.5594530000000  0.5503150000000 1.0
C      1  0.5982090000000  0.5436620000000  0.5363860000000 1.0
C      1  0.5765640000000  0.5269280000000  0.4337200000000 1.0
C      1  0.4010360000000  0.4603310000000  0.4702910000000 1.0
C      1  0.3890350000000  0.4840210000000  0.4904440000000 1.0
C      1  0.4586440000000  0.5314640000000  0.5145840000000 1.0
C      1  0.4517370000000  0.4229680000000  0.5685580000000 1.0
C      1  0.4474840000000  0.4189210000000  0.4726420000000 1.0
C      1  0.5098050000000  0.5680670000000  0.5066670000000 1.0
C      1  0.4285690000000  0.5295990000000  0.5848200000000 1.0
C      1  0.5025120000000  0.5650440000000  0.4543180000000 1.0
C      1  0.5033590000000  0.5986100000000  0.5315280000000 1.0
C      1  0.5382470000000  0.4380420000000  0.5374630000000 1.0
C      1  0.4164170000000  0.5328050000000  0.4402360000000 1.0
C      1  0.4925170000000  0.5117340000000  0.5937170000000 1.0
C      1  0.4576760000000  0.4771450000000  0.5206910000000 1.0
C      1  0.5097130000000  0.4236110000000  0.5876600000000 1.0
C      1  0.5883170000000  0.4513520000000  0.4686740000000 1.0
C      1  0.4931310000000  0.4414760000000  0.4272830000000 1.0
C      1  0.5197840000000  0.5541470000000  0.4798740000000 1.0
C      1  0.5481510000000  0.4655410000000  0.5081220000000 1.0
C      1  0.4180810000000  0.5732360000000  0.4791060000000 1.0
C      1  0.4118060000000  0.5419960000000  0.5098940000000 1.0
C      1  0.5650060000000  0.5810340000000  0.5323440000000 1.0
C      1  0.4630950000000  0.4999260000000  0.5694250000000 1.0
C      1  0.5742410000000  0.5112600000000  0.5155670000000 1.0
C      1  0.5379340000000  0.4922580000000  0.3929370000000 1.0
C      1  0.5904520000000  0.5338130000000  0.5099150000000 1.0
C      1  0.5193970000000  0.6053790000000  0.4778250000000 1.0
C      1  0.5024880000000  0.4247970000000  0.5484180000000 1.0
C      1  0.5181540000000  0.5811310000000  0.5568880000000 1.0
C      1  0.5337670000000  0.5873840000000  0.5211700000000 1.0
C      1  0.5707600000000  0.4415850000000  0.5469240000000 1.0
C      1  0.5877500000000  0.4839000000000  0.4771960000000 1.0
C      1  0.5380470000000  0.4634030000000  0.4023030000000 1.0
C      1  0.5207600000000  0.4404790000000  0.4607610000000 1.0
C      1  0.5507320000000  0.4813500000000  0.4499690000000 1.0
C      1  0.5116780000000  0.5804330000000  0.4187940000000 1.0
C      1  0.5648310000000  0.5544870000000  0.5733460000000 1.0
C      1  0.4169240000000  0.4565250000000  0.4418520000000 1.0
C      1  0.4808460000000  0.4999780000000  0.5246400000000 1.0
C      1  0.5717180000000  0.4886330000000  0.4235090000000 1.0
C      1  0.4524720000000  0.5105680000000  0.4801670000000 1.0
C      1  0.4047260000000  0.5538600000000  0.4643750000000 1.0
C      1  0.4553750000000  0.4004760000000  0.4929200000000 1.0
C      1  0.4993260000000  0.5628460000000  0.5787400000000 1.0
C      1  0.5470960000000  0.4416570000000  0.4906900000000 1.0
C      1  0.5605460000000  0.5071780000000  0.4028600000000 1.0
C      1  0.4095300000000  0.4469250000000  0.5004810000000 1.0
C      1  0.4989530000000  0.6056140000000  0.4983120000000 1.0
C      1  0.5886400000000  0.4681950000000  0.5537160000000 1.0
C      1  0.4146320000000  0.4438960000000  0.5339860000000 1.0
C      1  0.5181660000000  0.5332260000000  0.4073900000000 1.0
C      1  0.5222840000000  0.4070690000000  0.5666950000000 1.0
C      1  0.4803040000000  0.5458270000000  0.4078200000000 1.0
C      1  0.4407290000000  0.5314040000000  0.5530910000000 1.0
C      1  0.4782290000000  0.5265300000000  0.5403250000000 1.0
C      1  0.5758460000000  0.4333800000000  0.5171550000000 1.0
C      1  0.4688440000000  0.5545280000000  0.5785240000000 1.0
C      1  0.4896180000000  0.4992780000000  0.3973110000000 1.0
C      1  0.5182630000000  0.5928920000000  0.4481930000000 1.0
C      1  0.4137760000000  0.5101190000000  0.4175590000000 1.0
C      1  0.4364850000000  0.4462660000000  0.4817570000000 1.0
C      1  0.5624450000000  0.4580410000000  0.4196940000000 1.0
C      1  0.5228260000000  0.4600930000000  0.5582690000000 1.0
C      1  0.5784140000000  0.5013570000000  0.4527180000000 1.0
C      1  0.4224780000000  0.5732390000000  0.5116720000000 1.0
C      1  0.4791760000000  0.5438160000000  0.4475930000000 1.0
C      1  0.4817410000000  0.4420810000000  0.4922310000000 1.0
C      1  0.4392390000000  0.4605890000000  0.5634060000000 1.0
C      1  0.5629320000000  0.4788480000000  0.5353980000000 1.0
C      1  0.4726290000000  0.4157080000000  0.5494900000000 1.0
C      1  0.4516850000000  0.5768750000000  0.5213420000000 1.0
C      1  0.5615910000000  0.5569620000000  0.4364250000000 1.0
C      1  0.4841400000000  0.5712960000000  0.4182420000000 1.0
C      1  0.5133740000000  0.4094590000000  0.4560010000000 1.0
C      1  0.5624190000000  0.4920640000000  0.4950650000000 1.0
C      1  0.4607890000000  0.4648060000000  0.4924020000000 1.0
C      1  0.5574070000000  0.5395620000000  0.4083950000000 1.0
C      1  0.4448810000000  0.5004800000000  0.5417240000000 1.0
C      1  0.4787900000000  0.5810080000000  0.5018900000000 1.0
C      1  0.5204180000000  0.5295170000000  0.5852300000000 1.0
C      1  0.4661260000000  0.5636150000000  0.4704900000000 1.0
C      1  0.5119000000000  0.5370430000000  0.4388270000000 1.0
C      1  0.4213810000000  0.5177800000000  0.4682440000000 1.0
C      1  0.3975310000000  0.5141530000000  0.4849840000000 1.0
C      1  0.4037680000000  0.5580610000000  0.5361610000000 1.0
C      1  0.5504280000000  0.5195480000000  0.5856200000000 1.0
C      1  0.4288610000000  0.4945010000000  0.4997470000000 1.0
C      1  0.5516030000000  0.5392680000000  0.5464810000000 1.0
C      1  0.4313020000000  0.5228160000000  0.5115860000000 1.0
C      1  0.4930030000000  0.5520430000000  0.5469650000000 1.0
C      1  0.4688080000000  0.4852750000000  0.4680280000000 1.0
C      1  0.5119190000000  0.4759530000000  0.4948030000000 1.0
C      1  0.4621830000000  0.4331930000000  0.5936400000000 1.0
C      1  0.5338200000000  0.4039290000000  0.5349960000000 1.0
C      1  0.5882990000000  0.5742880000000  0.4790140000000 1.0
C      1  0.5817780000000  0.5652670000000  0.5483630000000 1.0
C      1  0.4410420000000  0.5829020000000  0.4654440000000 1.0
C      1  0.5156140000000  0.4901910000000  0.5506940000000 1.0
C      1  0.3939540000000  0.5056800000000  0.5156240000000 1.0
C      1  0.5308180000000  0.5611700000000  0.4086490000000 1.0
C      1  0.5034870000000  0.4787630000000  0.4282800000000 1.0
C      1  0.5361030000000  0.5189790000000  0.5082150000000 1.0
C      1  0.4697130000000  0.4606090000000  0.5997420000000 1.0
C      1  0.5430030000000  0.5973100000000  0.4914490000000 1.0
C      1  0.5851780000000  0.5451130000000  0.4844840000000 1.0
C      1  0.4480160000000  0.4473780000000  0.4338110000000 1.0
C      1  0.4295580000000  0.4788250000000  0.4721580000000 1.0
C      1  0.5246690000000  0.4724470000000  0.6124270000000 1.0
C      1  0.6007100000000  0.4916120000000  0.5379660000000 1.0
C      1  0.5119580000000  0.4312030000000  0.5165450000000 1.0
C      1  0.4614480000000  0.5781740000000  0.4384740000000 1.0
C      1  0.4843670000000  0.4697530000000  0.4008100000000 1.0
C      1  0.4109610000000  0.5054150000000  0.5412520000000 1.0
C      1  0.5895910000000  0.4514020000000  0.5000430000000 1.0
C      1  0.4622470000000  0.5259500000000  0.5884020000000 1.0
C      1  0.4900280000000  0.4791620000000  0.5707310000000 1.0
C      1  0.4419290000000  0.5522930000000  0.4360990000000 1.0
C      1  0.5012780000000  0.5270590000000  0.4760410000000 1.0
C      1  0.4586580000000  0.4549790000000  0.5436340000000 1.0
C      1  0.4591480000000  0.4212930000000  0.4474510000000 1.0
C      1  0.5113000000000  0.3877790000000  0.4799460000000 1.0
C      1  0.4554220000000  0.4643860000000  0.4061310000000 1.0
C      1  0.4971670000000  0.4719000000000  0.5208990000000 1.0
C      1  0.5095150000000  0.5360370000000  0.5140250000000 1.0
C      1  0.5532770000000  0.5478760000000  0.5135090000000 1.0
C      1  0.5241790000000  0.5517440000000  0.5402260000000 1.0
C      1  0.4716090000000  0.5356970000000  0.4859070000000 1.0
C      1  0.4871360000000  0.4177180000000  0.4415330000000 1.0
C      1  0.5612480000000  0.5105970000000  0.5456030000000 1.0
C      1  0.4179340000000  0.4739530000000  0.5176350000000 1.0
C      1  0.5216120000000  0.4931750000000  0.4509890000000 1.0
C      1  0.5121040000000  0.4499850000000  0.4036150000000 1.0
C      1  0.4787900000000  0.4222040000000  0.5165810000000 1.0
C      1  0.4791930000000  0.5806540000000  0.5414880000000 1.0
C      1  0.4880500000000  0.4530650000000  0.5399020000000 1.0
C      1  0.5523980000000  0.4134460000000  0.5093250000000 1.0
C      1  0.5988540000000  0.4806700000000  0.5096300000000 1.0
C      1  0.5481830000000  0.4711930000000  0.5985120000000 1.0
C      1  0.5994280000000  0.5188830000000  0.5535930000000 1.0
C      1  0.4548090000000  0.5211420000000  0.4406200000000 1.0
C      1  0.5017080000000  0.5160010000000  0.5614990000000 1.0
C      1  0.4138050000000  0.4734680000000  0.5509000000000 1.0
C      1  0.4467470000000  0.4105860000000  0.5202140000000 1.0
C      1  0.5815270000000  0.5250290000000  0.5767610000000 1.0
C      1  0.5333600000000  0.5591680000000  0.5784140000000 1.0
C      1  0.4792930000000  0.5151870000000  0.4203410000000 1.0
C      1  0.5627240000000  0.5352800000000  0.4699410000000 1.0
C      1  0.5495400000000  0.4521160000000  0.4591410000000 1.0
C      1  0.5333300000000  0.4917500000000  0.5246070000000 1.0
C      1  0.5096910000000  0.3975100000000  0.5118180000000 1.0
C      1  0.5748690000000  0.4417500000000  0.4428150000000 1.0
C      1  0.5364630000000  0.4103840000000  0.4814020000000 1.0
C      1  0.4960640000000  0.4800690000000  0.6042710000000 1.0
C      1  0.4368690000000  0.4959450000000  0.4466570000000 1.0
C      1  0.5414370000000  0.5708390000000  0.4594100000000 1.0
C      1  0.5736010000000  0.5809700000000  0.4549790000000 1.0
C      1  0.4080400000000  0.5342820000000  0.5578840000000 1.0
C      1  0.4512550000000  0.4753380000000  0.5842780000000 1.0
C      1  0.5529550000000  0.4586600000000  0.5683030000000 1.0
C      1  0.4995570000000  0.5060180000000  0.5003570000000 1.0
C      1  0.5373580000000  0.5057840000000  0.4784660000000 1.0
C      1  0.4901530000000  0.5061160000000  0.4516380000000 1.0
END
