TITL C-2778422-5617-219 -0.00533633995316526 125000 -682.316112886647 0 0 116 (C1) n - 1
REM
REM in /home/nfs/bkarasulu/CARBON/AIRSS/Generating-Clusters/REBO/Only-C1/SD-CG/HFTN-CG
REM
REM
REM
REM
REM
REM ./C.cell (11c1c37f851c82e70ff6c80c92926a4b)
REM
REM compiler GCC version 9.2.1 20190827 (Red Hat 9.2.1-1)
REM options -cpp -mtune=generic -march=x86-64 -g -O0 -fpre-include=/usr/include/finclude/math-vector-fortran.h
REM seed -1367878628 -1009962881 -242071378 -1878028394 1653446930 -924471876 1381063752 -381722578 -1519681222 469879346 1222237178 899518881 3789032 1150538358 -1965482992 -880269745 117498598 1489403666 -1601981683 -1181069709 -508034015 -964384217 -1992608809 -61783631 1537209982 -1509273069 -943832612 -2024901052 315802634 -1110546935 936786655 -1833088419 2008267908
REM
CELL 1.54180   50.00000   50.00000   50.00000   90.00000   90.00000   90.00000
LATT -1
SFAC C  
C      1  0.5285550000000  0.4726060000000  0.5592400000000 1.0
C      1  0.4681980000000  0.5186050000000  0.5905460000000 1.0
C      1  0.4503700000000  0.4719920000000  0.5834200000000 1.0
C      1  0.4450730000000  0.5589680000000  0.5215840000000 1.0
C      1  0.4454660000000  0.4945430000000  0.5510690000000 1.0
C      1  0.5873110000000  0.5337460000000  0.5324550000000 1.0
C      1  0.5610780000000  0.4618700000000  0.5385810000000 1.0
C      1  0.5196900000000  0.4709890000000  0.5102250000000 1.0
C      1  0.4970870000000  0.4852900000000  0.4441290000000 1.0
C      1  0.4976150000000  0.4909830000000  0.4123230000000 1.0
C      1  0.4769270000000  0.4430600000000  0.5232500000000 1.0
C      1  0.4739450000000  0.4483140000000  0.4290560000000 1.0
C      1  0.4357500000000  0.4715290000000  0.4662670000000 1.0
C      1  0.5032490000000  0.5103210000000  0.4650680000000 1.0
C      1  0.4757900000000  0.4132630000000  0.4623310000000 1.0
C      1  0.5456580000000  0.5136490000000  0.5202140000000 1.0
C      1  0.4883890000000  0.5972790000000  0.4732790000000 1.0
C      1  0.5335080000000  0.4420550000000  0.5341120000000 1.0
C      1  0.5905500000000  0.5030530000000  0.4923670000000 1.0
C      1  0.5227670000000  0.5548020000000  0.4668770000000 1.0
C      1  0.4463480000000  0.4995620000000  0.5907140000000 1.0
C      1  0.4747040000000  0.4877170000000  0.5026640000000 1.0
C      1  0.5288010000000  0.4974860000000  0.4243210000000 1.0
C      1  0.5667580000000  0.4581250000000  0.4958130000000 1.0
C      1  0.4375540000000  0.4768830000000  0.4169510000000 1.0
C      1  0.5352680000000  0.5853310000000  0.5141010000000 1.0
C      1  0.4343890000000  0.5279290000000  0.4846110000000 1.0
C      1  0.4729610000000  0.5381100000000  0.5407120000000 1.0
C      1  0.4938840000000  0.4320070000000  0.4806770000000 1.0
C      1  0.4862710000000  0.5837990000000  0.4491120000000 1.0
C      1  0.4869100000000  0.3924930000000  0.5069160000000 1.0
C      1  0.5286930000000  0.4126260000000  0.4784990000000 1.0
C      1  0.4386210000000  0.5530060000000  0.4945860000000 1.0
C      1  0.5853480000000  0.5210710000000  0.4378490000000 1.0
C      1  0.5754480000000  0.5390780000000  0.4552240000000 1.0
C      1  0.4682570000000  0.5114290000000  0.5217040000000 1.0
C      1  0.5885530000000  0.5322610000000  0.5012440000000 1.0
C      1  0.5462170000000  0.5460280000000  0.5239790000000 1.0
C      1  0.5693740000000  0.4817650000000  0.4805100000000 1.0
C      1  0.5254140000000  0.5768610000000  0.5386100000000 1.0
C      1  0.4307550000000  0.5126510000000  0.5349620000000 1.0
C      1  0.4659440000000  0.5364180000000  0.4462760000000 1.0
C      1  0.4071680000000  0.4848260000000  0.4236060000000 1.0
C      1  0.4767350000000  0.4624640000000  0.5914500000000 1.0
C      1  0.5096140000000  0.5300660000000  0.5244310000000 1.0
C      1  0.4523630000000  0.4272700000000  0.5129270000000 1.0
C      1  0.4393540000000  0.4556040000000  0.5183800000000 1.0
C      1  0.4876780000000  0.4470500000000  0.5699060000000 1.0
C      1  0.5644690000000  0.4319360000000  0.5240100000000 1.0
C      1  0.5113180000000  0.5300480000000  0.5515170000000 1.0
C      1  0.4867400000000  0.5402240000000  0.4218530000000 1.0
C      1  0.5215590000000  0.4472870000000  0.4185430000000 1.0
C      1  0.5508130000000  0.5089420000000  0.4892160000000 1.0
C      1  0.4390170000000  0.5053600000000  0.5046640000000 1.0
C      1  0.4976970000000  0.5073760000000  0.5642140000000 1.0
C      1  0.5112480000000  0.5129800000000  0.4950590000000 1.0
C      1  0.3915760000000  0.5116500000000  0.4699150000000 1.0
C      1  0.5279840000000  0.4808110000000  0.4544790000000 1.0
C      1  0.5298530000000  0.4870440000000  0.5346580000000 1.0
C      1  0.5213290000000  0.5485540000000  0.5777870000000 1.0
C      1  0.5450570000000  0.5740450000000  0.4835030000000 1.0
C      1  0.5199620000000  0.4404820000000  0.4610590000000 1.0
C      1  0.5673270000000  0.4757930000000  0.4504520000000 1.0
C      1  0.4127830000000  0.4908470000000  0.4555640000000 1.0
C      1  0.5080540000000  0.3956070000000  0.4891880000000 1.0
C      1  0.5744780000000  0.5569890000000  0.4824980000000 1.0
C      1  0.4413050000000  0.5507970000000  0.4525410000000 1.0
C      1  0.4923640000000  0.5085770000000  0.6034240000000 1.0
C      1  0.4890300000000  0.4666280000000  0.5137060000000 1.0
C      1  0.5789590000000  0.4879530000000  0.5518760000000 1.0
C      1  0.4139770000000  0.5577280000000  0.4634850000000 1.0
C      1  0.5477290000000  0.5311050000000  0.4680020000000 1.0
C      1  0.5156670000000  0.5906600000000  0.4896980000000 1.0
C      1  0.5428280000000  0.5546110000000  0.5550180000000 1.0
C      1  0.4964640000000  0.4586430000000  0.4145580000000 1.0
C      1  0.5429490000000  0.4543370000000  0.4429330000000 1.0
C      1  0.5465280000000  0.5051200000000  0.5871010000000 1.0
C      1  0.4593930000000  0.4013320000000  0.5031510000000 1.0
C      1  0.4748240000000  0.4209410000000  0.4356710000000 1.0
C      1  0.4847470000000  0.5837190000000  0.5019740000000 1.0
C      1  0.5134850000000  0.4467250000000  0.5588830000000 1.0
C      1  0.5190410000000  0.5364410000000  0.4214930000000 1.0
C      1  0.5272570000000  0.5201670000000  0.4476330000000 1.0
C      1  0.4507890000000  0.4634520000000  0.4398530000000 1.0
C      1  0.4980710000000  0.5772420000000  0.5476130000000 1.0
C      1  0.4731430000000  0.4861680000000  0.4755020000000 1.0
C      1  0.5243360000000  0.5431830000000  0.4980540000000 1.0
C      1  0.4747300000000  0.4998930000000  0.5523200000000 1.0
C      1  0.4272690000000  0.5210690000000  0.4548190000000 1.0
C      1  0.4325920000000  0.5409090000000  0.5399760000000 1.0
C      1  0.3951000000000  0.5388290000000  0.4705870000000 1.0
C      1  0.4970790000000  0.5684660000000  0.5739220000000 1.0
C      1  0.5667780000000  0.4891520000000  0.5209260000000 1.0
C      1  0.4772670000000  0.5131710000000  0.4077940000000 1.0
C      1  0.5159780000000  0.4384250000000  0.5057270000000 1.0
C      1  0.4912100000000  0.4803250000000  0.6086500000000 1.0
C      1  0.5409820000000  0.4778390000000  0.5838910000000 1.0
C      1  0.5795920000000  0.4943490000000  0.4347080000000 1.0
C      1  0.4920350000000  0.4604100000000  0.4634890000000 1.0
C      1  0.5288110000000  0.4859980000000  0.4838120000000 1.0
C      1  0.5679350000000  0.5633740000000  0.5142460000000 1.0
C      1  0.5462150000000  0.4227260000000  0.5015240000000 1.0
C      1  0.4996010000000  0.5599260000000  0.4464600000000 1.0
C      1  0.4235790000000  0.5130170000000  0.4242380000000 1.0
C      1  0.4703750000000  0.5363290000000  0.5680660000000 1.0
C      1  0.5697150000000  0.5363200000000  0.5547810000000 1.0
C      1  0.5674770000000  0.5120290000000  0.5693660000000 1.0
C      1  0.5967350000000  0.5020900000000  0.5260120000000 1.0
C      1  0.4757810000000  0.5688850000000  0.5265080000000 1.0
C      1  0.4504480000000  0.5055080000000  0.4092810000000 1.0
C      1  0.4676520000000  0.4447530000000  0.5504110000000 1.0
C      1  0.4375400000000  0.4745410000000  0.4960870000000 1.0
C      1  0.5193140000000  0.5189490000000  0.5889540000000 1.0
C      1  0.4410940000000  0.4631740000000  0.5516460000000 1.0
C      1  0.4551350000000  0.3991400000000  0.4751610000000 1.0
C      1  0.4714720000000  0.5120630000000  0.4591620000000 1.0
END
