TITL C-2778436-5916-1380 -0.00108615615090376 125000 -370.605320812646 0 0 64 (C1) n - 1
REM
REM in /home/nfs/bkarasulu/CARBON/AIRSS/Generating-Clusters/REBO/Only-C1/SD-CG/HFTN-CG
REM
REM
REM
REM
REM
REM ./C.cell (11c1c37f851c82e70ff6c80c92926a4b)
REM
REM compiler GCC version 9.2.1 20190827 (Red Hat 9.2.1-1)
REM options -cpp -mtune=generic -march=x86-64 -g -O0 -fpre-include=/usr/include/finclude/math-vector-fortran.h
REM seed -2104771561 856798904 -609749660 641343848 2080741737 709544824 -1921086529 -23320709 2099493460 -1691960539 7838207 -433816396 -1993680012 1941232498 1266703194 -1850446999 1681678303 -1765458318 -1824578720 378518172 -316362691 -908757558 947649644 -1571351924 -922069183 -187639397 -272243402 -899453636 -1713962523 -1629744604 432791064 -578041481 1547539070
REM
CELL 1.54180   50.00000   50.00000   50.00000   90.00000   90.00000   90.00000
LATT -1
SFAC C  
C      1  0.4532900000000  0.5499720000000  0.5510570000000 1.0
C      1  0.4718230000000  0.5615950000000  0.5080260000000 1.0
C      1  0.5446800000000  0.4886090000000  0.4630840000000 1.0
C      1  0.4566410000000  0.5552780000000  0.4812000000000 1.0
C      1  0.4353990000000  0.5351900000000  0.5351730000000 1.0
C      1  0.4681830000000  0.4447240000000  0.5272970000000 1.0
C      1  0.4278920000000  0.5218640000000  0.4602900000000 1.0
C      1  0.4639340000000  0.4190000000000  0.4832100000000 1.0
C      1  0.4416860000000  0.5054560000000  0.4421960000000 1.0
C      1  0.5541270000000  0.5353110000000  0.4776890000000 1.0
C      1  0.4897210000000  0.5516230000000  0.4736820000000 1.0
C      1  0.4831720000000  0.4657800000000  0.4823520000000 1.0
C      1  0.4869940000000  0.5469540000000  0.5549920000000 1.0
C      1  0.4751180000000  0.4936890000000  0.4962910000000 1.0
C      1  0.3817010000000  0.4778290000000  0.4803160000000 1.0
C      1  0.5023010000000  0.5545450000000  0.4455030000000 1.0
C      1  0.5179380000000  0.4378180000000  0.5547910000000 1.0
C      1  0.4776840000000  0.5195800000000  0.4743590000000 1.0
C      1  0.5904700000000  0.4906640000000  0.5445540000000 1.0
C      1  0.5239940000000  0.5101190000000  0.5038690000000 1.0
C      1  0.4483970000000  0.4759610000000  0.4414010000000 1.0
C      1  0.4378410000000  0.4470820000000  0.5171620000000 1.0
C      1  0.4935380000000  0.5209030000000  0.5729810000000 1.0
C      1  0.4995550000000  0.4706160000000  0.5267840000000 1.0
C      1  0.4982590000000  0.5089430000000  0.4280910000000 1.0
C      1  0.5415220000000  0.5283600000000  0.4321750000000 1.0
C      1  0.5345680000000  0.4594890000000  0.5581140000000 1.0
C      1  0.5603490000000  0.4758580000000  0.5085710000000 1.0
C      1  0.4718600000000  0.5694790000000  0.5349440000000 1.0
C      1  0.5768020000000  0.4585490000000  0.4954990000000 1.0
C      1  0.4731810000000  0.4946880000000  0.5643340000000 1.0
C      1  0.4472700000000  0.4934130000000  0.5113320000000 1.0
C      1  0.5422470000000  0.4853440000000  0.5555490000000 1.0
C      1  0.5564610000000  0.5226880000000  0.5271630000000 1.0
C      1  0.5903830000000  0.5529110000000  0.4982770000000 1.0
C      1  0.4968300000000  0.5088160000000  0.5153410000000 1.0
C      1  0.5642160000000  0.4928770000000  0.5341700000000 1.0
C      1  0.5338670000000  0.4732360000000  0.4356990000000 1.0
C      1  0.5949710000000  0.4300560000000  0.4601900000000 1.0
C      1  0.5317810000000  0.5304630000000  0.5380520000000 1.0
C      1  0.5099030000000  0.5475680000000  0.5299780000000 1.0
C      1  0.4355400000000  0.5214550000000  0.5103400000000 1.0
C      1  0.4280840000000  0.4704200000000  0.5065580000000 1.0
C      1  0.5328210000000  0.5354520000000  0.4961110000000 1.0
C      1  0.4881000000000  0.4403260000000  0.5497600000000 1.0
C      1  0.5574050000000  0.4598970000000  0.4525060000000 1.0
C      1  0.4676490000000  0.4808310000000  0.5333800000000 1.0
C      1  0.5525800000000  0.5173360000000  0.4559130000000 1.0
C      1  0.5133440000000  0.5329150000000  0.4304820000000 1.0
C      1  0.5237440000000  0.5096840000000  0.5609680000000 1.0
C      1  0.5084200000000  0.4720810000000  0.5004710000000 1.0
C      1  0.4365390000000  0.5347800000000  0.4841770000000 1.0
C      1  0.4964210000000  0.5067090000000  0.5432340000000 1.0
C      1  0.4949720000000  0.4699940000000  0.5600050000000 1.0
C      1  0.4776510000000  0.5320770000000  0.5057620000000 1.0
C      1  0.4042930000000  0.4742200000000  0.4930980000000 1.0
C      1  0.5100960000000  0.5544650000000  0.4995850000000 1.0
C      1  0.5131990000000  0.4855130000000  0.4217820000000 1.0
C      1  0.4711590000000  0.4409850000000  0.4958890000000 1.0
C      1  0.5364570000000  0.4847930000000  0.4921320000000 1.0
C      1  0.5772650000000  0.4488620000000  0.4685590000000 1.0
C      1  0.4753190000000  0.5047470000000  0.4471900000000 1.0
C      1  0.4745240000000  0.4713580000000  0.4540220000000 1.0
C      1  0.5738700000000  0.5381990000000  0.5123380000000 1.0
END
