TITL C-2778423-5760-158 1.19303012049138e-05 125000 -128.643679633848 0 0 23 (C1) n - 1
REM
REM in /home/nfs/bkarasulu/CARBON/AIRSS/Generating-Clusters/REBO/Only-C1/SD-CG/HFTN-CG
REM
REM
REM
REM
REM
REM ./C.cell (11c1c37f851c82e70ff6c80c92926a4b)
REM
REM compiler GCC version 9.2.1 20190827 (Red Hat 9.2.1-1)
REM options -cpp -mtune=generic -march=x86-64 -g -O0 -fpre-include=/usr/include/finclude/math-vector-fortran.h
REM seed 33827186 736604668 481063489 90402114 -1557770487 -1635009770 -98268916 -66246051 119744916 -581245791 -826587866 552227700 1587311187 -1217365024 1268849827 451260280 -1470532681 -823911185 633066724 1924778594 107988980 -698066590 1488557573 -861563261 2013540500 -1910902485 192336916 -274888455 124536334 -1786808746 -1215681460 1507889374 -1480621274
REM
CELL 1.54180   50.00000   50.00000   50.00000   90.00000   90.00000   90.00000
LATT -1
SFAC C  
C      1  0.4912130000000  0.4637640000000  0.5119150000000 1.0
C      1  0.5280750000000  0.5568190000000  0.5607340000000 1.0
C      1  0.5184780000000  0.4588000000000  0.4070970000000 1.0
C      1  0.4448090000000  0.4853500000000  0.4922080000000 1.0
C      1  0.4912450000000  0.4659700000000  0.4785290000000 1.0
C      1  0.4523440000000  0.5118230000000  0.4949770000000 1.0
C      1  0.5177200000000  0.4811660000000  0.5238200000000 1.0
C      1  0.4994400000000  0.4494890000000  0.4532260000000 1.0
C      1  0.5098500000000  0.4666710000000  0.4322150000000 1.0
C      1  0.4898770000000  0.4845730000000  0.5386540000000 1.0
C      1  0.5423170000000  0.5442010000000  0.5408650000000 1.0
C      1  0.4624490000000  0.4649260000000  0.4943920000000 1.0
C      1  0.5266420000000  0.4513530000000  0.3833340000000 1.0
C      1  0.5129960000000  0.5728260000000  0.5846350000000 1.0
C      1  0.5247020000000  0.5055260000000  0.5099680000000 1.0
C      1  0.4793250000000  0.5111470000000  0.5357960000000 1.0
C      1  0.4816510000000  0.5308250000000  0.5556540000000 1.0
C      1  0.5409950000000  0.5250460000000  0.5218660000000 1.0
C      1  0.4773620000000  0.5185310000000  0.5072400000000 1.0
C      1  0.4972380000000  0.5497330000000  0.5680480000000 1.0
C      1  0.4996960000000  0.4949770000000  0.4698010000000 1.0
C      1  0.5093860000000  0.4936710000000  0.4428200000000 1.0
C      1  0.5021910000000  0.5128130000000  0.4922050000000 1.0
END
