TITL C-2778432-5617-813 0.354311671509617 125000 -751.474440324958 0 0 131 (C1) n - 1
REM
REM in /home/nfs/bkarasulu/CARBON/AIRSS/Generating-Clusters/REBO/Only-C1/SD-CG/HFTN-CG
REM
REM
REM
REM
REM
REM ./C.cell (11c1c37f851c82e70ff6c80c92926a4b)
REM
REM compiler GCC version 9.2.1 20190827 (Red Hat 9.2.1-1)
REM options -cpp -mtune=generic -march=x86-64 -g -O0 -fpre-include=/usr/include/finclude/math-vector-fortran.h
REM seed -1620669537 -938957233 1359252630 -1735673006 -1254879415 -2043350655 -1707010141 2121927477 715297157 -764884514 -1590931552 -761283095 -612130719 -1849618275 -1960497016 -1509571130 -1157021077 141388533 -313193347 282629958 1477459338 524893799 98669447 -1930702062 539980163 -1530085848 1964734651 -1324168780 -1771771047 -1838016567 -1549653340 911256276 959832253
REM
CELL 1.54180   50.00000   50.00000   50.00000   90.00000   90.00000   90.00000
LATT -1
SFAC C  
C      1  0.5255240000000  0.5154780000000  0.3977640000000 1.0
C      1  0.5789590000000  0.5207910000000  0.5548560000000 1.0
C      1  0.5658420000000  0.5650590000000  0.5215290000000 1.0
C      1  0.4704120000000  0.5320410000000  0.4564210000000 1.0
C      1  0.4558340000000  0.4286140000000  0.4757380000000 1.0
C      1  0.5832550000000  0.5115580000000  0.5226260000000 1.0
C      1  0.5574540000000  0.4052500000000  0.5052290000000 1.0
C      1  0.5179690000000  0.4856490000000  0.5312980000000 1.0
C      1  0.5051410000000  0.4141530000000  0.4541510000000 1.0
C      1  0.4962030000000  0.4965150000000  0.4524080000000 1.0
C      1  0.5728970000000  0.4283970000000  0.5053920000000 1.0
C      1  0.5162800000000  0.5794780000000  0.4502420000000 1.0
C      1  0.5026710000000  0.5633970000000  0.5216730000000 1.0
C      1  0.5313420000000  0.4418640000000  0.5698700000000 1.0
C      1  0.4858380000000  0.5797610000000  0.4663160000000 1.0
C      1  0.4781270000000  0.4269660000000  0.4496960000000 1.0
C      1  0.5689480000000  0.4829720000000  0.5465770000000 1.0
C      1  0.5242670000000  0.4529500000000  0.4561020000000 1.0
C      1  0.4819130000000  0.5078600000000  0.6024320000000 1.0
C      1  0.4402300000000  0.4506740000000  0.5622470000000 1.0
C      1  0.4376200000000  0.4639530000000  0.4349280000000 1.0
C      1  0.4801910000000  0.4284200000000  0.5736840000000 1.0
C      1  0.4854310000000  0.4131720000000  0.5182470000000 1.0
C      1  0.4556270000000  0.4971440000000  0.4926570000000 1.0
C      1  0.4287140000000  0.5011430000000  0.5478830000000 1.0
C      1  0.5606580000000  0.4580310000000  0.5167640000000 1.0
C      1  0.5033750000000  0.4460690000000  0.5891800000000 1.0
C      1  0.4396670000000  0.5038540000000  0.4361740000000 1.0
C      1  0.5490320000000  0.5686980000000  0.4919600000000 1.0
C      1  0.5200900000000  0.5426850000000  0.5399380000000 1.0
C      1  0.4358830000000  0.5678770000000  0.4385480000000 1.0
C      1  0.5073540000000  0.5649470000000  0.5702400000000 1.0
C      1  0.5649660000000  0.5378110000000  0.4590830000000 1.0
C      1  0.4586430000000  0.4535810000000  0.5269860000000 1.0
C      1  0.5424440000000  0.5537600000000  0.4310090000000 1.0
C      1  0.5730580000000  0.4767580000000  0.4533490000000 1.0
C      1  0.4263310000000  0.4513220000000  0.5307870000000 1.0
C      1  0.5664150000000  0.5049890000000  0.4686470000000 1.0
C      1  0.5225390000000  0.5843790000000  0.5056190000000 1.0
C      1  0.4056160000000  0.5140120000000  0.4752270000000 1.0
C      1  0.5279820000000  0.4683340000000  0.5896500000000 1.0
C      1  0.4829440000000  0.4933170000000  0.5132750000000 1.0
C      1  0.4769300000000  0.5465710000000  0.4299470000000 1.0
C      1  0.5201990000000  0.5400190000000  0.4128170000000 1.0
C      1  0.4579720000000  0.4997760000000  0.4138490000000 1.0
C      1  0.4752470000000  0.4644940000000  0.5048190000000 1.0
C      1  0.4542380000000  0.5098050000000  0.4615750000000 1.0
C      1  0.5268880000000  0.4275450000000  0.5466990000000 1.0
C      1  0.4794590000000  0.5291180000000  0.4951680000000 1.0
C      1  0.5289820000000  0.4142550000000  0.4968420000000 1.0
C      1  0.4340440000000  0.4414980000000  0.4986590000000 1.0
C      1  0.5279840000000  0.5066150000000  0.4584360000000 1.0
C      1  0.4400870000000  0.4724050000000  0.4607550000000 1.0
C      1  0.5084250000000  0.4596890000000  0.5115210000000 1.0
C      1  0.4055450000000  0.5151810000000  0.5270130000000 1.0
C      1  0.4643010000000  0.4560350000000  0.5859660000000 1.0
C      1  0.4760340000000  0.4782770000000  0.4100380000000 1.0
C      1  0.4875830000000  0.4682970000000  0.4527080000000 1.0
C      1  0.4804470000000  0.4874870000000  0.5441440000000 1.0
C      1  0.5139540000000  0.4977670000000  0.5007150000000 1.0
C      1  0.5134640000000  0.4285420000000  0.5218630000000 1.0
C      1  0.4187490000000  0.5223220000000  0.4293630000000 1.0
C      1  0.4494810000000  0.4789240000000  0.5482390000000 1.0
C      1  0.5330460000000  0.5760230000000  0.5578430000000 1.0
C      1  0.5865280000000  0.4789820000000  0.5181480000000 1.0
C      1  0.4086580000000  0.5419230000000  0.4705750000000 1.0
C      1  0.5347140000000  0.4846640000000  0.3859900000000 1.0
C      1  0.4952570000000  0.5121590000000  0.4806150000000 1.0
C      1  0.4961940000000  0.5487630000000  0.4649300000000 1.0
C      1  0.4280690000000  0.5658800000000  0.5421430000000 1.0
C      1  0.5417540000000  0.4932110000000  0.4182270000000 1.0
C      1  0.5810980000000  0.5489760000000  0.5365190000000 1.0
C      1  0.5114360000000  0.5323640000000  0.4441900000000 1.0
C      1  0.5473210000000  0.5335570000000  0.5580320000000 1.0
C      1  0.5111960000000  0.5561830000000  0.4894880000000 1.0
C      1  0.5908560000000  0.5352770000000  0.4761360000000 1.0
C      1  0.4543890000000  0.5724500000000  0.5401340000000 1.0
C      1  0.4169840000000  0.5585210000000  0.4919780000000 1.0
C      1  0.5912790000000  0.5081350000000  0.4916020000000 1.0
C      1  0.4889850000000  0.3906900000000  0.4948160000000 1.0
C      1  0.4168810000000  0.5469980000000  0.4434690000000 1.0
C      1  0.4951480000000  0.5108220000000  0.4232830000000 1.0
C      1  0.5485060000000  0.4909950000000  0.5196300000000 1.0
C      1  0.5099520000000  0.3997570000000  0.4783840000000 1.0
C      1  0.5347320000000  0.5431640000000  0.5092760000000 1.0
C      1  0.4677110000000  0.5811750000000  0.4951450000000 1.0
C      1  0.5529610000000  0.5684690000000  0.5764410000000 1.0
C      1  0.5667010000000  0.4475330000000  0.4791960000000 1.0
C      1  0.5454100000000  0.5657660000000  0.4615770000000 1.0
C      1  0.4314060000000  0.4753860000000  0.4996290000000 1.0
C      1  0.4209920000000  0.4910980000000  0.4736660000000 1.0
C      1  0.4969860000000  0.5677510000000  0.4298860000000 1.0
C      1  0.4748570000000  0.5738840000000  0.5211840000000 1.0
C      1  0.4858940000000  0.4298790000000  0.4885780000000 1.0
C      1  0.5364650000000  0.4475170000000  0.4957470000000 1.0
C      1  0.5409710000000  0.5787340000000  0.5312020000000 1.0
C      1  0.4578040000000  0.5240890000000  0.5122770000000 1.0
C      1  0.5132060000000  0.5490640000000  0.6015630000000 1.0
C      1  0.5423060000000  0.5106950000000  0.5903390000000 1.0
C      1  0.5483410000000  0.5204420000000  0.4349260000000 1.0
C      1  0.4388760000000  0.5757980000000  0.4864860000000 1.0
C      1  0.5005340000000  0.5235850000000  0.6170670000000 1.0
C      1  0.5520760000000  0.5236850000000  0.5258460000000 1.0
C      1  0.4526450000000  0.5784310000000  0.4586770000000 1.0
C      1  0.4932820000000  0.4286110000000  0.4127150000000 1.0
C      1  0.5040640000000  0.4886470000000  0.4001970000000 1.0
C      1  0.5345430000000  0.4253760000000  0.4408570000000 1.0
C      1  0.4427740000000  0.5244750000000  0.5746890000000 1.0
C      1  0.5416710000000  0.4970810000000  0.4865750000000 1.0
C      1  0.5619250000000  0.4442500000000  0.4481770000000 1.0
C      1  0.5013240000000  0.4486540000000  0.4739500000000 1.0
C      1  0.5153660000000  0.4960450000000  0.5843370000000 1.0
C      1  0.5863240000000  0.4747630000000  0.4848130000000 1.0
C      1  0.4745330000000  0.4302750000000  0.5407430000000 1.0
C      1  0.5414970000000  0.5418020000000  0.5905830000000 1.0
C      1  0.4698410000000  0.5269910000000  0.5808240000000 1.0
C      1  0.4955450000000  0.5344310000000  0.5597680000000 1.0
C      1  0.4623370000000  0.4604930000000  0.4782050000000 1.0
C      1  0.4894880000000  0.4767290000000  0.5958810000000 1.0
C      1  0.4123890000000  0.5479030000000  0.5201040000000 1.0
C      1  0.4710250000000  0.5271900000000  0.4073080000000 1.0
C      1  0.5046330000000  0.5039150000000  0.5565750000000 1.0
C      1  0.5557210000000  0.4657120000000  0.5715790000000 1.0
C      1  0.5159200000000  0.4186610000000  0.4159230000000 1.0
C      1  0.4773690000000  0.4524110000000  0.4269880000000 1.0
C      1  0.4370220000000  0.5284530000000  0.5315190000000 1.0
C      1  0.4819580000000  0.5555660000000  0.5901350000000 1.0
C      1  0.4131980000000  0.4819120000000  0.5254680000000 1.0
C      1  0.4829220000000  0.4591660000000  0.5576880000000 1.0
C      1  0.5452510000000  0.4713710000000  0.4366720000000 1.0
C      1  0.5652590000000  0.4983370000000  0.5753530000000 1.0
END
