TITL C-2778435-5768-250 -0.000593418313382975 125000 -444.876089571623 0 0 77 (C1) n - 1
REM
REM in /home/nfs/bkarasulu/CARBON/AIRSS/Generating-Clusters/REBO/Only-C1/SD-CG/HFTN-CG
REM
REM
REM
REM
REM
REM ./C.cell (11c1c37f851c82e70ff6c80c92926a4b)
REM
REM compiler GCC version 9.2.1 20190827 (Red Hat 9.2.1-1)
REM options -cpp -mtune=generic -march=x86-64 -g -O0 -fpre-include=/usr/include/finclude/math-vector-fortran.h
REM seed 1024218088 1778167190 -1329961489 -2121350231 765433801 -1966275673 -258163540 1776074020 -1910369373 1012514840 -341450179 631883137 -816003781 -1015488020 -1653397436 1794087799 -325478115 -1683161815 -1788230840 892818783 -1636120454 1819428440 -936910194 -896463072 -463016585 -1095030109 157574599 -1319270888 1470218969 -1730872969 1899075327 -825214621 -269546387
REM
CELL 1.54180   50.00000   50.00000   50.00000   90.00000   90.00000   90.00000
LATT -1
SFAC C  
C      1  0.5526120000000  0.5270180000000  0.5572690000000 1.0
C      1  0.5753710000000  0.4862390000000  0.4592760000000 1.0
C      1  0.4378530000000  0.4359160000000  0.5348360000000 1.0
C      1  0.5053230000000  0.4612330000000  0.5107910000000 1.0
C      1  0.4928000000000  0.5745020000000  0.4830690000000 1.0
C      1  0.4881190000000  0.4480870000000  0.4548360000000 1.0
C      1  0.4560060000000  0.5200530000000  0.4489820000000 1.0
C      1  0.4384970000000  0.4645940000000  0.5439180000000 1.0
C      1  0.4418720000000  0.4912360000000  0.5551600000000 1.0
C      1  0.4508900000000  0.5314260000000  0.5247750000000 1.0
C      1  0.4477600000000  0.4596380000000  0.4700100000000 1.0
C      1  0.4783590000000  0.5413810000000  0.4506220000000 1.0
C      1  0.4820680000000  0.5151370000000  0.5911450000000 1.0
C      1  0.5127630000000  0.4167300000000  0.5224470000000 1.0
C      1  0.5243600000000  0.5173020000000  0.5532200000000 1.0
C      1  0.4823540000000  0.4870770000000  0.5301310000000 1.0
C      1  0.5014460000000  0.4315970000000  0.5005980000000 1.0
C      1  0.4714790000000  0.4451280000000  0.5731610000000 1.0
C      1  0.4692980000000  0.5501130000000  0.5465730000000 1.0
C      1  0.4440480000000  0.5398310000000  0.4929190000000 1.0
C      1  0.5677280000000  0.4996280000000  0.5199430000000 1.0
C      1  0.4721480000000  0.4694350000000  0.5076920000000 1.0
C      1  0.4681180000000  0.4929000000000  0.4329070000000 1.0
C      1  0.5253390000000  0.5440510000000  0.4662610000000 1.0
C      1  0.4228300000000  0.4927410000000  0.5077980000000 1.0
C      1  0.5283380000000  0.5591700000000  0.4927130000000 1.0
C      1  0.5460380000000  0.5206070000000  0.4340450000000 1.0
C      1  0.4242710000000  0.4743530000000  0.4646450000000 1.0
C      1  0.5196970000000  0.5235820000000  0.5232220000000 1.0
C      1  0.5369940000000  0.4680830000000  0.4288350000000 1.0
C      1  0.5457050000000  0.4924700000000  0.4462110000000 1.0
C      1  0.5580980000000  0.5757160000000  0.5598560000000 1.0
C      1  0.5200570000000  0.4322300000000  0.5443970000000 1.0
C      1  0.5724300000000  0.5156520000000  0.4705840000000 1.0
C      1  0.5620040000000  0.5403750000000  0.4511110000000 1.0
C      1  0.4829050000000  0.4689640000000  0.5589780000000 1.0
C      1  0.5371210000000  0.5054650000000  0.5061490000000 1.0
C      1  0.5659310000000  0.4587000000000  0.4668320000000 1.0
C      1  0.5232220000000  0.4910400000000  0.4717030000000 1.0
C      1  0.4835130000000  0.4307710000000  0.4781880000000 1.0
C      1  0.3984020000000  0.5071750000000  0.5266480000000 1.0
C      1  0.5184500000000  0.5490210000000  0.4393380000000 1.0
C      1  0.5576970000000  0.5529280000000  0.5450660000000 1.0
C      1  0.4982650000000  0.5018090000000  0.4186930000000 1.0
C      1  0.5399720000000  0.5182830000000  0.4760420000000 1.0
C      1  0.4599270000000  0.5634780000000  0.5026930000000 1.0
C      1  0.5704510000000  0.5074270000000  0.5495300000000 1.0
C      1  0.5290920000000  0.4736460000000  0.4969530000000 1.0
C      1  0.5563770000000  0.4592370000000  0.4941430000000 1.0
C      1  0.5595090000000  0.5522470000000  0.5173150000000 1.0
C      1  0.5717130000000  0.5248490000000  0.5016300000000 1.0
C      1  0.4786070000000  0.5407800000000  0.5733350000000 1.0
C      1  0.4730270000000  0.4775220000000  0.4629450000000 1.0
C      1  0.4696170000000  0.4965790000000  0.5665750000000 1.0
C      1  0.4887810000000  0.5231570000000  0.4930910000000 1.0
C      1  0.4922370000000  0.5181160000000  0.5526750000000 1.0
C      1  0.4937110000000  0.4990090000000  0.4724500000000 1.0
C      1  0.4437060000000  0.4280820000000  0.5091470000000 1.0
C      1  0.4553120000000  0.4360700000000  0.4847000000000 1.0
C      1  0.4957800000000  0.5172090000000  0.4473340000000 1.0
C      1  0.5129030000000  0.4725240000000  0.4158790000000 1.0
C      1  0.5740060000000  0.4701140000000  0.5126880000000 1.0
C      1  0.5026570000000  0.4925590000000  0.5886730000000 1.0
C      1  0.5112650000000  0.4633090000000  0.5438440000000 1.0
C      1  0.4382590000000  0.5213860000000  0.4717630000000 1.0
C      1  0.4801700000000  0.5183180000000  0.5222920000000 1.0
C      1  0.4873790000000  0.5482600000000  0.4780810000000 1.0
C      1  0.5167630000000  0.4890710000000  0.5650260000000 1.0
C      1  0.5210490000000  0.5268550000000  0.4187000000000 1.0
C      1  0.4226010000000  0.4987650000000  0.4788670000000 1.0
C      1  0.5106950000000  0.5494870000000  0.5136710000000 1.0
C      1  0.5604960000000  0.5516230000000  0.4832430000000 1.0
C      1  0.4869990000000  0.4647610000000  0.4282930000000 1.0
C      1  0.4435390000000  0.4690030000000  0.5131990000000 1.0
C      1  0.5509850000000  0.4475390000000  0.4444710000000 1.0
C      1  0.4311080000000  0.5114440000000  0.5348020000000 1.0
C      1  0.4827290000000  0.5581900000000  0.5204000000000 1.0
END
