TITL C-2778429-3646-1179 0.00199651198746776 125000 -709.0864131218 0 0 120 (C1) n - 1
REM
REM in /home/nfs/bkarasulu/CARBON/AIRSS/Generating-Clusters/REBO/Only-C1/SD-CG/HFTN-CG
REM
REM
REM
REM
REM
REM ./C.cell (11c1c37f851c82e70ff6c80c92926a4b)
REM
REM compiler GCC version 9.2.1 20190827 (Red Hat 9.2.1-1)
REM options -cpp -mtune=generic -march=x86-64 -g -O0 -fpre-include=/usr/include/finclude/math-vector-fortran.h
REM seed 308615253 -500384541 -887322084 -667277178 1142728151 960954078 -1553673718 -966071797 102488019 -1200689189 100326272 -51891290 -18303307 -353198821 -263899471 -790551549 1299768270 -680106367 -1870609751 -940491416 1377066317 296208762 -725568406 1638711541 -677435282 1319339298 1498535184 -1951562118 -465141472 550897314 14472440 1275102821 -777669435
REM
CELL 1.54180   50.00000   50.00000   50.00000   90.00000   90.00000   90.00000
LATT -1
SFAC C  
C      1  0.5818560000000  0.5228130000000  0.5327430000000 1.0
C      1  0.4874680000000  0.3868850000000  0.4996970000000 1.0
C      1  0.5317510000000  0.4871560000000  0.4075290000000 1.0
C      1  0.4914730000000  0.5663010000000  0.4790510000000 1.0
C      1  0.4671440000000  0.4299320000000  0.5327060000000 1.0
C      1  0.4742890000000  0.5625870000000  0.5578910000000 1.0
C      1  0.5391010000000  0.5311290000000  0.4359280000000 1.0
C      1  0.4881670000000  0.3994330000000  0.4739370000000 1.0
C      1  0.4275050000000  0.5541520000000  0.5475100000000 1.0
C      1  0.5367790000000  0.5091520000000  0.5425540000000 1.0
C      1  0.4122520000000  0.5254310000000  0.5033060000000 1.0
C      1  0.4101990000000  0.4863370000000  0.4954300000000 1.0
C      1  0.4146480000000  0.4634820000000  0.4630950000000 1.0
C      1  0.4476500000000  0.5741060000000  0.5483290000000 1.0
C      1  0.5371450000000  0.4587480000000  0.5066240000000 1.0
C      1  0.6035180000000  0.6054960000000  0.4431820000000 1.0
C      1  0.5589450000000  0.5077660000000  0.4932780000000 1.0
C      1  0.5421450000000  0.5705430000000  0.4645630000000 1.0
C      1  0.5838910000000  0.5961550000000  0.4578230000000 1.0
C      1  0.4404340000000  0.4276110000000  0.5158460000000 1.0
C      1  0.4982060000000  0.5487080000000  0.4518180000000 1.0
C      1  0.5111490000000  0.5043950000000  0.5983030000000 1.0
C      1  0.4709190000000  0.4979140000000  0.4158690000000 1.0
C      1  0.4652700000000  0.5804550000000  0.5233680000000 1.0
C      1  0.5190390000000  0.4557320000000  0.5289060000000 1.0
C      1  0.5314120000000  0.5240830000000  0.5792590000000 1.0
C      1  0.5095580000000  0.5406330000000  0.5596830000000 1.0
C      1  0.5385810000000  0.3913580000000  0.5195390000000 1.0
C      1  0.4707630000000  0.4346590000000  0.5651990000000 1.0
C      1  0.4460360000000  0.5148210000000  0.4246540000000 1.0
C      1  0.5212410000000  0.4324140000000  0.5527060000000 1.0
C      1  0.5622220000000  0.4399940000000  0.5059530000000 1.0
C      1  0.5506960000000  0.4674310000000  0.5653880000000 1.0
C      1  0.4666140000000  0.4175380000000  0.4675730000000 1.0
C      1  0.5187460000000  0.5117330000000  0.4362290000000 1.0
C      1  0.5144820000000  0.6101340000000  0.4925050000000 1.0
C      1  0.4814710000000  0.5176570000000  0.5927430000000 1.0
C      1  0.5206610000000  0.4924830000000  0.5575110000000 1.0
C      1  0.4778630000000  0.4886720000000  0.5834390000000 1.0
C      1  0.4459900000000  0.5585680000000  0.4556160000000 1.0
C      1  0.4683360000000  0.5116290000000  0.5394310000000 1.0
C      1  0.4816970000000  0.5399710000000  0.5756670000000 1.0
C      1  0.5358190000000  0.4123120000000  0.4733580000000 1.0
C      1  0.4395540000000  0.5298470000000  0.5378430000000 1.0
C      1  0.4702110000000  0.4689950000000  0.4529650000000 1.0
C      1  0.4835040000000  0.5428990000000  0.4249900000000 1.0
C      1  0.5660560000000  0.5222770000000  0.4352120000000 1.0
C      1  0.5158620000000  0.5072840000000  0.3966800000000 1.0
C      1  0.5340940000000  0.5987080000000  0.5093630000000 1.0
C      1  0.4496070000000  0.4555030000000  0.5579510000000 1.0
C      1  0.4464490000000  0.5797190000000  0.4746570000000 1.0
C      1  0.4872930000000  0.4033850000000  0.5281070000000 1.0
C      1  0.4257520000000  0.4436240000000  0.4721600000000 1.0
C      1  0.5005920000000  0.4238640000000  0.5068100000000 1.0
C      1  0.4768490000000  0.4382750000000  0.4516710000000 1.0
C      1  0.4225230000000  0.5058170000000  0.4346320000000 1.0
C      1  0.4798880000000  0.4413310000000  0.4965610000000 1.0
C      1  0.5033140000000  0.4485640000000  0.4157290000000 1.0
C      1  0.5322200000000  0.4711190000000  0.4548150000000 1.0
C      1  0.5186860000000  0.4935410000000  0.5000790000000 1.0
C      1  0.4500420000000  0.5314470000000  0.4684510000000 1.0
C      1  0.4064500000000  0.5024120000000  0.5225150000000 1.0
C      1  0.5782700000000  0.5005830000000  0.5140690000000 1.0
C      1  0.4919670000000  0.4870910000000  0.4981220000000 1.0
C      1  0.5467450000000  0.4791670000000  0.4311090000000 1.0
C      1  0.5596720000000  0.5239480000000  0.5506120000000 1.0
C      1  0.4516810000000  0.5304230000000  0.5083470000000 1.0
C      1  0.4015860000000  0.5571100000000  0.5546520000000 1.0
C      1  0.5228200000000  0.5536620000000  0.4848980000000 1.0
C      1  0.4465460000000  0.4288190000000  0.4868610000000 1.0
C      1  0.4969740000000  0.4943460000000  0.4367100000000 1.0
C      1  0.5277960000000  0.5130010000000  0.5173050000000 1.0
C      1  0.5918120000000  0.4537980000000  0.5003470000000 1.0
C      1  0.4701550000000  0.5482680000000  0.4985800000000 1.0
C      1  0.5226100000000  0.5701640000000  0.5592680000000 1.0
C      1  0.4639060000000  0.4599630000000  0.5168580000000 1.0
C      1  0.5630900000000  0.5862540000000  0.4733420000000 1.0
C      1  0.5611610000000  0.5906740000000  0.5018540000000 1.0
C      1  0.5622170000000  0.4575390000000  0.5417970000000 1.0
C      1  0.4550920000000  0.5419550000000  0.4302680000000 1.0
C      1  0.4634590000000  0.5891920000000  0.4959390000000 1.0
C      1  0.4906200000000  0.5974840000000  0.4850740000000 1.0
C      1  0.4927610000000  0.5209200000000  0.4072740000000 1.0
C      1  0.4473580000000  0.4749590000000  0.4386070000000 1.0
C      1  0.5475160000000  0.4282680000000  0.5317760000000 1.0
C      1  0.5044790000000  0.4764660000000  0.5416980000000 1.0
C      1  0.5794810000000  0.4720340000000  0.5222450000000 1.0
C      1  0.5621960000000  0.4164800000000  0.4636330000000 1.0
C      1  0.5226180000000  0.5791810000000  0.5286920000000 1.0
C      1  0.5306240000000  0.4157060000000  0.5041510000000 1.0
C      1  0.4326340000000  0.4938910000000  0.5410710000000 1.0
C      1  0.5116360000000  0.4099820000000  0.4583700000000 1.0
C      1  0.4585640000000  0.4857780000000  0.5601910000000 1.0
C      1  0.5043500000000  0.4724300000000  0.5878130000000 1.0
C      1  0.5460190000000  0.5558390000000  0.5307420000000 1.0
C      1  0.4261200000000  0.5199710000000  0.4789820000000 1.0
C      1  0.4994230000000  0.5321420000000  0.4970510000000 1.0
C      1  0.5422960000000  0.5361110000000  0.5032370000000 1.0
C      1  0.5411090000000  0.4809190000000  0.4822650000000 1.0
C      1  0.5717760000000  0.5690730000000  0.5185540000000 1.0
C      1  0.4438350000000  0.5017660000000  0.5096930000000 1.0
C      1  0.4957640000000  0.4166930000000  0.5564580000000 1.0
C      1  0.4812430000000  0.5240700000000  0.4690210000000 1.0
C      1  0.4142060000000  0.4951910000000  0.4628340000000 1.0
C      1  0.4935940000000  0.5321930000000  0.5307040000000 1.0
C      1  0.5394430000000  0.4913500000000  0.5849720000000 1.0
C      1  0.5915540000000  0.5484710000000  0.5229950000000 1.0
C      1  0.4796970000000  0.4843630000000  0.5263680000000 1.0
C      1  0.5789430000000  0.4326210000000  0.4793010000000 1.0
C      1  0.4801140000000  0.4928870000000  0.4728950000000 1.0
C      1  0.4856850000000  0.4684450000000  0.4085530000000 1.0
C      1  0.5274980000000  0.5544950000000  0.4452960000000 1.0
C      1  0.5481410000000  0.5497150000000  0.5643900000000 1.0
C      1  0.5233850000000  0.4563080000000  0.5742920000000 1.0
C      1  0.4341010000000  0.4690720000000  0.5098780000000 1.0
C      1  0.4940360000000  0.5662620000000  0.5317360000000 1.0
C      1  0.5042310000000  0.4699170000000  0.4509740000000 1.0
C      1  0.5703270000000  0.4949170000000  0.4349750000000 1.0
C      1  0.5017690000000  0.4311630000000  0.4384920000000 1.0
C      1  0.4312150000000  0.4493900000000  0.5368800000000 1.0
END
