TITL C-2778434-4341-1055 -0.000521891399348108 125000 -505.57872831509 0 0 87 (C1) n - 1
REM
REM in /home/nfs/bkarasulu/CARBON/AIRSS/Generating-Clusters/REBO/Only-C1/SD-CG/HFTN-CG
REM
REM
REM
REM
REM
REM ./C.cell (11c1c37f851c82e70ff6c80c92926a4b)
REM
REM compiler GCC version 9.2.1 20190827 (Red Hat 9.2.1-1)
REM options -cpp -mtune=generic -march=x86-64 -g -O0 -fpre-include=/usr/include/finclude/math-vector-fortran.h
REM seed 514720281 1948949853 835009984 -1232612554 -876512780 1614495466 -921071646 -577057255 1102496418 -457711364 293654156 866456937 138461517 -2071668194 -857723998 767658555 720626464 -1392684560 -217799413 -1015086460 1562355907 361232295 1240801633 1881095095 1174344347 -90464763 808683646 455071420 830258959 -135635721 229631225 -1454929283 2039436287
REM
CELL 1.54180   50.00000   50.00000   50.00000   90.00000   90.00000   90.00000
LATT -1
SFAC C  
C      1  0.5223130000000  0.4602450000000  0.5412930000000 1.0
C      1  0.4828450000000  0.5041680000000  0.5275930000000 1.0
C      1  0.5368730000000  0.5356910000000  0.4813630000000 1.0
C      1  0.4483520000000  0.5371130000000  0.4994810000000 1.0
C      1  0.4828060000000  0.4746690000000  0.4166760000000 1.0
C      1  0.4561890000000  0.4116590000000  0.5259640000000 1.0
C      1  0.4776130000000  0.5622060000000  0.5199770000000 1.0
C      1  0.4965470000000  0.5830770000000  0.4453280000000 1.0
C      1  0.5015830000000  0.4960650000000  0.5901230000000 1.0
C      1  0.5305630000000  0.4295140000000  0.5173720000000 1.0
C      1  0.5630890000000  0.4998700000000  0.5323630000000 1.0
C      1  0.5078480000000  0.4729020000000  0.4192890000000 1.0
C      1  0.4953110000000  0.5560760000000  0.4244620000000 1.0
C      1  0.4996910000000  0.5405790000000  0.5103970000000 1.0
C      1  0.5245130000000  0.5470740000000  0.4308680000000 1.0
C      1  0.4696790000000  0.4150060000000  0.4736590000000 1.0
C      1  0.5666720000000  0.4768360000000  0.5104830000000 1.0
C      1  0.4293260000000  0.4911160000000  0.5248420000000 1.0
C      1  0.4622790000000  0.5124170000000  0.5639630000000 1.0
C      1  0.5720650000000  0.5540700000000  0.4811100000000 1.0
C      1  0.5064380000000  0.4534050000000  0.5663430000000 1.0
C      1  0.4582830000000  0.4804250000000  0.4365500000000 1.0
C      1  0.5009200000000  0.4307720000000  0.5138160000000 1.0
C      1  0.5057830000000  0.4831790000000  0.4663060000000 1.0
C      1  0.5194290000000  0.4795250000000  0.5156660000000 1.0
C      1  0.5209890000000  0.4800020000000  0.5758080000000 1.0
C      1  0.5059320000000  0.5788400000000  0.5197990000000 1.0
C      1  0.4607580000000  0.5540510000000  0.5427580000000 1.0
C      1  0.4394130000000  0.4344340000000  0.5310790000000 1.0
C      1  0.4491660000000  0.5593460000000  0.4666970000000 1.0
C      1  0.5655330000000  0.5235140000000  0.4910030000000 1.0
C      1  0.4416960000000  0.5109770000000  0.5418850000000 1.0
C      1  0.5185880000000  0.5929050000000  0.4915280000000 1.0
C      1  0.4222320000000  0.4575880000000  0.4909810000000 1.0
C      1  0.5697990000000  0.4942600000000  0.4851640000000 1.0
C      1  0.5235890000000  0.5167870000000  0.4326500000000 1.0
C      1  0.5497230000000  0.5714230000000  0.5566270000000 1.0
C      1  0.4752650000000  0.4921420000000  0.5785960000000 1.0
C      1  0.4727430000000  0.5607270000000  0.4470190000000 1.0
C      1  0.5540550000000  0.5547550000000  0.5272970000000 1.0
C      1  0.5625630000000  0.5259420000000  0.5219680000000 1.0
C      1  0.5490570000000  0.5947600000000  0.4985520000000 1.0
C      1  0.5594150000000  0.4594780000000  0.4542390000000 1.0
C      1  0.4105900000000  0.4705320000000  0.5339160000000 1.0
C      1  0.4505470000000  0.4538370000000  0.4500210000000 1.0
C      1  0.5637730000000  0.5370650000000  0.4532490000000 1.0
C      1  0.5856960000000  0.4286530000000  0.5381920000000 1.0
C      1  0.5528300000000  0.4415450000000  0.4735010000000 1.0
C      1  0.5666180000000  0.4101820000000  0.5458700000000 1.0
C      1  0.5798020000000  0.4484870000000  0.5211330000000 1.0
C      1  0.5205460000000  0.5826650000000  0.4626880000000 1.0
C      1  0.4751760000000  0.5354880000000  0.4702000000000 1.0
C      1  0.4878540000000  0.4584910000000  0.5031140000000 1.0
C      1  0.4493850000000  0.4927490000000  0.4733430000000 1.0
C      1  0.4845300000000  0.4151600000000  0.5390490000000 1.0
C      1  0.4356720000000  0.5298100000000  0.4685950000000 1.0
C      1  0.4730740000000  0.4389100000000  0.4591090000000 1.0
C      1  0.4346680000000  0.4841290000000  0.4960870000000 1.0
C      1  0.4923350000000  0.5264100000000  0.4421600000000 1.0
C      1  0.5224820000000  0.5614140000000  0.5388350000000 1.0
C      1  0.4767870000000  0.5392960000000  0.5615890000000 1.0
C      1  0.4788920000000  0.4986000000000  0.4565780000000 1.0
C      1  0.4536950000000  0.4547980000000  0.5443720000000 1.0
C      1  0.4848830000000  0.5922000000000  0.4959730000000 1.0
C      1  0.5372420000000  0.5581170000000  0.4575440000000 1.0
C      1  0.5287630000000  0.4927910000000  0.5467290000000 1.0
C      1  0.5527610000000  0.5095080000000  0.4437610000000 1.0
C      1  0.4751340000000  0.4126300000000  0.5008350000000 1.0
C      1  0.5510980000000  0.4472000000000  0.5037750000000 1.0
C      1  0.4792100000000  0.4803040000000  0.4960640000000 1.0
C      1  0.5411280000000  0.4118840000000  0.5355280000000 1.0
C      1  0.4733550000000  0.5140500000000  0.4966170000000 1.0
C      1  0.5163160000000  0.4946810000000  0.4931650000000 1.0
C      1  0.5155800000000  0.5235150000000  0.4949620000000 1.0
C      1  0.5048700000000  0.5388380000000  0.5518030000000 1.0
C      1  0.4593090000000  0.5697250000000  0.4948160000000 1.0
C      1  0.4707750000000  0.4817510000000  0.5378990000000 1.0
C      1  0.4769430000000  0.4629340000000  0.5656110000000 1.0
C      1  0.5240680000000  0.4867180000000  0.4407000000000 1.0
C      1  0.5628080000000  0.5713900000000  0.5023160000000 1.0
C      1  0.4160670000000  0.4459950000000  0.5178940000000 1.0
C      1  0.5072010000000  0.5136760000000  0.5389590000000 1.0
C      1  0.4967280000000  0.4533730000000  0.4644690000000 1.0
C      1  0.5638070000000  0.4866630000000  0.4592050000000 1.0
C      1  0.4265110000000  0.4490420000000  0.4642680000000 1.0
C      1  0.4413280000000  0.5082490000000  0.4469620000000 1.0
C      1  0.4416370000000  0.5369520000000  0.5296090000000 1.0
END
