TITL C-2778423-5760-1205 0.00156848661401848 125000 -616.239708670934 0 0 108 (C1) n - 1
REM
REM in /home/nfs/bkarasulu/CARBON/AIRSS/Generating-Clusters/REBO/Only-C1/SD-CG/HFTN-CG
REM
REM
REM
REM
REM
REM ./C.cell (11c1c37f851c82e70ff6c80c92926a4b)
REM
REM compiler GCC version 9.2.1 20190827 (Red Hat 9.2.1-1)
REM options -cpp -mtune=generic -march=x86-64 -g -O0 -fpre-include=/usr/include/finclude/math-vector-fortran.h
REM seed 1352810189 -2065506659 378800922 758954572 -334822489 287466019 -392818226 64750698 1767183069 -1315976973 -1347334395 1533053505 -589049674 -642297339 59374332 -125328947 -1386617458 203966697 591879296 1460120143 -1240576582 -819251770 1656038946 -448564197 2025207390 1989288834 -1678257854 638777690 -12534457 -696147890 146727046 1009303656 1707854372
REM
CELL 1.54180   50.00000   50.00000   50.00000   90.00000   90.00000   90.00000
LATT -1
SFAC C  
C      1  0.5016180000000  0.4590730000000  0.4459230000000 1.0
C      1  0.4494310000000  0.5131710000000  0.5122300000000 1.0
C      1  0.5124120000000  0.5722730000000  0.4610410000000 1.0
C      1  0.4695840000000  0.4159420000000  0.4940390000000 1.0
C      1  0.5281040000000  0.5174760000000  0.4796110000000 1.0
C      1  0.5450060000000  0.5043130000000  0.5025730000000 1.0
C      1  0.4832400000000  0.5712420000000  0.4727780000000 1.0
C      1  0.5238720000000  0.5474910000000  0.4524400000000 1.0
C      1  0.4566850000000  0.5248400000000  0.4663610000000 1.0
C      1  0.4614380000000  0.4882650000000  0.5082070000000 1.0
C      1  0.5099650000000  0.4582890000000  0.5332940000000 1.0
C      1  0.5579830000000  0.5245370000000  0.5193400000000 1.0
C      1  0.4020390000000  0.4997270000000  0.5153250000000 1.0
C      1  0.5368120000000  0.4529740000000  0.4157370000000 1.0
C      1  0.4226130000000  0.4544030000000  0.5206430000000 1.0
C      1  0.5314780000000  0.5546410000000  0.5880730000000 1.0
C      1  0.4996900000000  0.5453540000000  0.4876760000000 1.0
C      1  0.4812720000000  0.4534030000000  0.5430040000000 1.0
C      1  0.5096700000000  0.4937490000000  0.5624380000000 1.0
C      1  0.4558150000000  0.5565870000000  0.4643620000000 1.0
C      1  0.5622460000000  0.4922900000000  0.4774910000000 1.0
C      1  0.4439710000000  0.4605480000000  0.5544510000000 1.0
C      1  0.4352500000000  0.5018000000000  0.4680750000000 1.0
C      1  0.5570960000000  0.4280470000000  0.5237840000000 1.0
C      1  0.5318660000000  0.4954380000000  0.4545320000000 1.0
C      1  0.4801330000000  0.5004960000000  0.6043470000000 1.0
C      1  0.4717330000000  0.5732070000000  0.5478720000000 1.0
C      1  0.5634530000000  0.5612120000000  0.5334810000000 1.0
C      1  0.4757330000000  0.4681380000000  0.5950250000000 1.0
C      1  0.5244890000000  0.4305130000000  0.5325140000000 1.0
C      1  0.4883880000000  0.5108870000000  0.5446120000000 1.0
C      1  0.6020280000000  0.5107450000000  0.4867160000000 1.0
C      1  0.4965390000000  0.5634700000000  0.5563240000000 1.0
C      1  0.4612060000000  0.5212760000000  0.5549480000000 1.0
C      1  0.4070640000000  0.4732090000000  0.4985490000000 1.0
C      1  0.4987280000000  0.5526550000000  0.5870220000000 1.0
C      1  0.4801880000000  0.5281770000000  0.6017130000000 1.0
C      1  0.4090200000000  0.5081220000000  0.4739360000000 1.0
C      1  0.5554030000000  0.4769240000000  0.5543710000000 1.0
C      1  0.5306970000000  0.5474720000000  0.4917660000000 1.0
C      1  0.4748370000000  0.5581150000000  0.4361490000000 1.0
C      1  0.5406430000000  0.5264460000000  0.5447130000000 1.0
C      1  0.5938060000000  0.4593450000000  0.4991580000000 1.0
C      1  0.5085480000000  0.4175320000000  0.4856210000000 1.0
C      1  0.4247450000000  0.4805850000000  0.5590280000000 1.0
C      1  0.4893610000000  0.4908170000000  0.4930280000000 1.0
C      1  0.4597690000000  0.5124030000000  0.4384610000000 1.0
C      1  0.4885340000000  0.5663540000000  0.5119630000000 1.0
C      1  0.5542730000000  0.4792470000000  0.4119240000000 1.0
C      1  0.5741750000000  0.4406730000000  0.4999980000000 1.0
C      1  0.5298240000000  0.5869480000000  0.4791370000000 1.0
C      1  0.4803200000000  0.5952780000000  0.4960710000000 1.0
C      1  0.5415440000000  0.4181160000000  0.4952050000000 1.0
C      1  0.4796000000000  0.5203160000000  0.4869790000000 1.0
C      1  0.5567490000000  0.5753870000000  0.4806000000000 1.0
C      1  0.5124950000000  0.5905100000000  0.5062420000000 1.0
C      1  0.5529030000000  0.5455150000000  0.4655120000000 1.0
C      1  0.5423030000000  0.5145140000000  0.4288220000000 1.0
C      1  0.4669650000000  0.5453640000000  0.5760940000000 1.0
C      1  0.5094720000000  0.5192880000000  0.4510990000000 1.0
C      1  0.4051980000000  0.4782130000000  0.5375940000000 1.0
C      1  0.4013800000000  0.4675640000000  0.4723810000000 1.0
C      1  0.5361570000000  0.5685110000000  0.5139800000000 1.0
C      1  0.4324300000000  0.4087830000000  0.4597410000000 1.0
C      1  0.5907610000000  0.4850920000000  0.4887360000000 1.0
C      1  0.5677840000000  0.5113850000000  0.4512230000000 1.0
C      1  0.4509080000000  0.5519760000000  0.5460320000000 1.0
C      1  0.5517040000000  0.4450860000000  0.4785080000000 1.0
C      1  0.5245850000000  0.5628340000000  0.5415870000000 1.0
C      1  0.4901590000000  0.5127030000000  0.4282030000000 1.0
C      1  0.4524630000000  0.4235140000000  0.4703440000000 1.0
C      1  0.4361000000000  0.5501730000000  0.5173650000000 1.0
C      1  0.5282480000000  0.4801910000000  0.5147900000000 1.0
C      1  0.5741270000000  0.4904920000000  0.4268700000000 1.0
C      1  0.4508290000000  0.4814600000000  0.3967610000000 1.0
C      1  0.4452650000000  0.4761070000000  0.4633080000000 1.0
C      1  0.4874360000000  0.4409110000000  0.4785710000000 1.0
C      1  0.5471830000000  0.5544390000000  0.5629370000000 1.0
C      1  0.5079460000000  0.4109930000000  0.5153910000000 1.0
C      1  0.4940720000000  0.5518530000000  0.4218780000000 1.0
C      1  0.5325670000000  0.4242890000000  0.4624640000000 1.0
C      1  0.4631020000000  0.4260590000000  0.5494660000000 1.0
C      1  0.4553790000000  0.4631680000000  0.5233800000000 1.0
C      1  0.5476380000000  0.4521650000000  0.5451180000000 1.0
C      1  0.5153470000000  0.5275260000000  0.4125300000000 1.0
C      1  0.5858080000000  0.5362040000000  0.5336290000000 1.0
C      1  0.4671650000000  0.4495220000000  0.5739880000000 1.0
C      1  0.4205800000000  0.5207490000000  0.5151730000000 1.0
C      1  0.5364840000000  0.4980320000000  0.5560150000000 1.0
C      1  0.5075890000000  0.5344780000000  0.5422770000000 1.0
C      1  0.4686570000000  0.5408650000000  0.5120550000000 1.0
C      1  0.5016120000000  0.4841930000000  0.5871090000000 1.0
C      1  0.4367890000000  0.5051850000000  0.5643380000000 1.0
C      1  0.4977890000000  0.4886680000000  0.5245920000000 1.0
C      1  0.4586340000000  0.4522670000000  0.4644130000000 1.0
C      1  0.5034560000000  0.4697480000000  0.4765430000000 1.0
C      1  0.5236030000000  0.4411600000000  0.4392340000000 1.0
C      1  0.4356800000000  0.5646420000000  0.4879820000000 1.0
C      1  0.4937730000000  0.4732920000000  0.4226240000000 1.0
C      1  0.5363600000000  0.4707250000000  0.4830510000000 1.0
C      1  0.4683280000000  0.4899560000000  0.4158580000000 1.0
C      1  0.5818100000000  0.4824420000000  0.5585470000000 1.0
C      1  0.4345640000000  0.4278060000000  0.5315150000000 1.0
C      1  0.4599300000000  0.4121370000000  0.5192300000000 1.0
C      1  0.5695560000000  0.5512860000000  0.5010190000000 1.0
C      1  0.5158550000000  0.4734870000000  0.4041170000000 1.0
C      1  0.5315890000000  0.5012850000000  0.3994250000000 1.0
C      1  0.5807970000000  0.5312570000000  0.4756750000000 1.0
END
