TITL C-2778436-5916-87 -0.0873399586762606 125000 -230.329374823275 0 0 41 (C1) n - 1
REM
REM in /home/nfs/bkarasulu/CARBON/AIRSS/Generating-Clusters/REBO/Only-C1/SD-CG/HFTN-CG
REM
REM
REM
REM
REM
REM ./C.cell (11c1c37f851c82e70ff6c80c92926a4b)
REM
REM compiler GCC version 9.2.1 20190827 (Red Hat 9.2.1-1)
REM options -cpp -mtune=generic -march=x86-64 -g -O0 -fpre-include=/usr/include/finclude/math-vector-fortran.h
REM seed -1210196741 1235603077 -571412532 -1561861940 179320138 1622256900 2077004765 -1799035046 -154672799 -1286156407 -1330332032 388479520 1652242400 -478962520 1868126741 1965653483 -1549108176 -149004828 -1054430305 471689991 1802933541 -1129733320 -1899218839 -324038719 359566233 -1078106748 -1219933346 -244733880 -1803693988 534059451 2089576234 1102189789 -181823027
REM
CELL 1.54180   50.00000   50.00000   50.00000   90.00000   90.00000   90.00000
LATT -1
SFAC C  
C      1  0.5350640000000  0.4787770000000  0.4550910000000 1.0
C      1  0.4757610000000  0.4976820000000  0.4441820000000 1.0
C      1  0.5713240000000  0.5067190000000  0.4724890000000 1.0
C      1  0.5122790000000  0.5273330000000  0.5368740000000 1.0
C      1  0.4406180000000  0.4483070000000  0.5557230000000 1.0
C      1  0.5007930000000  0.5195340000000  0.4408350000000 1.0
C      1  0.5281550000000  0.5025550000000  0.4955880000000 1.0
C      1  0.5638090000000  0.5995630000000  0.5267270000000 1.0
C      1  0.4727990000000  0.4368730000000  0.4881230000000 1.0
C      1  0.5355810000000  0.4829800000000  0.5581390000000 1.0
C      1  0.4840150000000  0.4916940000000  0.5144930000000 1.0
C      1  0.5069120000000  0.4869390000000  0.4391200000000 1.0
C      1  0.4843770000000  0.5164660000000  0.5333300000000 1.0
C      1  0.4628180000000  0.5204080000000  0.4893120000000 1.0
C      1  0.5951970000000  0.5173190000000  0.4703570000000 1.0
C      1  0.4309290000000  0.4821380000000  0.4692070000000 1.0
C      1  0.4670940000000  0.4978650000000  0.4755840000000 1.0
C      1  0.4518650000000  0.4521970000000  0.5307440000000 1.0
C      1  0.5280230000000  0.5088120000000  0.5561460000000 1.0
C      1  0.5459390000000  0.4954490000000  0.4747550000000 1.0
C      1  0.4769150000000  0.5435520000000  0.4931510000000 1.0
C      1  0.4677480000000  0.4677100000000  0.4787640000000 1.0
C      1  0.4299640000000  0.4446220000000  0.5793820000000 1.0
C      1  0.5329880000000  0.4606340000000  0.5425490000000 1.0
C      1  0.5083100000000  0.5392010000000  0.4573830000000 1.0
C      1  0.5537510000000  0.5961130000000  0.5573390000000 1.0
C      1  0.4342050000000  0.4833850000000  0.4938830000000 1.0
C      1  0.4513090000000  0.4753800000000  0.4468120000000 1.0
C      1  0.4523550000000  0.4800160000000  0.5187010000000 1.0
C      1  0.5095690000000  0.4828610000000  0.5054860000000 1.0
C      1  0.4563250000000  0.5073690000000  0.5381040000000 1.0
C      1  0.5774590000000  0.6129200000000  0.5085070000000 1.0
C      1  0.5447830000000  0.5745280000000  0.5348680000000 1.0
C      1  0.5317690000000  0.5528470000000  0.5281810000000 1.0
C      1  0.5207700000000  0.4597230000000  0.5178720000000 1.0
C      1  0.5040740000000  0.5441530000000  0.4849550000000 1.0
C      1  0.4631310000000  0.4325720000000  0.5150430000000 1.0
C      1  0.4622860000000  0.4451100000000  0.4535730000000 1.0
C      1  0.4935790000000  0.4401270000000  0.4618580000000 1.0
C      1  0.5227810000000  0.5309340000000  0.5049070000000 1.0
C      1  0.5125800000000  0.4566320000000  0.4518610000000 1.0
END
