TITL C-2778428-5639-137 -0.0160854669310235 125000 -474.705086367609 0 0 83 (C1) n - 1
REM
REM in /home/nfs/bkarasulu/CARBON/AIRSS/Generating-Clusters/REBO/Only-C1/SD-CG/HFTN-CG
REM
REM
REM
REM
REM
REM ./C.cell (11c1c37f851c82e70ff6c80c92926a4b)
REM
REM compiler GCC version 9.2.1 20190827 (Red Hat 9.2.1-1)
REM options -cpp -mtune=generic -march=x86-64 -g -O0 -fpre-include=/usr/include/finclude/math-vector-fortran.h
REM seed -2081653920 1095394342 1299361856 1677844095 379218080 706935599 834898055 1606403862 -1407309260 -1847843472 -1922460960 766296765 1405667529 618129121 1364584551 1780006084 -408072242 -2006824481 1627074349 -1851656405 -1194560643 287441713 -1735285461 -867535006 -1985705792 1285437018 1386865145 -2103485228 -1717407977 2095435937 1528602584 259241005 -293219662
REM
CELL 1.54180   50.00000   50.00000   50.00000   90.00000   90.00000   90.00000
LATT -1
SFAC C  
C      1  0.5117110000000  0.5828350000000  0.5043340000000 1.0
C      1  0.4403860000000  0.4845800000000  0.4485810000000 1.0
C      1  0.5601340000000  0.4062750000000  0.5107440000000 1.0
C      1  0.5032770000000  0.4468420000000  0.5435950000000 1.0
C      1  0.5079140000000  0.5021940000000  0.5262480000000 1.0
C      1  0.5578220000000  0.4962940000000  0.4613200000000 1.0
C      1  0.4891560000000  0.4629950000000  0.5200610000000 1.0
C      1  0.5172280000000  0.5595480000000  0.5362430000000 1.0
C      1  0.5044220000000  0.5255350000000  0.4758670000000 1.0
C      1  0.5082030000000  0.5712830000000  0.4731180000000 1.0
C      1  0.4276430000000  0.4647960000000  0.5038220000000 1.0
C      1  0.4706570000000  0.4245650000000  0.4842520000000 1.0
C      1  0.4701020000000  0.4645430000000  0.4852760000000 1.0
C      1  0.5768730000000  0.5183240000000  0.5451760000000 1.0
C      1  0.4980650000000  0.5498510000000  0.4535740000000 1.0
C      1  0.5790850000000  0.4744090000000  0.4230710000000 1.0
C      1  0.4496920000000  0.5384290000000  0.4569030000000 1.0
C      1  0.5482890000000  0.5344870000000  0.5380620000000 1.0
C      1  0.4442350000000  0.5088340000000  0.5433690000000 1.0
C      1  0.4143120000000  0.5450990000000  0.5162870000000 1.0
C      1  0.5851110000000  0.5250990000000  0.4880180000000 1.0
C      1  0.5382130000000  0.5601310000000  0.4850450000000 1.0
C      1  0.5399560000000  0.5719970000000  0.5169270000000 1.0
C      1  0.4394480000000  0.5613850000000  0.5122400000000 1.0
C      1  0.4822840000000  0.4673100000000  0.4346700000000 1.0
C      1  0.5311440000000  0.4341700000000  0.4454140000000 1.0
C      1  0.5445310000000  0.5342440000000  0.5055510000000 1.0
C      1  0.5237720000000  0.5130500000000  0.4976680000000 1.0
C      1  0.4885320000000  0.4495160000000  0.5674330000000 1.0
C      1  0.5052010000000  0.5095470000000  0.4457890000000 1.0
C      1  0.4737350000000  0.5252510000000  0.5483040000000 1.0
C      1  0.5537290000000  0.4841800000000  0.5109600000000 1.0
C      1  0.5192770000000  0.5077160000000  0.5676690000000 1.0
C      1  0.4589010000000  0.5835200000000  0.5042490000000 1.0
C      1  0.4852210000000  0.4229640000000  0.4596710000000 1.0
C      1  0.4895610000000  0.5621240000000  0.5182510000000 1.0
C      1  0.4628140000000  0.4834380000000  0.5128110000000 1.0
C      1  0.5416850000000  0.4270940000000  0.5130980000000 1.0
C      1  0.4656750000000  0.4413790000000  0.5314600000000 1.0
C      1  0.4631310000000  0.4880550000000  0.4319520000000 1.0
C      1  0.4326850000000  0.4722300000000  0.4709740000000 1.0
C      1  0.4781460000000  0.5143160000000  0.4256180000000 1.0
C      1  0.5260610000000  0.5362890000000  0.4412980000000 1.0
C      1  0.4848590000000  0.5387160000000  0.5003920000000 1.0
C      1  0.4560100000000  0.4551220000000  0.5610750000000 1.0
C      1  0.4365360000000  0.4570670000000  0.5346190000000 1.0
C      1  0.5709990000000  0.5134680000000  0.5131900000000 1.0
C      1  0.5177920000000  0.4711900000000  0.4738920000000 1.0
C      1  0.5005860000000  0.4546380000000  0.4913220000000 1.0
C      1  0.4911460000000  0.4993940000000  0.5556020000000 1.0
C      1  0.5083780000000  0.4789140000000  0.4450740000000 1.0
C      1  0.4672380000000  0.5788080000000  0.5346250000000 1.0
C      1  0.4244710000000  0.4871450000000  0.5293520000000 1.0
C      1  0.5155570000000  0.4221770000000  0.5323490000000 1.0
C      1  0.4695670000000  0.4891790000000  0.6005600000000 1.0
C      1  0.4820520000000  0.5872120000000  0.4881380000000 1.0
C      1  0.5542860000000  0.4560250000000  0.5160770000000 1.0
C      1  0.5238080000000  0.5370340000000  0.5599140000000 1.0
C      1  0.4772720000000  0.4400030000000  0.4384820000000 1.0
C      1  0.5385430000000  0.5017690000000  0.5332300000000 1.0
C      1  0.4524690000000  0.5346800000000  0.5233820000000 1.0
C      1  0.5344430000000  0.4616400000000  0.4389430000000 1.0
C      1  0.4851370000000  0.5074420000000  0.5056260000000 1.0
C      1  0.4453660000000  0.5088530000000  0.5034430000000 1.0
C      1  0.4763370000000  0.4795920000000  0.5726680000000 1.0
C      1  0.5388900000000  0.4892310000000  0.4838340000000 1.0
C      1  0.5723210000000  0.4990950000000  0.5645860000000 1.0
C      1  0.5028320000000  0.5358770000000  0.4164030000000 1.0
C      1  0.4922090000000  0.5488710000000  0.5573180000000 1.0
C      1  0.4872680000000  0.4237580000000  0.5128840000000 1.0
C      1  0.5487880000000  0.5429110000000  0.4599210000000 1.0
C      1  0.4167890000000  0.5178890000000  0.5167740000000 1.0
C      1  0.5682420000000  0.5226930000000  0.4648630000000 1.0
C      1  0.5583690000000  0.4773590000000  0.4403540000000 1.0
C      1  0.5155630000000  0.4266900000000  0.4933980000000 1.0
C      1  0.4453640000000  0.4434760000000  0.4840030000000 1.0
C      1  0.4481360000000  0.5154660000000  0.4727510000000 1.0
C      1  0.5441950000000  0.4905060000000  0.5643130000000 1.0
C      1  0.4718830000000  0.4961050000000  0.4765080000000 1.0
C      1  0.6096340000000  0.5375420000000  0.4893840000000 1.0
C      1  0.4730720000000  0.5736560000000  0.5615510000000 1.0
C      1  0.4717360000000  0.5415640000000  0.4408970000000 1.0
C      1  0.5138390000000  0.4205220000000  0.4633330000000 1.0
END
