TITL C-2778435-5768-52 0.00459319661528708 125000 -772.349027187559 0 0 132 (C1) n - 1
REM
REM in /home/nfs/bkarasulu/CARBON/AIRSS/Generating-Clusters/REBO/Only-C1/SD-CG/HFTN-CG
REM
REM
REM
REM
REM
REM ./C.cell (11c1c37f851c82e70ff6c80c92926a4b)
REM
REM compiler GCC version 9.2.1 20190827 (Red Hat 9.2.1-1)
REM options -cpp -mtune=generic -march=x86-64 -g -O0 -fpre-include=/usr/include/finclude/math-vector-fortran.h
REM seed 940551266 -1534258672 1476671535 -1506348064 1828042314 1004974676 -1928428422 707889444 -1875391390 1315152939 1209841400 1276877757 -94532684 -2025198868 -553081169 276977639 -1475659581 -1154006274 891437557 -87248767 -1895666550 -949894068 -1830676861 -388421153 1973798731 862284450 1847236236 -1187097035 479136444 -415266691 -820471016 1883774921 952525067
REM
CELL 1.54180   50.00000   50.00000   50.00000   90.00000   90.00000   90.00000
LATT -1
SFAC C  
C      1  0.4425460000000  0.5173440000000  0.5651080000000 1.0
C      1  0.5476170000000  0.5529330000000  0.4919870000000 1.0
C      1  0.4333520000000  0.4410680000000  0.5195530000000 1.0
C      1  0.5340530000000  0.5357910000000  0.4146500000000 1.0
C      1  0.4448410000000  0.4255600000000  0.4609950000000 1.0
C      1  0.4008540000000  0.4828290000000  0.5009320000000 1.0
C      1  0.4254580000000  0.5375340000000  0.4931530000000 1.0
C      1  0.4723250000000  0.5298130000000  0.5855030000000 1.0
C      1  0.5231420000000  0.4184450000000  0.4605870000000 1.0
C      1  0.5045740000000  0.5335310000000  0.4414710000000 1.0
C      1  0.5370250000000  0.4586150000000  0.4303020000000 1.0
C      1  0.4852370000000  0.4536170000000  0.5757140000000 1.0
C      1  0.4975550000000  0.4730340000000  0.4109560000000 1.0
C      1  0.5556100000000  0.5162880000000  0.5306580000000 1.0
C      1  0.5871120000000  0.5571860000000  0.4965880000000 1.0
C      1  0.4704060000000  0.5551040000000  0.4756230000000 1.0
C      1  0.4974530000000  0.4025550000000  0.4669470000000 1.0
C      1  0.4525120000000  0.4639380000000  0.4296580000000 1.0
C      1  0.4979660000000  0.5378840000000  0.6057740000000 1.0
C      1  0.5205340000000  0.4304270000000  0.4310450000000 1.0
C      1  0.4716800000000  0.4329730000000  0.4686100000000 1.0
C      1  0.4150690000000  0.4407400000000  0.4824980000000 1.0
C      1  0.4481640000000  0.4574660000000  0.4998170000000 1.0
C      1  0.4397190000000  0.5687440000000  0.5308560000000 1.0
C      1  0.4891770000000  0.5012660000000  0.5931080000000 1.0
C      1  0.4658260000000  0.5874420000000  0.5074670000000 1.0
C      1  0.4145690000000  0.4924640000000  0.4648910000000 1.0
C      1  0.4822010000000  0.4004680000000  0.4437970000000 1.0
C      1  0.4354280000000  0.4433250000000  0.4409130000000 1.0
C      1  0.5655740000000  0.4562010000000  0.5541670000000 1.0
C      1  0.5387630000000  0.4537570000000  0.5707790000000 1.0
C      1  0.5165200000000  0.5462600000000  0.5404450000000 1.0
C      1  0.5908760000000  0.5388840000000  0.4715130000000 1.0
C      1  0.4478070000000  0.5192550000000  0.4276010000000 1.0
C      1  0.4730610000000  0.5621780000000  0.5863160000000 1.0
C      1  0.4189660000000  0.4709380000000  0.5635950000000 1.0
C      1  0.4327440000000  0.4811700000000  0.4894490000000 1.0
C      1  0.4680970000000  0.4123920000000  0.5104930000000 1.0
C      1  0.4697770000000  0.5288890000000  0.4122270000000 1.0
C      1  0.5510120000000  0.4174600000000  0.4780900000000 1.0
C      1  0.5141980000000  0.5653160000000  0.5633660000000 1.0
C      1  0.5054560000000  0.4658820000000  0.4412640000000 1.0
C      1  0.4940140000000  0.5974180000000  0.4957490000000 1.0
C      1  0.5071530000000  0.4646850000000  0.5267050000000 1.0
C      1  0.4882770000000  0.5780490000000  0.4684850000000 1.0
C      1  0.5158930000000  0.5574540000000  0.5158040000000 1.0
C      1  0.5607660000000  0.5671310000000  0.5431890000000 1.0
C      1  0.5184440000000  0.5162100000000  0.6023550000000 1.0
C      1  0.4521580000000  0.4923120000000  0.4402930000000 1.0
C      1  0.3926060000000  0.5036640000000  0.5129130000000 1.0
C      1  0.4393090000000  0.5685460000000  0.4967590000000 1.0
C      1  0.5894520000000  0.4939880000000  0.5390440000000 1.0
C      1  0.5143240000000  0.5185280000000  0.4652180000000 1.0
C      1  0.4938100000000  0.4290060000000  0.5569380000000 1.0
C      1  0.5113370000000  0.4937230000000  0.4002310000000 1.0
C      1  0.4889690000000  0.4233220000000  0.4195420000000 1.0
C      1  0.4431200000000  0.4868310000000  0.5759390000000 1.0
C      1  0.5027400000000  0.4949580000000  0.5655310000000 1.0
C      1  0.5054490000000  0.5027950000000  0.5273030000000 1.0
C      1  0.5235620000000  0.4276380000000  0.5548660000000 1.0
C      1  0.5446570000000  0.5501350000000  0.5682050000000 1.0
C      1  0.5392170000000  0.4752670000000  0.4598670000000 1.0
C      1  0.5768570000000  0.4776030000000  0.5144700000000 1.0
C      1  0.4273970000000  0.5396070000000  0.5440450000000 1.0
C      1  0.5819950000000  0.4609170000000  0.4620440000000 1.0
C      1  0.5886960000000  0.5021030000000  0.5002320000000 1.0
C      1  0.4155730000000  0.5253010000000  0.5194420000000 1.0
C      1  0.5886870000000  0.5107000000000  0.4735930000000 1.0
C      1  0.4742980000000  0.5198180000000  0.5529490000000 1.0
C      1  0.5432520000000  0.4873250000000  0.5651020000000 1.0
C      1  0.4321520000000  0.5369530000000  0.4465230000000 1.0
C      1  0.5361560000000  0.5034380000000  0.4878190000000 1.0
C      1  0.4159560000000  0.5206680000000  0.4651720000000 1.0
C      1  0.5166700000000  0.5388770000000  0.4892860000000 1.0
C      1  0.5231180000000  0.4456650000000  0.4812970000000 1.0
C      1  0.5375700000000  0.5179790000000  0.5787670000000 1.0
C      1  0.5550830000000  0.4543000000000  0.5231560000000 1.0
C      1  0.5503330000000  0.5246400000000  0.5049730000000 1.0
C      1  0.5761170000000  0.5504200000000  0.4483190000000 1.0
C      1  0.4710930000000  0.4756550000000  0.5883640000000 1.0
C      1  0.5516490000000  0.5068710000000  0.4577360000000 1.0
C      1  0.4532720000000  0.5257310000000  0.4785680000000 1.0
C      1  0.5659330000000  0.5293630000000  0.5532710000000 1.0
C      1  0.4759920000000  0.5580520000000  0.5182400000000 1.0
C      1  0.5842360000000  0.4754130000000  0.5602090000000 1.0
C      1  0.5003800000000  0.4606150000000  0.4966310000000 1.0
C      1  0.4570790000000  0.4687390000000  0.5517280000000 1.0
C      1  0.5397130000000  0.5779900000000  0.4618510000000 1.0
C      1  0.5384950000000  0.5037930000000  0.4095170000000 1.0
C      1  0.5513730000000  0.4080330000000  0.5043490000000 1.0
C      1  0.4777860000000  0.5158590000000  0.5190930000000 1.0
C      1  0.5369220000000  0.4269290000000  0.5270190000000 1.0
C      1  0.5339240000000  0.4777640000000  0.5100630000000 1.0
C      1  0.5148820000000  0.4241620000000  0.5041540000000 1.0
C      1  0.4727880000000  0.4473620000000  0.4916860000000 1.0
C      1  0.4753920000000  0.4538010000000  0.4151120000000 1.0
C      1  0.4600940000000  0.5000420000000  0.4673190000000 1.0
C      1  0.4301980000000  0.4967820000000  0.5242440000000 1.0
C      1  0.5517170000000  0.5320410000000  0.4421080000000 1.0
C      1  0.4584050000000  0.4954130000000  0.5068520000000 1.0
C      1  0.5553250000000  0.4498090000000  0.4739000000000 1.0
C      1  0.5463350000000  0.4908670000000  0.5366440000000 1.0
C      1  0.4920170000000  0.4086290000000  0.4950410000000 1.0
C      1  0.4718960000000  0.4235290000000  0.5379470000000 1.0
C      1  0.4834820000000  0.5543080000000  0.4224180000000 1.0
C      1  0.4157350000000  0.4771320000000  0.5376030000000 1.0
C      1  0.5110490000000  0.4647990000000  0.5600880000000 1.0
C      1  0.5406880000000  0.5934110000000  0.5334340000000 1.0
C      1  0.4813940000000  0.4825030000000  0.5408350000000 1.0
C      1  0.4911050000000  0.4391180000000  0.4487680000000 1.0
C      1  0.4390310000000  0.4191260000000  0.4939240000000 1.0
C      1  0.4820820000000  0.4853700000000  0.4843120000000 1.0
C      1  0.5197030000000  0.5863880000000  0.4762640000000 1.0
C      1  0.5779900000000  0.4892080000000  0.4494480000000 1.0
C      1  0.5549410000000  0.4851690000000  0.4245600000000 1.0
C      1  0.4497800000000  0.4422380000000  0.5430430000000 1.0
C      1  0.4059610000000  0.4619160000000  0.4672220000000 1.0
C      1  0.5033700000000  0.5676530000000  0.4437750000000 1.0
C      1  0.4858890000000  0.5381000000000  0.4979940000000 1.0
C      1  0.5205840000000  0.5184170000000  0.5498320000000 1.0
C      1  0.5339130000000  0.5602050000000  0.4371740000000 1.0
C      1  0.4597940000000  0.5439330000000  0.5411580000000 1.0
C      1  0.4403990000000  0.5598880000000  0.4635840000000 1.0
C      1  0.4696440000000  0.5824980000000  0.5413350000000 1.0
C      1  0.5168020000000  0.5859280000000  0.5159150000000 1.0
C      1  0.4872500000000  0.5752120000000  0.5664170000000 1.0
C      1  0.5031720000000  0.5225120000000  0.4093070000000 1.0
C      1  0.5550410000000  0.5754310000000  0.5111020000000 1.0
C      1  0.5946870000000  0.5227910000000  0.5262810000000 1.0
C      1  0.5076890000000  0.4866970000000  0.4655400000000 1.0
C      1  0.5684820000000  0.5718650000000  0.4725670000000 1.0
C      1  0.5834220000000  0.5499980000000  0.5238670000000 1.0
END
