TITL C-2778436-5916-672 -0.0435266890410638 125000 -283.312503940023 0 0 50 (C1) n - 1
REM
REM in /home/nfs/bkarasulu/CARBON/AIRSS/Generating-Clusters/REBO/Only-C1/SD-CG/HFTN-CG
REM
REM
REM
REM
REM
REM ./C.cell (11c1c37f851c82e70ff6c80c92926a4b)
REM
REM compiler GCC version 9.2.1 20190827 (Red Hat 9.2.1-1)
REM options -cpp -mtune=generic -march=x86-64 -g -O0 -fpre-include=/usr/include/finclude/math-vector-fortran.h
REM seed -428709634 473952131 122206558 1168618531 493799322 367827402 -691474994 -1252468482 251799304 -959332513 -552275868 1597335291 1728978763 -256822679 -2147331222 -1432156163 879190003 1042898209 1684809879 230050853 814141222 -1040517709 533692605 779202361 -1867499529 -799118546 1926395655 -1693999706 -155837096 1660212023 -1467127429 1401332236 1589005850
REM
CELL 1.54180   50.00000   50.00000   50.00000   90.00000   90.00000   90.00000
LATT -1
SFAC C  
C      1  0.5489720000000  0.4352600000000  0.5357120000000 1.0
C      1  0.5280230000000  0.5000240000000  0.4458520000000 1.0
C      1  0.5688430000000  0.5008240000000  0.4820110000000 1.0
C      1  0.4914000000000  0.5645940000000  0.5320500000000 1.0
C      1  0.4837320000000  0.4596770000000  0.4631310000000 1.0
C      1  0.4565090000000  0.4806200000000  0.4967490000000 1.0
C      1  0.4715120000000  0.4792440000000  0.5493660000000 1.0
C      1  0.5251200000000  0.4847180000000  0.5493910000000 1.0
C      1  0.4923060000000  0.5363420000000  0.4525020000000 1.0
C      1  0.5039360000000  0.4656980000000  0.5094630000000 1.0
C      1  0.5349390000000  0.5172770000000  0.5477640000000 1.0
C      1  0.4857440000000  0.4600080000000  0.5646750000000 1.0
C      1  0.5213100000000  0.4357340000000  0.5429020000000 1.0
C      1  0.3999450000000  0.5211400000000  0.5247880000000 1.0
C      1  0.4331920000000  0.5418840000000  0.5001710000000 1.0
C      1  0.4730220000000  0.4506690000000  0.4346950000000 1.0
C      1  0.5335910000000  0.4782760000000  0.5170200000000 1.0
C      1  0.5411980000000  0.5081110000000  0.4684120000000 1.0
C      1  0.4623260000000  0.5026350000000  0.5634750000000 1.0
C      1  0.4877710000000  0.5837790000000  0.4635460000000 1.0
C      1  0.5307000000000  0.4741110000000  0.4374320000000 1.0
C      1  0.5434580000000  0.5255950000000  0.5234990000000 1.0
C      1  0.4243530000000  0.5100360000000  0.5293040000000 1.0
C      1  0.5062770000000  0.4517760000000  0.4400080000000 1.0
C      1  0.5379190000000  0.4438930000000  0.4314280000000 1.0
C      1  0.4848100000000  0.5159230000000  0.5750710000000 1.0
C      1  0.5042140000000  0.5413250000000  0.5389810000000 1.0
C      1  0.4795880000000  0.5291530000000  0.4756120000000 1.0
C      1  0.5136860000000  0.4579580000000  0.5597130000000 1.0
C      1  0.4883790000000  0.5006420000000  0.4176950000000 1.0
C      1  0.4962650000000  0.5640850000000  0.4455440000000 1.0
C      1  0.5198530000000  0.5397670000000  0.4137950000000 1.0
C      1  0.5875440000000  0.4811880000000  0.4878880000000 1.0
C      1  0.5124900000000  0.5652480000000  0.4220650000000 1.0
C      1  0.4853760000000  0.4873610000000  0.5235560000000 1.0
C      1  0.4998350000000  0.5171410000000  0.5286040000000 1.0
C      1  0.4775160000000  0.5136900000000  0.5047210000000 1.0
C      1  0.4377590000000  0.4945870000000  0.5099010000000 1.0
C      1  0.4806260000000  0.4694410000000  0.4879570000000 1.0
C      1  0.4745310000000  0.5677150000000  0.5096110000000 1.0
C      1  0.4794720000000  0.5864910000000  0.4892820000000 1.0
C      1  0.4609070000000  0.5422540000000  0.4999430000000 1.0
C      1  0.4380240000000  0.5132740000000  0.5539680000000 1.0
C      1  0.5042790000000  0.4365300000000  0.5194490000000 1.0
C      1  0.5805060000000  0.4609850000000  0.5050410000000 1.0
C      1  0.4916900000000  0.4156230000000  0.5068500000000 1.0
C      1  0.5107850000000  0.5106120000000  0.5665110000000 1.0
C      1  0.5565390000000  0.4566880000000  0.5188220000000 1.0
C      1  0.5424710000000  0.5037600000000  0.5019400000000 1.0
C      1  0.5067580000000  0.5166320000000  0.4321350000000 1.0
END
