TITL C-2778427-5640-57 0.000399164716979086 125000 -437.344033189475 0 0 77 (C1) n - 1
REM
REM in /home/nfs/bkarasulu/CARBON/AIRSS/Generating-Clusters/REBO/Only-C1/SD-CG/HFTN-CG
REM
REM
REM
REM
REM
REM ./C.cell (11c1c37f851c82e70ff6c80c92926a4b)
REM
REM compiler GCC version 9.2.1 20190827 (Red Hat 9.2.1-1)
REM options -cpp -mtune=generic -march=x86-64 -g -O0 -fpre-include=/usr/include/finclude/math-vector-fortran.h
REM seed 808928947 -1493705583 1891103216 -752601525 1584915792 -972586873 608308817 1583965378 -1704659371 1352681551 1589532589 317967948 -530355503 -23429563 2001118612 -1913660062 -560939417 1756243045 -2051602846 -1479885602 -2084925611 770890759 -2018295690 -567362045 -360103723 -1586591128 1312131843 -1797559276 -2140886052 384321617 602042761 1378212916 -1437846200
REM
CELL 1.54180   50.00000   50.00000   50.00000   90.00000   90.00000   90.00000
LATT -1
SFAC C  
C      1  0.4655330000000  0.4311540000000  0.5264500000000 1.0
C      1  0.4278460000000  0.4898510000000  0.5169110000000 1.0
C      1  0.5063220000000  0.5383800000000  0.4509020000000 1.0
C      1  0.4625120000000  0.5073090000000  0.5651500000000 1.0
C      1  0.5738680000000  0.4799820000000  0.4961720000000 1.0
C      1  0.5593060000000  0.5561870000000  0.4597390000000 1.0
C      1  0.5301390000000  0.5338050000000  0.5706040000000 1.0
C      1  0.4589210000000  0.5271740000000  0.4664760000000 1.0
C      1  0.5341710000000  0.3926310000000  0.4622250000000 1.0
C      1  0.4926530000000  0.4213970000000  0.5274700000000 1.0
C      1  0.4849530000000  0.5206550000000  0.5182390000000 1.0
C      1  0.5325640000000  0.4545470000000  0.5295700000000 1.0
C      1  0.5283740000000  0.4448750000000  0.4571870000000 1.0
C      1  0.4544450000000  0.4358230000000  0.4438320000000 1.0
C      1  0.4370390000000  0.4698920000000  0.5356840000000 1.0
C      1  0.4961260000000  0.5163520000000  0.4401810000000 1.0
C      1  0.5423040000000  0.4521200000000  0.4334310000000 1.0
C      1  0.4371270000000  0.5178700000000  0.4879580000000 1.0
C      1  0.5202940000000  0.4670550000000  0.5701340000000 1.0
C      1  0.4931450000000  0.5188090000000  0.5681230000000 1.0
C      1  0.5333160000000  0.4864190000000  0.5621950000000 1.0
C      1  0.5090600000000  0.4516470000000  0.5074200000000 1.0
C      1  0.5302930000000  0.4964950000000  0.4604130000000 1.0
C      1  0.5753300000000  0.4987910000000  0.5198380000000 1.0
C      1  0.6086600000000  0.5341150000000  0.5184160000000 1.0
C      1  0.4857020000000  0.4675000000000  0.5040010000000 1.0
C      1  0.4639270000000  0.5570040000000  0.4696970000000 1.0
C      1  0.5183610000000  0.5869950000000  0.5000660000000 1.0
C      1  0.4599830000000  0.4497210000000  0.5507770000000 1.0
C      1  0.4456700000000  0.5280460000000  0.5508220000000 1.0
C      1  0.5347160000000  0.5312290000000  0.5223730000000 1.0
C      1  0.5057170000000  0.4202890000000  0.4983260000000 1.0
C      1  0.4740940000000  0.4514210000000  0.4565060000000 1.0
C      1  0.4620250000000  0.4806400000000  0.4683780000000 1.0
C      1  0.4881220000000  0.4741890000000  0.4388680000000 1.0
C      1  0.4104720000000  0.4740420000000  0.4701740000000 1.0
C      1  0.5827110000000  0.5261140000000  0.5194980000000 1.0
C      1  0.4689300000000  0.4990130000000  0.4402230000000 1.0
C      1  0.4827150000000  0.5051650000000  0.4771440000000 1.0
C      1  0.4655170000000  0.5653000000000  0.5171890000000 1.0
C      1  0.5150660000000  0.4813520000000  0.4345310000000 1.0
C      1  0.4252010000000  0.5483320000000  0.4933750000000 1.0
C      1  0.4888920000000  0.4573640000000  0.5655510000000 1.0
C      1  0.4653730000000  0.4827460000000  0.5455160000000 1.0
C      1  0.5473110000000  0.4619000000000  0.4995530000000 1.0
C      1  0.5611910000000  0.5439100000000  0.5179030000000 1.0
C      1  0.5323350000000  0.5130130000000  0.5490090000000 1.0
C      1  0.4943840000000  0.4359280000000  0.4703270000000 1.0
C      1  0.5155410000000  0.5529450000000  0.4794440000000 1.0
C      1  0.5527350000000  0.5703900000000  0.5110050000000 1.0
C      1  0.5640080000000  0.5339000000000  0.4502200000000 1.0
C      1  0.5414720000000  0.5713130000000  0.4803550000000 1.0
C      1  0.4871760000000  0.4877290000000  0.5782870000000 1.0
C      1  0.4474220000000  0.5655740000000  0.4914610000000 1.0
C      1  0.5216280000000  0.4155250000000  0.4695640000000 1.0
C      1  0.5287310000000  0.5782760000000  0.5293600000000 1.0
C      1  0.5281670000000  0.4681080000000  0.4769100000000 1.0
C      1  0.5794890000000  0.4890680000000  0.4709670000000 1.0
C      1  0.4454190000000  0.5203790000000  0.4362730000000 1.0
C      1  0.4320420000000  0.5158530000000  0.5273020000000 1.0
C      1  0.4566890000000  0.5326500000000  0.5121650000000 1.0
C      1  0.5600920000000  0.5031140000000  0.4508060000000 1.0
C      1  0.4822690000000  0.4903110000000  0.5210720000000 1.0
C      1  0.3905120000000  0.4638730000000  0.4579500000000 1.0
C      1  0.5085790000000  0.5394220000000  0.5072220000000 1.0
C      1  0.5108510000000  0.4961730000000  0.4869490000000 1.0
C      1  0.5472770000000  0.4811830000000  0.4281500000000 1.0
C      1  0.5224780000000  0.5027820000000  0.5151110000000 1.0
C      1  0.4628800000000  0.4491070000000  0.5033370000000 1.0
C      1  0.4897840000000  0.5632930000000  0.4620900000000 1.0
C      1  0.5462910000000  0.4841300000000  0.5245840000000 1.0
C      1  0.4343330000000  0.4861990000000  0.4847870000000 1.0
C      1  0.4988990000000  0.5345780000000  0.5456380000000 1.0
C      1  0.5085130000000  0.4387480000000  0.5451540000000 1.0
C      1  0.4951420000000  0.5689180000000  0.5098190000000 1.0
C      1  0.4548380000000  0.5536570000000  0.5461040000000 1.0
C      1  0.5140280000000  0.5582560000000  0.5433870000000 1.0
END
