TITL C-2778426-5645-1486 -0.0701166692592958 125000 -868.112597381087 0 0 149 (C1) n - 1
REM
REM in /home/nfs/bkarasulu/CARBON/AIRSS/Generating-Clusters/REBO/Only-C1/SD-CG/HFTN-CG
REM
REM
REM
REM
REM
REM ./C.cell (11c1c37f851c82e70ff6c80c92926a4b)
REM
REM compiler GCC version 9.2.1 20190827 (Red Hat 9.2.1-1)
REM options -cpp -mtune=generic -march=x86-64 -g -O0 -fpre-include=/usr/include/finclude/math-vector-fortran.h
REM seed 618040057 709669456 510139028 1912147932 308269883 -2065246235 597473292 -1319669014 1041528784 -807940662 1292025025 735455922 -500528865 1857481097 1741299971 1672813594 1452189077 -97218421 1610330952 1805511820 1440269852 -629476747 -526426438 -567084576 -1390956899 -277500884 1511559262 -1725831361 -1211220711 -990662890 -1554127412 -304739143 -570155437
REM
CELL 1.54180   50.00000   50.00000   50.00000   90.00000   90.00000   90.00000
LATT -1
SFAC C  
C      1  0.4505260000000  0.5593310000000  0.4249200000000 1.0
C      1  0.5115300000000  0.5638080000000  0.4332490000000 1.0
C      1  0.4115050000000  0.5497460000000  0.4721230000000 1.0
C      1  0.5742330000000  0.4940750000000  0.4828060000000 1.0
C      1  0.5823860000000  0.4460820000000  0.4839180000000 1.0
C      1  0.5398540000000  0.4065140000000  0.4741810000000 1.0
C      1  0.5388770000000  0.5309750000000  0.5901020000000 1.0
C      1  0.5029890000000  0.5519470000000  0.5765680000000 1.0
C      1  0.5232450000000  0.4551600000000  0.4614030000000 1.0
C      1  0.5453420000000  0.5785780000000  0.5661210000000 1.0
C      1  0.4640630000000  0.5158540000000  0.4125700000000 1.0
C      1  0.4855430000000  0.5064350000000  0.5525960000000 1.0
C      1  0.5883040000000  0.4790640000000  0.5100920000000 1.0
C      1  0.5516960000000  0.4504660000000  0.5753810000000 1.0
C      1  0.5189510000000  0.4829160000000  0.4042950000000 1.0
C      1  0.5135440000000  0.5040340000000  0.4557160000000 1.0
C      1  0.5125540000000  0.4168990000000  0.4567430000000 1.0
C      1  0.5494200000000  0.4711420000000  0.5077090000000 1.0
C      1  0.5767500000000  0.4567310000000  0.4585220000000 1.0
C      1  0.4911280000000  0.5633650000000  0.5257580000000 1.0
C      1  0.5331850000000  0.5830340000000  0.4472960000000 1.0
C      1  0.5224610000000  0.4390970000000  0.4328300000000 1.0
C      1  0.3998670000000  0.4982710000000  0.5059850000000 1.0
C      1  0.5604760000000  0.5450340000000  0.5817660000000 1.0
C      1  0.4792260000000  0.5262770000000  0.4394070000000 1.0
C      1  0.4755550000000  0.5362860000000  0.5829560000000 1.0
C      1  0.4036540000000  0.4905340000000  0.4726760000000 1.0
C      1  0.4636750000000  0.4851550000000  0.5546630000000 1.0
C      1  0.5704990000000  0.5812220000000  0.5195500000000 1.0
C      1  0.4530020000000  0.4884040000000  0.4906200000000 1.0
C      1  0.4394650000000  0.4919530000000  0.5755050000000 1.0
C      1  0.4482300000000  0.5931540000000  0.4996290000000 1.0
C      1  0.4312990000000  0.5177870000000  0.5583940000000 1.0
C      1  0.5102800000000  0.4497600000000  0.5050100000000 1.0
C      1  0.4189230000000  0.5416310000000  0.4405870000000 1.0
C      1  0.4924110000000  0.4893720000000  0.4332420000000 1.0
C      1  0.4651240000000  0.4563810000000  0.5109080000000 1.0
C      1  0.5101720000000  0.5295640000000  0.5552090000000 1.0
C      1  0.5001540000000  0.3997470000000  0.5102350000000 1.0
C      1  0.4863710000000  0.5633900000000  0.4749730000000 1.0
C      1  0.4526210000000  0.5278130000000  0.4847930000000 1.0
C      1  0.5166610000000  0.3942650000000  0.5577730000000 1.0
C      1  0.4743580000000  0.5829140000000  0.5105820000000 1.0
C      1  0.4828420000000  0.5655370000000  0.5566720000000 1.0
C      1  0.4836050000000  0.4352370000000  0.5500120000000 1.0
C      1  0.5191330000000  0.5953710000000  0.4733630000000 1.0
C      1  0.4185870000000  0.5177060000000  0.4625430000000 1.0
C      1  0.4424520000000  0.4469700000000  0.4456700000000 1.0
C      1  0.5373040000000  0.5363360000000  0.4203230000000 1.0
C      1  0.4369120000000  0.5660550000000  0.4557870000000 1.0
C      1  0.4355870000000  0.5303480000000  0.4147030000000 1.0
C      1  0.5055240000000  0.5221120000000  0.5035540000000 1.0
C      1  0.5477760000000  0.5040000000000  0.4985830000000 1.0
C      1  0.5643580000000  0.4719630000000  0.4240650000000 1.0
C      1  0.5217230000000  0.4642270000000  0.5529840000000 1.0
C      1  0.5464480000000  0.5446410000000  0.4824230000000 1.0
C      1  0.5122830000000  0.4921890000000  0.5118300000000 1.0
C      1  0.5464050000000  0.5033260000000  0.4647660000000 1.0
C      1  0.5099670000000  0.4916220000000  0.5670900000000 1.0
C      1  0.4738450000000  0.5124360000000  0.5035900000000 1.0
C      1  0.4549890000000  0.5580860000000  0.4821810000000 1.0
C      1  0.5410300000000  0.3995520000000  0.5560620000000 1.0
C      1  0.5743560000000  0.5398970000000  0.4947350000000 1.0
C      1  0.5829590000000  0.4873520000000  0.4445010000000 1.0
C      1  0.5134610000000  0.5436790000000  0.4815850000000 1.0
C      1  0.4588200000000  0.4838990000000  0.4358570000000 1.0
C      1  0.5368000000000  0.4863670000000  0.5353160000000 1.0
C      1  0.4250720000000  0.4674860000000  0.5621600000000 1.0
C      1  0.4903820000000  0.4853970000000  0.4726410000000 1.0
C      1  0.4667080000000  0.6071910000000  0.4798800000000 1.0
C      1  0.5501190000000  0.4186140000000  0.5036790000000 1.0
C      1  0.4719300000000  0.5098460000000  0.4632810000000 1.0
C      1  0.4931480000000  0.4607210000000  0.4493080000000 1.0
C      1  0.4401450000000  0.5626190000000  0.5128300000000 1.0
C      1  0.5567240000000  0.4200740000000  0.5360070000000 1.0
C      1  0.4240150000000  0.4697000000000  0.4867090000000 1.0
C      1  0.4564390000000  0.4350210000000  0.4893350000000 1.0
C      1  0.5189090000000  0.4537190000000  0.5837210000000 1.0
C      1  0.4249320000000  0.5379340000000  0.5314160000000 1.0
C      1  0.5320580000000  0.5866970000000  0.4966980000000 1.0
C      1  0.4390000000000  0.4397660000000  0.5249190000000 1.0
C      1  0.4369040000000  0.4454340000000  0.4728760000000 1.0
C      1  0.5077500000000  0.5377650000000  0.4099720000000 1.0
C      1  0.4081170000000  0.4875210000000  0.4388910000000 1.0
C      1  0.5242030000000  0.5080020000000  0.5888640000000 1.0
C      1  0.5606480000000  0.5833760000000  0.4923510000000 1.0
C      1  0.4907450000000  0.3998090000000  0.4772620000000 1.0
C      1  0.4917210000000  0.4032130000000  0.5416370000000 1.0
C      1  0.4418720000000  0.4975030000000  0.4610180000000 1.0
C      1  0.4289210000000  0.4697580000000  0.4339190000000 1.0
C      1  0.5097320000000  0.4435900000000  0.5358410000000 1.0
C      1  0.5621060000000  0.5765910000000  0.4644220000000 1.0
C      1  0.4098050000000  0.5088540000000  0.4209750000000 1.0
C      1  0.4268140000000  0.5268550000000  0.5010320000000 1.0
C      1  0.4050040000000  0.5103680000000  0.5378360000000 1.0
C      1  0.4784510000000  0.5320720000000  0.5310720000000 1.0
C      1  0.5796870000000  0.5095150000000  0.5535980000000 1.0
C      1  0.4459080000000  0.4079770000000  0.5165930000000 1.0
C      1  0.5085000000000  0.4572170000000  0.4111920000000 1.0
C      1  0.4690620000000  0.4436560000000  0.4366560000000 1.0
C      1  0.5077450000000  0.4255840000000  0.4894080000000 1.0
C      1  0.5961630000000  0.5267710000000  0.4764010000000 1.0
C      1  0.4593110000000  0.4125940000000  0.5456050000000 1.0
C      1  0.5385310000000  0.5146530000000  0.5521180000000 1.0
C      1  0.5256800000000  0.4729290000000  0.4867610000000 1.0
C      1  0.5246850000000  0.4181090000000  0.5247100000000 1.0
C      1  0.5488300000000  0.5779220000000  0.5384070000000 1.0
C      1  0.5500810000000  0.4775240000000  0.5898750000000 1.0
C      1  0.5676100000000  0.5444210000000  0.4555780000000 1.0
C      1  0.4667550000000  0.4831730000000  0.4033550000000 1.0
C      1  0.4748580000000  0.5571800000000  0.4475490000000 1.0
C      1  0.4970210000000  0.5088110000000  0.4066190000000 1.0
C      1  0.4625280000000  0.4059540000000  0.4909330000000 1.0
C      1  0.4801350000000  0.4569370000000  0.4116960000000 1.0
C      1  0.4830860000000  0.5607690000000  0.4148260000000 1.0
C      1  0.4171550000000  0.4607540000000  0.5158800000000 1.0
C      1  0.5544580000000  0.4461020000000  0.4369500000000 1.0
C      1  0.4331400000000  0.4973370000000  0.5138190000000 1.0
C      1  0.4746120000000  0.5155980000000  0.6005090000000 1.0
C      1  0.5227140000000  0.5696300000000  0.5218030000000 1.0
C      1  0.5086700000000  0.5362210000000  0.4502850000000 1.0
C      1  0.5723050000000  0.4499950000000  0.5146330000000 1.0
C      1  0.5444930000000  0.5119180000000  0.4319130000000 1.0
C      1  0.5437030000000  0.4384200000000  0.4778080000000 1.0
C      1  0.4508730000000  0.4777320000000  0.5289610000000 1.0
C      1  0.3946400000000  0.5290170000000  0.4920910000000 1.0
C      1  0.5817580000000  0.5274990000000  0.5255630000000 1.0
C      1  0.5508500000000  0.5580740000000  0.4323260000000 1.0
C      1  0.5978320000000  0.5090100000000  0.5033250000000 1.0
C      1  0.5813020000000  0.5395720000000  0.5636740000000 1.0
C      1  0.4098710000000  0.4766560000000  0.5387960000000 1.0
C      1  0.5218320000000  0.5381690000000  0.5252100000000 1.0
C      1  0.5271550000000  0.5688540000000  0.5838600000000 1.0
C      1  0.4660380000000  0.4902570000000  0.5942480000000 1.0
C      1  0.5650140000000  0.4484060000000  0.5479820000000 1.0
C      1  0.5848330000000  0.5154240000000  0.4508290000000 1.0
C      1  0.5442280000000  0.4893710000000  0.4147000000000 1.0
C      1  0.4911820000000  0.5932660000000  0.4746230000000 1.0
C      1  0.4723710000000  0.4583240000000  0.5686350000000 1.0
C      1  0.4577010000000  0.5346040000000  0.5579610000000 1.0
C      1  0.5663750000000  0.4964220000000  0.5798930000000 1.0
C      1  0.5191720000000  0.4798570000000  0.6041330000000 1.0
C      1  0.4892880000000  0.4668790000000  0.5940610000000 1.0
C      1  0.6010930000000  0.5565410000000  0.5548260000000 1.0
C      1  0.4449770000000  0.4413680000000  0.5576730000000 1.0
C      1  0.4544750000000  0.5623260000000  0.5414890000000 1.0
C      1  0.5715060000000  0.4808280000000  0.5395760000000 1.0
C      1  0.5502100000000  0.5228230000000  0.5215880000000 1.0
C      1  0.4883430000000  0.4724770000000  0.5003910000000 1.0
END
