TITL C-2778430-5657-567 0.00356728456117293 125000 -1113.9482536945 0 0 187 (C1) n - 1
REM
REM in /home/nfs/bkarasulu/CARBON/AIRSS/Generating-Clusters/REBO/Only-C1/SD-CG/HFTN-CG
REM
REM
REM
REM
REM
REM ./C.cell (11c1c37f851c82e70ff6c80c92926a4b)
REM
REM compiler GCC version 9.2.1 20190827 (Red Hat 9.2.1-1)
REM options -cpp -mtune=generic -march=x86-64 -g -O0 -fpre-include=/usr/include/finclude/math-vector-fortran.h
REM seed -1520316225 178126438 -1657698579 735749819 -2134767184 -520101176 -1340716727 -1644360663 703229663 -370833243 2091332634 -125392317 -328513443 1223453444 -425754371 410164538 150408117 -1990531644 656964303 -839205905 -843263870 1550872362 371559618 1854539277 1096955094 -720927829 967348846 -1266897089 -341131448 -1446655586 433896739 -613906977 1616084373
REM
CELL 1.54180   50.00000   50.00000   50.00000   90.00000   90.00000   90.00000
LATT -1
SFAC C  
C      1  0.4286370000000  0.4698040000000  0.5873470000000 1.0
C      1  0.5278290000000  0.6111830000000  0.5482860000000 1.0
C      1  0.5629810000000  0.5426680000000  0.4506000000000 1.0
C      1  0.4586120000000  0.4726320000000  0.4930530000000 1.0
C      1  0.5927710000000  0.5164590000000  0.5673830000000 1.0
C      1  0.4254690000000  0.4358820000000  0.5434590000000 1.0
C      1  0.5155040000000  0.5381210000000  0.4054920000000 1.0
C      1  0.6017490000000  0.5005190000000  0.5387790000000 1.0
C      1  0.4956860000000  0.5381710000000  0.3792320000000 1.0
C      1  0.4297800000000  0.5075870000000  0.4789420000000 1.0
C      1  0.5386090000000  0.4556930000000  0.4865750000000 1.0
C      1  0.4657320000000  0.5558650000000  0.5032900000000 1.0
C      1  0.4255970000000  0.5132300000000  0.4486940000000 1.0
C      1  0.5725530000000  0.4848010000000  0.5017280000000 1.0
C      1  0.4683050000000  0.4070860000000  0.5264150000000 1.0
C      1  0.5832020000000  0.4620750000000  0.4407970000000 1.0
C      1  0.4669570000000  0.4564870000000  0.4438070000000 1.0
C      1  0.4573770000000  0.4557830000000  0.5885810000000 1.0
C      1  0.4910110000000  0.6050870000000  0.4701110000000 1.0
C      1  0.6127860000000  0.4598340000000  0.5019590000000 1.0
C      1  0.5809740000000  0.4513890000000  0.5487370000000 1.0
C      1  0.4183750000000  0.5718220000000  0.4908000000000 1.0
C      1  0.4112650000000  0.4468980000000  0.4601560000000 1.0
C      1  0.4187760000000  0.5352510000000  0.5366480000000 1.0
C      1  0.3945210000000  0.4586310000000  0.5327410000000 1.0
C      1  0.4569850000000  0.5186880000000  0.4905900000000 1.0
C      1  0.5306960000000  0.4787020000000  0.5312820000000 1.0
C      1  0.5577460000000  0.5367300000000  0.6011480000000 1.0
C      1  0.5357870000000  0.5372330000000  0.5227630000000 1.0
C      1  0.3956620000000  0.5319760000000  0.4673750000000 1.0
C      1  0.5173930000000  0.5732000000000  0.5541850000000 1.0
C      1  0.5872340000000  0.5284150000000  0.5299560000000 1.0
C      1  0.5985720000000  0.4790900000000  0.4602950000000 1.0
C      1  0.4256770000000  0.5051530000000  0.5409260000000 1.0
C      1  0.5627640000000  0.5902750000000  0.4868850000000 1.0
C      1  0.5115400000000  0.5130230000000  0.4222150000000 1.0
C      1  0.5542860000000  0.4931560000000  0.5212390000000 1.0
C      1  0.5014570000000  0.4962860000000  0.5316110000000 1.0
C      1  0.4855920000000  0.4604100000000  0.5270730000000 1.0
C      1  0.5900470000000  0.4332440000000  0.5287210000000 1.0
C      1  0.5855200000000  0.5173650000000  0.4132580000000 1.0
C      1  0.4273960000000  0.5573270000000  0.5611700000000 1.0
C      1  0.5740950000000  0.4134320000000  0.5182050000000 1.0
C      1  0.5094470000000  0.4986510000000  0.6004260000000 1.0
C      1  0.5653640000000  0.4480810000000  0.6072470000000 1.0
C      1  0.5169590000000  0.5405520000000  0.5501930000000 1.0
C      1  0.5366570000000  0.5835640000000  0.4321370000000 1.0
C      1  0.5492830000000  0.5641200000000  0.5895970000000 1.0
C      1  0.5093570000000  0.5686150000000  0.5110920000000 1.0
C      1  0.5057970000000  0.4842560000000  0.4237870000000 1.0
C      1  0.4109340000000  0.4601050000000  0.5625890000000 1.0
C      1  0.5094350000000  0.4927510000000  0.5612680000000 1.0
C      1  0.3980700000000  0.4775510000000  0.4523580000000 1.0
C      1  0.4534910000000  0.4784230000000  0.4640980000000 1.0
C      1  0.4522000000000  0.5161510000000  0.4049450000000 1.0
C      1  0.4985540000000  0.5527300000000  0.5928150000000 1.0
C      1  0.4971140000000  0.5850370000000  0.4328240000000 1.0
C      1  0.5126220000000  0.4106730000000  0.5848460000000 1.0
C      1  0.3851190000000  0.5102760000000  0.5150910000000 1.0
C      1  0.4821940000000  0.5030390000000  0.4769720000000 1.0
C      1  0.4676450000000  0.4489010000000  0.4125200000000 1.0
C      1  0.4516040000000  0.4176520000000  0.5507090000000 1.0
C      1  0.4879520000000  0.4270950000000  0.5055320000000 1.0
C      1  0.5564780000000  0.5034420000000  0.4021610000000 1.0
C      1  0.4673590000000  0.4886430000000  0.4138330000000 1.0
C      1  0.4366280000000  0.4852570000000  0.5157260000000 1.0
C      1  0.4400030000000  0.4686020000000  0.4173910000000 1.0
C      1  0.4665060000000  0.5880470000000  0.4964890000000 1.0
C      1  0.4720620000000  0.5200290000000  0.5192780000000 1.0
C      1  0.5129290000000  0.5192470000000  0.5763640000000 1.0
C      1  0.4032100000000  0.4944690000000  0.4959850000000 1.0
C      1  0.5629590000000  0.4946790000000  0.4747870000000 1.0
C      1  0.5136830000000  0.5027130000000  0.5015000000000 1.0
C      1  0.5558640000000  0.4137860000000  0.4627180000000 1.0
C      1  0.5541690000000  0.4468360000000  0.4635360000000 1.0
C      1  0.4293210000000  0.4690980000000  0.4467030000000 1.0
C      1  0.5265330000000  0.5364840000000  0.3732460000000 1.0
C      1  0.4991590000000  0.4449780000000  0.4635570000000 1.0
C      1  0.4990780000000  0.6133520000000  0.4996530000000 1.0
C      1  0.5674870000000  0.5751890000000  0.5634540000000 1.0
C      1  0.5604340000000  0.4946250000000  0.4407790000000 1.0
C      1  0.5353100000000  0.5860780000000  0.4715070000000 1.0
C      1  0.5984180000000  0.5081530000000  0.4624870000000 1.0
C      1  0.4542340000000  0.5945460000000  0.5262070000000 1.0
C      1  0.4523760000000  0.4538400000000  0.5345130000000 1.0
C      1  0.3959970000000  0.5364150000000  0.5166530000000 1.0
C      1  0.3793710000000  0.4972420000000  0.5397860000000 1.0
C      1  0.4309760000000  0.5010300000000  0.4232110000000 1.0
C      1  0.4715550000000  0.5418280000000  0.5810660000000 1.0
C      1  0.5492250000000  0.5237410000000  0.4285090000000 1.0
C      1  0.4700040000000  0.5430640000000  0.4722510000000 1.0
C      1  0.5212740000000  0.5648370000000  0.5836180000000 1.0
C      1  0.5172060000000  0.6043790000000  0.4508740000000 1.0
C      1  0.4618630000000  0.5136670000000  0.5966180000000 1.0
C      1  0.5516560000000  0.4524110000000  0.4314360000000 1.0
C      1  0.5875080000000  0.5242500000000  0.4398170000000 1.0
C      1  0.4230210000000  0.4095810000000  0.4935350000000 1.0
C      1  0.4738120000000  0.4960330000000  0.4446150000000 1.0
C      1  0.4848750000000  0.4691590000000  0.3935330000000 1.0
C      1  0.4285570000000  0.5651750000000  0.4434950000000 1.0
C      1  0.4134240000000  0.5413380000000  0.4450120000000 1.0
C      1  0.5089960000000  0.4428640000000  0.4931860000000 1.0
C      1  0.4093720000000  0.4660900000000  0.5088510000000 1.0
C      1  0.5898020000000  0.5596810000000  0.5435040000000 1.0
C      1  0.5594690000000  0.5720350000000  0.4515890000000 1.0
C      1  0.5852740000000  0.5827520000000  0.4675770000000 1.0
C      1  0.4297810000000  0.5820840000000  0.4666730000000 1.0
C      1  0.5423630000000  0.5299630000000  0.5704390000000 1.0
C      1  0.5239360000000  0.4033370000000  0.5326440000000 1.0
C      1  0.5297110000000  0.4528800000000  0.5175470000000 1.0
C      1  0.5361600000000  0.4769150000000  0.5639250000000 1.0
C      1  0.5219640000000  0.4720790000000  0.6009060000000 1.0
C      1  0.4673710000000  0.4319420000000  0.4637830000000 1.0
C      1  0.5086330000000  0.3987160000000  0.4815470000000 1.0
C      1  0.5299460000000  0.5293000000000  0.4927880000000 1.0
C      1  0.4763520000000  0.4043940000000  0.4363080000000 1.0
C      1  0.4000320000000  0.5489820000000  0.4913320000000 1.0
C      1  0.4701620000000  0.5862390000000  0.4386530000000 1.0
C      1  0.4853390000000  0.5715210000000  0.4725730000000 1.0
C      1  0.5350140000000  0.4831920000000  0.4603470000000 1.0
C      1  0.4921800000000  0.4393760000000  0.5522910000000 1.0
C      1  0.5758020000000  0.4788610000000  0.4145970000000 1.0
C      1  0.5647180000000  0.4885250000000  0.5726930000000 1.0
C      1  0.4529510000000  0.5662900000000  0.4291540000000 1.0
C      1  0.6030110000000  0.4530750000000  0.4759070000000 1.0
C      1  0.5580760000000  0.5263950000000  0.4785300000000 1.0
C      1  0.5666720000000  0.5798340000000  0.5154490000000 1.0
C      1  0.4577250000000  0.4727000000000  0.5603670000000 1.0
C      1  0.3921710000000  0.5018310000000  0.4673580000000 1.0
C      1  0.4492250000000  0.5041440000000  0.5598920000000 1.0
C      1  0.5159070000000  0.5647850000000  0.4189960000000 1.0
C      1  0.5855690000000  0.4782230000000  0.5562540000000 1.0
C      1  0.4967530000000  0.5968000000000  0.5502410000000 1.0
C      1  0.4813990000000  0.4956340000000  0.6071840000000 1.0
C      1  0.4911930000000  0.4777910000000  0.4979330000000 1.0
C      1  0.4631560000000  0.5307740000000  0.5503080000000 1.0
C      1  0.4679150000000  0.4347190000000  0.5673520000000 1.0
C      1  0.4660340000000  0.5408930000000  0.4214190000000 1.0
C      1  0.5146490000000  0.5676230000000  0.4831550000000 1.0
C      1  0.4534610000000  0.4092860000000  0.4972230000000 1.0
C      1  0.5263220000000  0.5131920000000  0.4501910000000 1.0
C      1  0.5142710000000  0.4701160000000  0.3982910000000 1.0
C      1  0.4681780000000  0.4898350000000  0.5278340000000 1.0
C      1  0.4695940000000  0.5373300000000  0.3877630000000 1.0
C      1  0.5583760000000  0.5191230000000  0.5295620000000 1.0
C      1  0.5018520000000  0.4532080000000  0.6102010000000 1.0
C      1  0.4668670000000  0.5876550000000  0.5511530000000 1.0
C      1  0.4923560000000  0.5466680000000  0.5216310000000 1.0
C      1  0.4991210000000  0.3980050000000  0.5144220000000 1.0
C      1  0.6031930000000  0.5629290000000  0.4736740000000 1.0
C      1  0.4764650000000  0.4667350000000  0.6089430000000 1.0
C      1  0.5440620000000  0.4715520000000  0.4043310000000 1.0
C      1  0.5908940000000  0.5340550000000  0.4834800000000 1.0
C      1  0.5347140000000  0.4235420000000  0.4377790000000 1.0
C      1  0.5048330000000  0.5954490000000  0.5196190000000 1.0
C      1  0.4760300000000  0.4025730000000  0.4762310000000 1.0
C      1  0.4575650000000  0.5992500000000  0.4659680000000 1.0
C      1  0.5471800000000  0.4558520000000  0.5875690000000 1.0
C      1  0.4020590000000  0.4910550000000  0.5541160000000 1.0
C      1  0.5826970000000  0.4334400000000  0.4712760000000 1.0
C      1  0.5098520000000  0.4176480000000  0.5578160000000 1.0
C      1  0.5401600000000  0.3997750000000  0.4848910000000 1.0
C      1  0.4852920000000  0.4231850000000  0.4155940000000 1.0
C      1  0.5054900000000  0.5250850000000  0.4695450000000 1.0
C      1  0.4100260000000  0.4242860000000  0.5201070000000 1.0
C      1  0.5985330000000  0.4812060000000  0.5135820000000 1.0
C      1  0.4344800000000  0.4224170000000  0.4645840000000 1.0
C      1  0.4538170000000  0.5661190000000  0.5661970000000 1.0
C      1  0.5047440000000  0.4146330000000  0.4516350000000 1.0
C      1  0.5100470000000  0.4693100000000  0.4484930000000 1.0
C      1  0.5396050000000  0.4321220000000  0.5363810000000 1.0
C      1  0.4799280000000  0.5284440000000  0.4463330000000 1.0
C      1  0.5071950000000  0.4257500000000  0.6069800000000 1.0
C      1  0.4587100000000  0.4418030000000  0.5045340000000 1.0
C      1  0.4101700000000  0.4409000000000  0.4903110000000 1.0
C      1  0.4331650000000  0.5759140000000  0.5147930000000 1.0
C      1  0.4366360000000  0.4987220000000  0.5888040000000 1.0
C      1  0.5516330000000  0.5955680000000  0.5423250000000 1.0
C      1  0.5491090000000  0.4020630000000  0.5119320000000 1.0
C      1  0.4459290000000  0.5488590000000  0.5270810000000 1.0
C      1  0.5425460000000  0.5655200000000  0.5326340000000 1.0
C      1  0.5707840000000  0.5412110000000  0.5638770000000 1.0
C      1  0.5125610000000  0.4239350000000  0.4135520000000 1.0
C      1  0.4506720000000  0.4011890000000  0.4447790000000 1.0
C      1  0.5894090000000  0.5550770000000  0.5102470000000 1.0
C      1  0.5715630000000  0.5116630000000  0.5906730000000 1.0
C      1  0.5552380000000  0.4423780000000  0.5583550000000 1.0
END
