TITL C-2778429-3646-937 4.86920479781217e-05 125000 -578.33372988913 0 0 101 (C1) n - 1
REM
REM in /home/nfs/bkarasulu/CARBON/AIRSS/Generating-Clusters/REBO/Only-C1/SD-CG/HFTN-CG
REM
REM
REM
REM
REM
REM ./C.cell (11c1c37f851c82e70ff6c80c92926a4b)
REM
REM compiler GCC version 9.2.1 20190827 (Red Hat 9.2.1-1)
REM options -cpp -mtune=generic -march=x86-64 -g -O0 -fpre-include=/usr/include/finclude/math-vector-fortran.h
REM seed 316141049 -99305413 -1110602635 -3784794 1588101084 -1409808427 1217417744 -1303949059 -2147306776 -1791860737 -185173257 -1774125600 -1346446274 -2094761787 1443249307 836608493 -171881199 -954079111 413994216 -2049094346 -1155844493 -234631553 1006647336 1716517240 -517797396 603587365 169532188 -1566152725 -1858335921 555389418 -1251944786 1805921469 -1364648978
REM
CELL 1.54180   50.00000   50.00000   50.00000   90.00000   90.00000   90.00000
LATT -1
SFAC C  
C      1  0.4507230000000  0.4725930000000  0.5553480000000 1.0
C      1  0.4803240000000  0.5376120000000  0.5462310000000 1.0
C      1  0.4561860000000  0.4521480000000  0.5037450000000 1.0
C      1  0.4109390000000  0.5003720000000  0.5377030000000 1.0
C      1  0.5347610000000  0.5560500000000  0.4512750000000 1.0
C      1  0.4542650000000  0.5296780000000  0.5595050000000 1.0
C      1  0.5355830000000  0.5016830000000  0.4940920000000 1.0
C      1  0.4932960000000  0.5077380000000  0.4139950000000 1.0
C      1  0.4815180000000  0.5624800000000  0.4390740000000 1.0
C      1  0.4517100000000  0.5328850000000  0.4734140000000 1.0
C      1  0.4779960000000  0.4848910000000  0.4209010000000 1.0
C      1  0.5613370000000  0.5619240000000  0.4711150000000 1.0
C      1  0.5117020000000  0.5873800000000  0.4822050000000 1.0
C      1  0.5070540000000  0.5278690000000  0.5843000000000 1.0
C      1  0.4349240000000  0.5619100000000  0.4697210000000 1.0
C      1  0.5363100000000  0.5171100000000  0.5779090000000 1.0
C      1  0.5865890000000  0.5184010000000  0.4584850000000 1.0
C      1  0.4618580000000  0.5648240000000  0.4990600000000 1.0
C      1  0.5480940000000  0.5286420000000  0.4551400000000 1.0
C      1  0.5293080000000  0.4553540000000  0.5187040000000 1.0
C      1  0.5574900000000  0.4420710000000  0.4815300000000 1.0
C      1  0.4115000000000  0.5175590000000  0.4552480000000 1.0
C      1  0.4509310000000  0.5041310000000  0.5154200000000 1.0
C      1  0.5078670000000  0.4167260000000  0.5057480000000 1.0
C      1  0.4392190000000  0.4749270000000  0.4546780000000 1.0
C      1  0.5107010000000  0.4980120000000  0.5703320000000 1.0
C      1  0.4685300000000  0.4525930000000  0.5641840000000 1.0
C      1  0.5354190000000  0.4529640000000  0.4362260000000 1.0
C      1  0.4526990000000  0.4792600000000  0.4837050000000 1.0
C      1  0.5148010000000  0.4334370000000  0.5513640000000 1.0
C      1  0.5644190000000  0.4859890000000  0.5529750000000 1.0
C      1  0.4784100000000  0.4883520000000  0.5916070000000 1.0
C      1  0.4637320000000  0.4281220000000  0.5504490000000 1.0
C      1  0.5476850000000  0.4325350000000  0.5286300000000 1.0
C      1  0.5299730000000  0.4139490000000  0.4872210000000 1.0
C      1  0.5049780000000  0.5617670000000  0.5264200000000 1.0
C      1  0.5746600000000  0.5166760000000  0.5136680000000 1.0
C      1  0.4994450000000  0.4709900000000  0.4750290000000 1.0
C      1  0.4000500000000  0.4987800000000  0.5154570000000 1.0
C      1  0.5249420000000  0.4534340000000  0.4874430000000 1.0
C      1  0.4388860000000  0.5516710000000  0.5676810000000 1.0
C      1  0.4750530000000  0.6033000000000  0.5284360000000 1.0
C      1  0.4734640000000  0.5036000000000  0.4897860000000 1.0
C      1  0.4795040000000  0.5792820000000  0.5186280000000 1.0
C      1  0.5168020000000  0.4479870000000  0.4151460000000 1.0
C      1  0.5554320000000  0.4191180000000  0.5044030000000 1.0
C      1  0.4596380000000  0.5036460000000  0.5800750000000 1.0
C      1  0.5424740000000  0.4830310000000  0.5196830000000 1.0
C      1  0.4915630000000  0.4605990000000  0.4169460000000 1.0
C      1  0.4035750000000  0.4992830000000  0.4860790000000 1.0
C      1  0.5350080000000  0.5436630000000  0.4897350000000 1.0
C      1  0.4655480000000  0.5726500000000  0.4673770000000 1.0
C      1  0.5412460000000  0.5779180000000  0.5274630000000 1.0
C      1  0.5142300000000  0.4108380000000  0.5339080000000 1.0
C      1  0.5520130000000  0.5683130000000  0.5018530000000 1.0
C      1  0.5015150000000  0.4587790000000  0.5336930000000 1.0
C      1  0.5874070000000  0.4953080000000  0.4908110000000 1.0
C      1  0.4500640000000  0.4275500000000  0.5263010000000 1.0
C      1  0.4271600000000  0.5434060000000  0.4438680000000 1.0
C      1  0.4484780000000  0.4765660000000  0.5261360000000 1.0
C      1  0.4765020000000  0.4238630000000  0.4841200000000 1.0
C      1  0.4903440000000  0.4648540000000  0.5795620000000 1.0
C      1  0.4892030000000  0.4445140000000  0.5079880000000 1.0
C      1  0.4358260000000  0.5014280000000  0.5557200000000 1.0
C      1  0.4307160000000  0.5520620000000  0.5015390000000 1.0
C      1  0.4351020000000  0.5063850000000  0.4788780000000 1.0
C      1  0.4776450000000  0.4525600000000  0.4682330000000 1.0
C      1  0.5543760000000  0.4274340000000  0.5547090000000 1.0
C      1  0.5416260000000  0.4732480000000  0.5655150000000 1.0
C      1  0.5480210000000  0.5310260000000  0.5551370000000 1.0
C      1  0.5090870000000  0.5371930000000  0.4780100000000 1.0
C      1  0.4656470000000  0.5326930000000  0.5028490000000 1.0
C      1  0.4482710000000  0.4363140000000  0.4738700000000 1.0
C      1  0.4513400000000  0.5188180000000  0.4423260000000 1.0
C      1  0.5117590000000  0.5505350000000  0.4344240000000 1.0
C      1  0.4551930000000  0.4903420000000  0.4364090000000 1.0
C      1  0.5000570000000  0.5062590000000  0.4763270000000 1.0
C      1  0.5723280000000  0.4770330000000  0.5148720000000 1.0
C      1  0.5069780000000  0.4870040000000  0.5447010000000 1.0
C      1  0.5578970000000  0.5217480000000  0.4861250000000 1.0
C      1  0.5767530000000  0.4635330000000  0.4843510000000 1.0
C      1  0.4567980000000  0.5479610000000  0.4274430000000 1.0
C      1  0.4112640000000  0.4839170000000  0.4565480000000 1.0
C      1  0.5334370000000  0.4346950000000  0.4602660000000 1.0
C      1  0.4968910000000  0.5635570000000  0.4690950000000 1.0
C      1  0.5141610000000  0.5231410000000  0.4244330000000 1.0
C      1  0.5368650000000  0.5102720000000  0.4367990000000 1.0
C      1  0.5009520000000  0.5481160000000  0.5641390000000 1.0
C      1  0.5639890000000  0.5129980000000  0.5399510000000 1.0
C      1  0.5260210000000  0.4882710000000  0.4682370000000 1.0
C      1  0.4988430000000  0.5300800000000  0.5214210000000 1.0
C      1  0.5300550000000  0.5559480000000  0.5486610000000 1.0
C      1  0.5174020000000  0.5870820000000  0.5085530000000 1.0
C      1  0.5748170000000  0.4869360000000  0.4599830000000 1.0
C      1  0.5842850000000  0.5427330000000  0.4643840000000 1.0
C      1  0.5463250000000  0.4811550000000  0.4453370000000 1.0
C      1  0.5877620000000  0.4717150000000  0.5513670000000 1.0
C      1  0.4276310000000  0.5276910000000  0.5138410000000 1.0
C      1  0.5167560000000  0.5061610000000  0.5213380000000 1.0
C      1  0.5174170000000  0.4577860000000  0.5702530000000 1.0
C      1  0.5226760000000  0.4306140000000  0.3950200000000 1.0
END
