TITL C-2778437-8639-315 0.161995857958073 125000 -353.624344916229 0 0 61 (C1) n - 1
REM
REM in /home/nfs/bkarasulu/CARBON/AIRSS/Generating-Clusters/REBO/Only-C1/SD-CG/HFTN-CG
REM
REM
REM
REM
REM
REM ./C.cell (11c1c37f851c82e70ff6c80c92926a4b)
REM
REM compiler GCC version 9.2.1 20190827 (Red Hat 9.2.1-1)
REM options -cpp -mtune=generic -march=x86-64 -g -O0 -fpre-include=/usr/include/finclude/math-vector-fortran.h
REM seed -1859614007 -1294239890 209273083 471409072 948487146 -141846014 -1204476442 650252650 -891321689 -1744258535 -246884469 -815306292 974490791 2131337566 1159627522 2020228684 -148119850 1758641508 475832327 1998666726 -1320937989 1193019172 1512200136 -87350349 -123086390 993179243 1918073281 -234953777 -2135454323 -1869872392 427889135 619547201 167666809
REM
CELL 1.54180   50.00000   50.00000   50.00000   90.00000   90.00000   90.00000
LATT -1
SFAC C  
C      1  0.4968780000000  0.5768210000000  0.4765610000000 1.0
C      1  0.5171970000000  0.5040840000000  0.5750190000000 1.0
C      1  0.5144160000000  0.4763060000000  0.5673280000000 1.0
C      1  0.4598020000000  0.4851790000000  0.4653190000000 1.0
C      1  0.4474610000000  0.4479140000000  0.4964830000000 1.0
C      1  0.5519580000000  0.5475690000000  0.4275510000000 1.0
C      1  0.5202710000000  0.5160690000000  0.4949240000000 1.0
C      1  0.5394970000000  0.4475300000000  0.5122290000000 1.0
C      1  0.5043740000000  0.5844780000000  0.5014280000000 1.0
C      1  0.5005850000000  0.4858640000000  0.4262780000000 1.0
C      1  0.5762080000000  0.4388000000000  0.5424500000000 1.0
C      1  0.4856550000000  0.5557920000000  0.4642790000000 1.0
C      1  0.4967140000000  0.5355760000000  0.4403940000000 1.0
C      1  0.4669830000000  0.5234700000000  0.4529730000000 1.0
C      1  0.4518690000000  0.5504030000000  0.5108360000000 1.0
C      1  0.4283880000000  0.4918530000000  0.5158850000000 1.0
C      1  0.5061610000000  0.5469270000000  0.5364310000000 1.0
C      1  0.5056570000000  0.4958740000000  0.4776710000000 1.0
C      1  0.5895950000000  0.4909450000000  0.4456170000000 1.0
C      1  0.5170680000000  0.5389400000000  0.5619770000000 1.0
C      1  0.4515960000000  0.5043530000000  0.5274930000000 1.0
C      1  0.4819180000000  0.5075720000000  0.4295140000000 1.0
C      1  0.5415180000000  0.5336280000000  0.4828610000000 1.0
C      1  0.5258570000000  0.5269680000000  0.4349700000000 1.0
C      1  0.4592640000000  0.5410980000000  0.4787990000000 1.0
C      1  0.5516770000000  0.4494920000000  0.5375080000000 1.0
C      1  0.4933470000000  0.4250300000000  0.4637670000000 1.0
C      1  0.4158390000000  0.5109210000000  0.4984880000000 1.0
C      1  0.5371780000000  0.4630890000000  0.5574360000000 1.0
C      1  0.4506710000000  0.5778020000000  0.5156060000000 1.0
C      1  0.4580010000000  0.4602710000000  0.5595440000000 1.0
C      1  0.4957540000000  0.4365800000000  0.4897440000000 1.0
C      1  0.5228850000000  0.4734680000000  0.4727230000000 1.0
C      1  0.5121820000000  0.4722920000000  0.5276030000000 1.0
C      1  0.4899120000000  0.4650870000000  0.5609450000000 1.0
C      1  0.4854930000000  0.5298830000000  0.6083340000000 1.0
C      1  0.4982240000000  0.4353600000000  0.4386030000000 1.0
C      1  0.4876560000000  0.4603230000000  0.4299870000000 1.0
C      1  0.4778660000000  0.4974060000000  0.4831140000000 1.0
C      1  0.4475390000000  0.4558330000000  0.4691230000000 1.0
C      1  0.4610660000000  0.4643110000000  0.4407110000000 1.0
C      1  0.4997220000000  0.5230190000000  0.5194870000000 1.0
C      1  0.4937920000000  0.5269510000000  0.5823030000000 1.0
C      1  0.5699470000000  0.5022290000000  0.5169400000000 1.0
C      1  0.5274000000000  0.4960480000000  0.4320880000000 1.0
C      1  0.5426780000000  0.5185780000000  0.5607060000000 1.0
C      1  0.5465730000000  0.5395020000000  0.4575310000000 1.0
C      1  0.4582240000000  0.5328100000000  0.5360040000000 1.0
C      1  0.4297530000000  0.5332100000000  0.4918560000000 1.0
C      1  0.5206460000000  0.4518200000000  0.4919860000000 1.0
C      1  0.5687350000000  0.4886880000000  0.4630560000000 1.0
C      1  0.4742890000000  0.5084170000000  0.5088530000000 1.0
C      1  0.5722770000000  0.4947220000000  0.4907260000000 1.0
C      1  0.4294160000000  0.4635450000000  0.5124680000000 1.0
C      1  0.5422480000000  0.4822300000000  0.4530270000000 1.0
C      1  0.5492560000000  0.5070150000000  0.5356490000000 1.0
C      1  0.4736820000000  0.4423150000000  0.5079670000000 1.0
C      1  0.5064030000000  0.5714820000000  0.5250570000000 1.0
C      1  0.4765670000000  0.4512830000000  0.5343190000000 1.0
C      1  0.5231390000000  0.4999720000000  0.5230010000000 1.0
C      1  0.4730720000000  0.5350010000000  0.5584700000000 1.0
END
