TITL C-2778436-5916-1148 0.00120046080387816 125000 -377.62597469169 0 0 65 (C1) n - 1
REM
REM in /home/nfs/bkarasulu/CARBON/AIRSS/Generating-Clusters/REBO/Only-C1/SD-CG/HFTN-CG
REM
REM
REM
REM
REM
REM ./C.cell (11c1c37f851c82e70ff6c80c92926a4b)
REM
REM compiler GCC version 9.2.1 20190827 (Red Hat 9.2.1-1)
REM options -cpp -mtune=generic -march=x86-64 -g -O0 -fpre-include=/usr/include/finclude/math-vector-fortran.h
REM seed -190325670 327851320 -917291006 1602258926 -1839036878 1004701453 852968755 -382415705 35510231 -222412530 -731638912 2145453366 -603157930 -93710241 495392370 -1608412376 -1809364037 -284618928 3527062 2140818120 213165152 -938697775 -1511006954 -1730922527 451530782 46713434 -307261820 913957956 715802148 1165690484 408521485 -634833243 1438256865
REM
CELL 1.54180   50.00000   50.00000   50.00000   90.00000   90.00000   90.00000
LATT -1
SFAC C  
C      1  0.5390910000000  0.4448960000000  0.5524120000000 1.0
C      1  0.5113400000000  0.4566090000000  0.4966770000000 1.0
C      1  0.4644020000000  0.5232230000000  0.4873980000000 1.0
C      1  0.4838390000000  0.5376470000000  0.5192040000000 1.0
C      1  0.4394090000000  0.4945230000000  0.5362400000000 1.0
C      1  0.5122570000000  0.5037560000000  0.5675840000000 1.0
C      1  0.5415900000000  0.5009260000000  0.5016150000000 1.0
C      1  0.5683230000000  0.5279220000000  0.4668260000000 1.0
C      1  0.4262780000000  0.5186670000000  0.5176120000000 1.0
C      1  0.4672820000000  0.4912160000000  0.4930790000000 1.0
C      1  0.5867890000000  0.5165770000000  0.5123410000000 1.0
C      1  0.4801970000000  0.5730270000000  0.4862450000000 1.0
C      1  0.4692110000000  0.4833890000000  0.4539930000000 1.0
C      1  0.4975890000000  0.4540000000000  0.4330100000000 1.0
C      1  0.4335780000000  0.4944770000000  0.4968590000000 1.0
C      1  0.4735130000000  0.5346010000000  0.5534000000000 1.0
C      1  0.5076260000000  0.5699970000000  0.5262260000000 1.0
C      1  0.5680560000000  0.4587730000000  0.4989610000000 1.0
C      1  0.4951280000000  0.5044980000000  0.4197150000000 1.0
C      1  0.4807250000000  0.4659280000000  0.5420190000000 1.0
C      1  0.4733950000000  0.4317240000000  0.4828480000000 1.0
C      1  0.4961690000000  0.5188070000000  0.4941520000000 1.0
C      1  0.4468700000000  0.4434620000000  0.4832370000000 1.0
C      1  0.4321070000000  0.5443990000000  0.5225860000000 1.0
C      1  0.4813740000000  0.5773480000000  0.5154330000000 1.0
C      1  0.5661790000000  0.4653880000000  0.4712730000000 1.0
C      1  0.5085220000000  0.5695480000000  0.4775150000000 1.0
C      1  0.5031600000000  0.5330110000000  0.5621970000000 1.0
C      1  0.4943310000000  0.5080570000000  0.5322130000000 1.0
C      1  0.4871940000000  0.4395410000000  0.5341610000000 1.0
C      1  0.5042660000000  0.4880230000000  0.5071060000000 1.0
C      1  0.4889170000000  0.4373240000000  0.4583990000000 1.0
C      1  0.4661980000000  0.5040120000000  0.5521200000000 1.0
C      1  0.4427060000000  0.5316810000000  0.4625780000000 1.0
C      1  0.5564090000000  0.5154490000000  0.5488630000000 1.0
C      1  0.4441480000000  0.4656600000000  0.4660390000000 1.0
C      1  0.5831620000000  0.5108870000000  0.5367870000000 1.0
C      1  0.5522140000000  0.4750150000000  0.5157640000000 1.0
C      1  0.4915110000000  0.4369190000000  0.5062820000000 1.0
C      1  0.5267840000000  0.4943040000000  0.4748940000000 1.0
C      1  0.5826100000000  0.4376940000000  0.5080050000000 1.0
C      1  0.5130380000000  0.5506670000000  0.4567490000000 1.0
C      1  0.5252430000000  0.5665970000000  0.5016610000000 1.0
C      1  0.4939920000000  0.4845400000000  0.4742440000000 1.0
C      1  0.5120900000000  0.5211940000000  0.4677580000000 1.0
C      1  0.4567470000000  0.5522930000000  0.5313570000000 1.0
C      1  0.5436390000000  0.5418070000000  0.5378970000000 1.0
C      1  0.4260120000000  0.4696600000000  0.5170110000000 1.0
C      1  0.5277280000000  0.4602210000000  0.4392910000000 1.0
C      1  0.5428170000000  0.4700080000000  0.5426730000000 1.0
C      1  0.5175350000000  0.5531360000000  0.5481070000000 1.0
C      1  0.4410210000000  0.4996200000000  0.4644360000000 1.0
C      1  0.4595890000000  0.4721430000000  0.4060230000000 1.0
C      1  0.4791560000000  0.4780620000000  0.4252160000000 1.0
C      1  0.5273360000000  0.5141840000000  0.5265450000000 1.0
C      1  0.5624290000000  0.5248260000000  0.4940240000000 1.0
C      1  0.5047420000000  0.5243340000000  0.4323060000000 1.0
C      1  0.4623230000000  0.5540900000000  0.4755070000000 1.0
C      1  0.5380720000000  0.4937490000000  0.5589240000000 1.0
C      1  0.5154630000000  0.4513350000000  0.4683640000000 1.0
C      1  0.5441900000000  0.4769480000000  0.4577010000000 1.0
C      1  0.4897390000000  0.4848860000000  0.5642140000000 1.0
C      1  0.4644260000000  0.4787710000000  0.5217360000000 1.0
C      1  0.4310040000000  0.4450340000000  0.5069090000000 1.0
C      1  0.5472230000000  0.5489890000000  0.5074820000000 1.0
END
