TITL C-2778430-5657-436 -0.00542075137463338 125000 -908.322690858784 0 0 155 (C1) n - 1
REM
REM in /home/nfs/bkarasulu/CARBON/AIRSS/Generating-Clusters/REBO/Only-C1/SD-CG/HFTN-CG
REM
REM
REM
REM
REM
REM ./C.cell (11c1c37f851c82e70ff6c80c92926a4b)
REM
REM compiler GCC version 9.2.1 20190827 (Red Hat 9.2.1-1)
REM options -cpp -mtune=generic -march=x86-64 -g -O0 -fpre-include=/usr/include/finclude/math-vector-fortran.h
REM seed 1628463892 -1751192533 210956468 -875639242 920367892 614539625 -744237752 194691638 1595569500 506235481 1502014603 410008809 122267479 -484661076 -388173448 804293415 -1413022968 -465612153 -1523833509 1033938166 1249858338 -62663777 -345662897 -1404162213 -1735171495 985451579 1494775836 1563914744 -560344407 1904464707 -1099503838 -1705974240 -1486954363
REM
CELL 1.54180   50.00000   50.00000   50.00000   90.00000   90.00000   90.00000
LATT -1
SFAC C  
C      1  0.4667070000000  0.5648550000000  0.4457580000000 1.0
C      1  0.4267660000000  0.4481980000000  0.5437250000000 1.0
C      1  0.4344470000000  0.5957150000000  0.4830400000000 1.0
C      1  0.5789350000000  0.5031780000000  0.5632030000000 1.0
C      1  0.4300060000000  0.5368020000000  0.4262550000000 1.0
C      1  0.5046620000000  0.4202150000000  0.4570290000000 1.0
C      1  0.5541060000000  0.4966570000000  0.4476040000000 1.0
C      1  0.5466660000000  0.5396870000000  0.4184710000000 1.0
C      1  0.5287110000000  0.4773790000000  0.5723890000000 1.0
C      1  0.4498980000000  0.4609600000000  0.5728480000000 1.0
C      1  0.5321470000000  0.4471140000000  0.5626770000000 1.0
C      1  0.5875840000000  0.4321010000000  0.4949600000000 1.0
C      1  0.5149810000000  0.4980270000000  0.4407230000000 1.0
C      1  0.4831280000000  0.4990210000000  0.3864530000000 1.0
C      1  0.5293690000000  0.4716810000000  0.4112850000000 1.0
C      1  0.4078050000000  0.4430810000000  0.4733560000000 1.0
C      1  0.5351320000000  0.5860790000000  0.5276550000000 1.0
C      1  0.4339240000000  0.5226120000000  0.4826490000000 1.0
C      1  0.4773740000000  0.3951110000000  0.4976000000000 1.0
C      1  0.5521950000000  0.4941170000000  0.4973840000000 1.0
C      1  0.5884420000000  0.5420020000000  0.4668730000000 1.0
C      1  0.5534670000000  0.5240810000000  0.4605840000000 1.0
C      1  0.4571160000000  0.5551220000000  0.5460240000000 1.0
C      1  0.5927400000000  0.4871500000000  0.4459900000000 1.0
C      1  0.5359340000000  0.4482360000000  0.4298300000000 1.0
C      1  0.5784370000000  0.5181250000000  0.5150360000000 1.0
C      1  0.4773960000000  0.5160100000000  0.6034080000000 1.0
C      1  0.4027750000000  0.4983600000000  0.4886160000000 1.0
C      1  0.5269590000000  0.4616050000000  0.4808780000000 1.0
C      1  0.4032810000000  0.5244690000000  0.4671640000000 1.0
C      1  0.5291870000000  0.5735690000000  0.4901980000000 1.0
C      1  0.5298600000000  0.4936170000000  0.4712930000000 1.0
C      1  0.5130600000000  0.4971400000000  0.5073330000000 1.0
C      1  0.4607810000000  0.4765040000000  0.4808580000000 1.0
C      1  0.4274320000000  0.4892020000000  0.4338720000000 1.0
C      1  0.4833190000000  0.4896920000000  0.4366570000000 1.0
C      1  0.4403090000000  0.5925770000000  0.4562490000000 1.0
C      1  0.4938770000000  0.6087910000000  0.4581930000000 1.0
C      1  0.4516320000000  0.5432700000000  0.4681250000000 1.0
C      1  0.4443380000000  0.4699590000000  0.5274630000000 1.0
C      1  0.4313100000000  0.5166050000000  0.5135300000000 1.0
C      1  0.5403980000000  0.4723030000000  0.6036090000000 1.0
C      1  0.4826880000000  0.5316100000000  0.4664970000000 1.0
C      1  0.4475440000000  0.4656510000000  0.4280320000000 1.0
C      1  0.5011920000000  0.5496690000000  0.5586450000000 1.0
C      1  0.4267510000000  0.4849680000000  0.5095500000000 1.0
C      1  0.5581130000000  0.4140320000000  0.4559620000000 1.0
C      1  0.4527370000000  0.4066720000000  0.4859860000000 1.0
C      1  0.5375280000000  0.5546960000000  0.5173440000000 1.0
C      1  0.5011890000000  0.4356870000000  0.5706290000000 1.0
C      1  0.5998540000000  0.4812700000000  0.5527880000000 1.0
C      1  0.4219330000000  0.5642830000000  0.5042890000000 1.0
C      1  0.5006520000000  0.5697270000000  0.4625770000000 1.0
C      1  0.5500640000000  0.4528320000000  0.4597960000000 1.0
C      1  0.4812750000000  0.4481110000000  0.4998340000000 1.0
C      1  0.5033220000000  0.5850350000000  0.5404840000000 1.0
C      1  0.4487790000000  0.4462200000000  0.4891580000000 1.0
C      1  0.5872540000000  0.5205660000000  0.4396360000000 1.0
C      1  0.4081400000000  0.5530470000000  0.4835220000000 1.0
C      1  0.4943140000000  0.4884900000000  0.5974910000000 1.0
C      1  0.5018630000000  0.5897180000000  0.4970230000000 1.0
C      1  0.4116780000000  0.5302370000000  0.5372310000000 1.0
C      1  0.5187410000000  0.4946850000000  0.5500100000000 1.0
C      1  0.5054860000000  0.5492740000000  0.4944530000000 1.0
C      1  0.4661740000000  0.4447130000000  0.5284720000000 1.0
C      1  0.4800750000000  0.5589860000000  0.5790560000000 1.0
C      1  0.4762940000000  0.5502220000000  0.4188000000000 1.0
C      1  0.5322050000000  0.4214920000000  0.4425930000000 1.0
C      1  0.5133920000000  0.4162630000000  0.5450790000000 1.0
C      1  0.5233730000000  0.5941840000000  0.4637560000000 1.0
C      1  0.5694170000000  0.5333330000000  0.5506710000000 1.0
C      1  0.5671580000000  0.4162100000000  0.5105910000000 1.0
C      1  0.4089910000000  0.4650920000000  0.4882240000000 1.0
C      1  0.4656630000000  0.5365110000000  0.5895640000000 1.0
C      1  0.4141890000000  0.5166330000000  0.4374330000000 1.0
C      1  0.5187720000000  0.5293810000000  0.4280850000000 1.0
C      1  0.4999590000000  0.5191110000000  0.5577490000000 1.0
C      1  0.4727570000000  0.5248060000000  0.4959710000000 1.0
C      1  0.4794510000000  0.4743020000000  0.5747210000000 1.0
C      1  0.5290010000000  0.4216120000000  0.5087410000000 1.0
C      1  0.5400680000000  0.5199140000000  0.5855000000000 1.0
C      1  0.6072660000000  0.4785720000000  0.5067970000000 1.0
C      1  0.5148820000000  0.4481670000000  0.5346780000000 1.0
C      1  0.5864940000000  0.4539560000000  0.5423130000000 1.0
C      1  0.5666700000000  0.5465430000000  0.5196120000000 1.0
C      1  0.5629040000000  0.4396670000000  0.5582680000000 1.0
C      1  0.5014770000000  0.3958450000000  0.4744940000000 1.0
C      1  0.4256840000000  0.4770180000000  0.5619440000000 1.0
C      1  0.5864800000000  0.4960850000000  0.4940760000000 1.0
C      1  0.4518530000000  0.5762380000000  0.5015720000000 1.0
C      1  0.5950780000000  0.5088490000000  0.4698010000000 1.0
C      1  0.4399810000000  0.5292810000000  0.5709820000000 1.0
C      1  0.5512300000000  0.4921920000000  0.4179960000000 1.0
C      1  0.4722590000000  0.5788020000000  0.5273320000000 1.0
C      1  0.4749120000000  0.5097210000000  0.5401750000000 1.0
C      1  0.4724550000000  0.4515840000000  0.4210020000000 1.0
C      1  0.4785180000000  0.5688620000000  0.4884140000000 1.0
C      1  0.5091880000000  0.5440140000000  0.5278620000000 1.0
C      1  0.5467560000000  0.4195670000000  0.5377360000000 1.0
C      1  0.4798950000000  0.5855500000000  0.5653700000000 1.0
C      1  0.4502450000000  0.4187320000000  0.4601100000000 1.0
C      1  0.4525300000000  0.5938580000000  0.5512710000000 1.0
C      1  0.4400500000000  0.4626470000000  0.4603750000000 1.0
C      1  0.4333010000000  0.4225040000000  0.5327850000000 1.0
C      1  0.5470840000000  0.5417020000000  0.5673410000000 1.0
C      1  0.5047790000000  0.4815080000000  0.3900120000000 1.0
C      1  0.4937620000000  0.5194930000000  0.5182980000000 1.0
C      1  0.4651750000000  0.4967420000000  0.5021730000000 1.0
C      1  0.4705740000000  0.5972490000000  0.4507860000000 1.0
C      1  0.5591350000000  0.5243240000000  0.4872670000000 1.0
C      1  0.5620580000000  0.4648890000000  0.5224730000000 1.0
C      1  0.5783960000000  0.5591630000000  0.4901650000000 1.0
C      1  0.4872750000000  0.4002500000000  0.5300320000000 1.0
C      1  0.5289410000000  0.5660710000000  0.5546750000000 1.0
C      1  0.4750770000000  0.4338110000000  0.4480120000000 1.0
C      1  0.4543650000000  0.5284830000000  0.4137500000000 1.0
C      1  0.5657450000000  0.5195680000000  0.4173080000000 1.0
C      1  0.5492480000000  0.4286070000000  0.4841730000000 1.0
C      1  0.4344900000000  0.4216590000000  0.5045090000000 1.0
C      1  0.5104210000000  0.5195710000000  0.4821120000000 1.0
C      1  0.4139380000000  0.5594190000000  0.5316890000000 1.0
C      1  0.4276640000000  0.4931190000000  0.4666620000000 1.0
C      1  0.4207930000000  0.5052150000000  0.5581420000000 1.0
C      1  0.5094410000000  0.4017630000000  0.5055620000000 1.0
C      1  0.5982380000000  0.4519780000000  0.5114120000000 1.0
C      1  0.5009210000000  0.4482220000000  0.4744670000000 1.0
C      1  0.4884330000000  0.4781810000000  0.5094630000000 1.0
C      1  0.5818610000000  0.4617730000000  0.4526740000000 1.0
C      1  0.5104640000000  0.4585830000000  0.5942140000000 1.0
C      1  0.4992620000000  0.6137260000000  0.5071190000000 1.0
C      1  0.5839620000000  0.4326790000000  0.4652860000000 1.0
C      1  0.5621380000000  0.5838720000000  0.5065520000000 1.0
C      1  0.4623870000000  0.4135550000000  0.5424690000000 1.0
C      1  0.5040690000000  0.5588890000000  0.4328030000000 1.0
C      1  0.4668970000000  0.5028720000000  0.4098760000000 1.0
C      1  0.4250480000000  0.5783240000000  0.5513350000000 1.0
C      1  0.4861990000000  0.5237380000000  0.4376980000000 1.0
C      1  0.4795830000000  0.4669840000000  0.4569830000000 1.0
C      1  0.4985470000000  0.4700230000000  0.5472860000000 1.0
C      1  0.5500820000000  0.5674770000000  0.4233240000000 1.0
C      1  0.5353430000000  0.4550830000000  0.5106490000000 1.0
C      1  0.4718640000000  0.4376500000000  0.5615570000000 1.0
C      1  0.4509480000000  0.5254500000000  0.5389450000000 1.0
C      1  0.4337790000000  0.5615500000000  0.4453430000000 1.0
C      1  0.4228410000000  0.4269020000000  0.4565080000000 1.0
C      1  0.5287100000000  0.5790860000000  0.4359100000000 1.0
C      1  0.5608480000000  0.4950190000000  0.5876330000000 1.0
C      1  0.4969850000000  0.4590210000000  0.4099860000000 1.0
C      1  0.4684450000000  0.4813690000000  0.5438970000000 1.0
C      1  0.6167460000000  0.4894670000000  0.5318340000000 1.0
C      1  0.5128080000000  0.5116130000000  0.5856450000000 1.0
C      1  0.5369450000000  0.4953570000000  0.5263570000000 1.0
C      1  0.5638380000000  0.4612040000000  0.5825780000000 1.0
C      1  0.5680190000000  0.4964450000000  0.5339500000000 1.0
C      1  0.4406910000000  0.5628230000000  0.5733480000000 1.0
END
