TITL C-2778426-5645-1438 -0.099755934801115 125000 -342.460409206725 0 0 59 (C1) n - 1
REM
REM in /home/nfs/bkarasulu/CARBON/AIRSS/Generating-Clusters/REBO/Only-C1/SD-CG/HFTN-CG
REM
REM
REM
REM
REM
REM ./C.cell (11c1c37f851c82e70ff6c80c92926a4b)
REM
REM compiler GCC version 9.2.1 20190827 (Red Hat 9.2.1-1)
REM options -cpp -mtune=generic -march=x86-64 -g -O0 -fpre-include=/usr/include/finclude/math-vector-fortran.h
REM seed 943013138 -1819146003 950121271 -2119972804 998954387 -771590156 1586027753 -127278249 576120136 -1257182535 -1762989197 2105387459 -1760089926 -1733688547 -664590492 1382292606 417557084 1687890869 1393259553 585144425 1673181224 1382162538 1490638291 -188627021 -233404981 1762493647 -1463371691 -1327466598 1542567825 -1481226582 1256628523 1072126129 539796508
REM
CELL 1.54180   50.00000   50.00000   50.00000   90.00000   90.00000   90.00000
LATT -1
SFAC C  
C      1  0.5125730000000  0.4735590000000  0.5272570000000 1.0
C      1  0.5134590000000  0.5348700000000  0.4832160000000 1.0
C      1  0.4616330000000  0.4703990000000  0.4821480000000 1.0
C      1  0.4809250000000  0.5342050000000  0.4448710000000 1.0
C      1  0.5117310000000  0.4798230000000  0.5563020000000 1.0
C      1  0.4309290000000  0.5319850000000  0.4878530000000 1.0
C      1  0.5047430000000  0.5016420000000  0.5719190000000 1.0
C      1  0.5340360000000  0.5113200000000  0.4302070000000 1.0
C      1  0.5339350000000  0.4391370000000  0.5514860000000 1.0
C      1  0.4926840000000  0.4766740000000  0.4163630000000 1.0
C      1  0.5284380000000  0.4323050000000  0.4778310000000 1.0
C      1  0.5398150000000  0.4328120000000  0.5038470000000 1.0
C      1  0.4766120000000  0.5458630000000  0.5149900000000 1.0
C      1  0.4626910000000  0.4695350000000  0.5575750000000 1.0
C      1  0.4978330000000  0.5305420000000  0.5452570000000 1.0
C      1  0.5646590000000  0.5118430000000  0.5125700000000 1.0
C      1  0.4584120000000  0.4697910000000  0.5292300000000 1.0
C      1  0.5624300000000  0.4184430000000  0.5090490000000 1.0
C      1  0.4640440000000  0.4554140000000  0.4451600000000 1.0
C      1  0.4899460000000  0.4419990000000  0.4492600000000 1.0
C      1  0.4891330000000  0.5632510000000  0.6196450000000 1.0
C      1  0.5279930000000  0.4484380000000  0.5243850000000 1.0
C      1  0.4346090000000  0.5046230000000  0.5015430000000 1.0
C      1  0.4836160000000  0.4328440000000  0.4986230000000 1.0
C      1  0.5385990000000  0.5781790000000  0.4988880000000 1.0
C      1  0.4690630000000  0.5045140000000  0.4518840000000 1.0
C      1  0.4560710000000  0.5391740000000  0.4667650000000 1.0
C      1  0.4661410000000  0.4543320000000  0.5056680000000 1.0
C      1  0.5399640000000  0.5506170000000  0.4942850000000 1.0
C      1  0.4683880000000  0.4813980000000  0.4317430000000 1.0
C      1  0.4942800000000  0.5429370000000  0.6039080000000 1.0
C      1  0.5614480000000  0.4940000000000  0.4919690000000 1.0
C      1  0.4366940000000  0.4834210000000  0.4797740000000 1.0
C      1  0.4804700000000  0.5131320000000  0.5228090000000 1.0
C      1  0.5241600000000  0.4574310000000  0.5701690000000 1.0
C      1  0.4382170000000  0.5105290000000  0.4622050000000 1.0
C      1  0.5147660000000  0.5053590000000  0.4827530000000 1.0
C      1  0.4855120000000  0.4904250000000  0.4767130000000 1.0
C      1  0.4654880000000  0.4943610000000  0.5697700000000 1.0
C      1  0.4995100000000  0.5222940000000  0.5879170000000 1.0
C      1  0.4813070000000  0.5455340000000  0.4831760000000 1.0
C      1  0.5083590000000  0.5601320000000  0.5346040000000 1.0
C      1  0.4535900000000  0.4982790000000  0.5221940000000 1.0
C      1  0.5042100000000  0.5692380000000  0.4742770000000 1.0
C      1  0.5296370000000  0.5363930000000  0.4434150000000 1.0
C      1  0.5042370000000  0.5493530000000  0.4473270000000 1.0
C      1  0.5403540000000  0.4929300000000  0.4734540000000 1.0
C      1  0.5444050000000  0.4399520000000  0.4555610000000 1.0
C      1  0.5301770000000  0.5372010000000  0.5390420000000 1.0
C      1  0.4989280000000  0.4929930000000  0.5081550000000 1.0
C      1  0.4999770000000  0.4327100000000  0.4747710000000 1.0
C      1  0.5485810000000  0.5341520000000  0.5184080000000 1.0
C      1  0.4702180000000  0.5204420000000  0.5607520000000 1.0
C      1  0.4594360000000  0.5409140000000  0.5423140000000 1.0
C      1  0.5080770000000  0.4555300000000  0.4292720000000 1.0
C      1  0.5349080000000  0.4603100000000  0.4380770000000 1.0
C      1  0.4993170000000  0.5704580000000  0.5078680000000 1.0
C      1  0.5405790000000  0.4877230000000  0.4451430000000 1.0
C      1  0.5480520000000  0.5423370000000  0.4643810000000 1.0
END
