TITL C-2778428-5639-283 0.00121814417610632 125000 -1043.0978963549 0 0 179 (C1) n - 1
REM
REM in /home/nfs/bkarasulu/CARBON/AIRSS/Generating-Clusters/REBO/Only-C1/SD-CG/HFTN-CG
REM
REM
REM
REM
REM
REM ./C.cell (11c1c37f851c82e70ff6c80c92926a4b)
REM
REM compiler GCC version 9.2.1 20190827 (Red Hat 9.2.1-1)
REM options -cpp -mtune=generic -march=x86-64 -g -O0 -fpre-include=/usr/include/finclude/math-vector-fortran.h
REM seed -279845069 975701960 -2119198394 -1543402423 1151823915 -544405202 -375409841 1723754382 -1815688505 -1785979944 -97544863 1093078051 -628537392 1284025333 560922084 -1389253725 771045757 284153358 -1501544995 1879506733 1264999244 -2087442110 -18677836 755425414 826111737 -772565423 -163767508 -1555946212 2012904895 1606285747 1340650969 -466700650 -1696580698
REM
CELL 1.54180   50.00000   50.00000   50.00000   90.00000   90.00000   90.00000
LATT -1
SFAC C  
C      1  0.4278540000000  0.4431970000000  0.4611020000000 1.0
C      1  0.4347690000000  0.4499410000000  0.4314850000000 1.0
C      1  0.5819370000000  0.5624720000000  0.5329640000000 1.0
C      1  0.4790820000000  0.4581900000000  0.4636810000000 1.0
C      1  0.4022610000000  0.4863120000000  0.4575380000000 1.0
C      1  0.3991520000000  0.5314420000000  0.4906100000000 1.0
C      1  0.5079090000000  0.5023370000000  0.4761290000000 1.0
C      1  0.4014340000000  0.5007220000000  0.5007500000000 1.0
C      1  0.4605860000000  0.5455360000000  0.4173220000000 1.0
C      1  0.4979840000000  0.4028030000000  0.5317310000000 1.0
C      1  0.5963900000000  0.4471060000000  0.4942730000000 1.0
C      1  0.6163700000000  0.5154860000000  0.5168360000000 1.0
C      1  0.5055000000000  0.5418650000000  0.4808170000000 1.0
C      1  0.5488590000000  0.5085850000000  0.4759560000000 1.0
C      1  0.5205360000000  0.4761380000000  0.4034000000000 1.0
C      1  0.5274020000000  0.5400510000000  0.5242680000000 1.0
C      1  0.4894870000000  0.5288230000000  0.5173050000000 1.0
C      1  0.5714390000000  0.4731450000000  0.4221320000000 1.0
C      1  0.5895030000000  0.4338180000000  0.5190710000000 1.0
C      1  0.5561080000000  0.4049670000000  0.4984630000000 1.0
C      1  0.4544450000000  0.4942690000000  0.6026070000000 1.0
C      1  0.4812980000000  0.5674930000000  0.4199910000000 1.0
C      1  0.6099840000000  0.4721540000000  0.4942800000000 1.0
C      1  0.6120370000000  0.5163380000000  0.4188020000000 1.0
C      1  0.5605210000000  0.5810510000000  0.5306080000000 1.0
C      1  0.4031700000000  0.4625760000000  0.4722150000000 1.0
C      1  0.4193580000000  0.4493300000000  0.5700060000000 1.0
C      1  0.4579970000000  0.4890330000000  0.4498560000000 1.0
C      1  0.5880810000000  0.5230430000000  0.5327580000000 1.0
C      1  0.5269920000000  0.5227030000000  0.4958510000000 1.0
C      1  0.5817950000000  0.4411560000000  0.4710150000000 1.0
C      1  0.4849440000000  0.6095810000000  0.4972240000000 1.0
C      1  0.5878240000000  0.5330450000000  0.4601410000000 1.0
C      1  0.5118450000000  0.4592760000000  0.4286060000000 1.0
C      1  0.4685700000000  0.4931640000000  0.4116670000000 1.0
C      1  0.5155580000000  0.5533090000000  0.6342040000000 1.0
C      1  0.4538870000000  0.4247790000000  0.4727690000000 1.0
C      1  0.6356770000000  0.4996000000000  0.5342390000000 1.0
C      1  0.5341700000000  0.5691330000000  0.5381530000000 1.0
C      1  0.4991100000000  0.5012080000000  0.4010020000000 1.0
C      1  0.4712050000000  0.4657510000000  0.4316790000000 1.0
C      1  0.4416030000000  0.4867380000000  0.5517110000000 1.0
C      1  0.5067750000000  0.5331140000000  0.4484770000000 1.0
C      1  0.4851650000000  0.5622620000000  0.5721000000000 1.0
C      1  0.5191100000000  0.4764410000000  0.5335840000000 1.0
C      1  0.5094250000000  0.6095180000000  0.5152020000000 1.0
C      1  0.5651150000000  0.5718980000000  0.4545760000000 1.0
C      1  0.5340250000000  0.4071410000000  0.4453760000000 1.0
C      1  0.4752060000000  0.4191700000000  0.4990160000000 1.0
C      1  0.5047910000000  0.4282560000000  0.5017390000000 1.0
C      1  0.4767300000000  0.4552650000000  0.4019090000000 1.0
C      1  0.4703090000000  0.4700470000000  0.5547550000000 1.0
C      1  0.5054990000000  0.4792900000000  0.5920720000000 1.0
C      1  0.4574170000000  0.5663840000000  0.5638690000000 1.0
C      1  0.5280900000000  0.5786800000000  0.4882760000000 1.0
C      1  0.4790380000000  0.4861860000000  0.6123150000000 1.0
C      1  0.4247120000000  0.5125900000000  0.5661950000000 1.0
C      1  0.5028220000000  0.4311770000000  0.4202760000000 1.0
C      1  0.4725410000000  0.4492770000000  0.5804490000000 1.0
C      1  0.5095250000000  0.4444810000000  0.4656190000000 1.0
C      1  0.4214460000000  0.4347000000000  0.4936420000000 1.0
C      1  0.5864460000000  0.5516790000000  0.5049000000000 1.0
C      1  0.4470550000000  0.5022830000000  0.5174640000000 1.0
C      1  0.5299430000000  0.4724910000000  0.5046560000000 1.0
C      1  0.5371100000000  0.4298860000000  0.4905390000000 1.0
C      1  0.5348810000000  0.5682960000000  0.5701770000000 1.0
C      1  0.5446710000000  0.5016300000000  0.5754740000000 1.0
C      1  0.4373110000000  0.4805790000000  0.4168400000000 1.0
C      1  0.4614810000000  0.3940050000000  0.5190860000000 1.0
C      1  0.4519030000000  0.4308600000000  0.4212250000000 1.0
C      1  0.4916920000000  0.3839380000000  0.5075260000000 1.0
C      1  0.4416550000000  0.4104020000000  0.5002400000000 1.0
C      1  0.4141770000000  0.5696120000000  0.4669710000000 1.0
C      1  0.5355330000000  0.6147130000000  0.5032850000000 1.0
C      1  0.5312630000000  0.4492970000000  0.5456320000000 1.0
C      1  0.4811740000000  0.5115200000000  0.4911170000000 1.0
C      1  0.4895270000000  0.4778730000000  0.5282640000000 1.0
C      1  0.4196520000000  0.5294020000000  0.4399000000000 1.0
C      1  0.4725200000000  0.5504930000000  0.4822400000000 1.0
C      1  0.5186060000000  0.5273170000000  0.4107470000000 1.0
C      1  0.4950040000000  0.3900530000000  0.4801170000000 1.0
C      1  0.5893310000000  0.4893290000000  0.5298710000000 1.0
C      1  0.5144980000000  0.5055820000000  0.4370030000000 1.0
C      1  0.4870860000000  0.4961630000000  0.5689990000000 1.0
C      1  0.3988970000000  0.5324770000000  0.5246360000000 1.0
C      1  0.4569410000000  0.6059210000000  0.4901610000000 1.0
C      1  0.4774050000000  0.4214250000000  0.4291090000000 1.0
C      1  0.5489310000000  0.5142610000000  0.4150320000000 1.0
C      1  0.5602830000000  0.4802260000000  0.6166880000000 1.0
C      1  0.5500790000000  0.4142130000000  0.5459230000000 1.0
C      1  0.5577830000000  0.4547500000000  0.5011480000000 1.0
C      1  0.5108360000000  0.4141660000000  0.4648000000000 1.0
C      1  0.5053180000000  0.4595540000000  0.4937640000000 1.0
C      1  0.4703220000000  0.5200690000000  0.4280880000000 1.0
C      1  0.4419750000000  0.4490850000000  0.5149180000000 1.0
C      1  0.4974190000000  0.4406590000000  0.5868910000000 1.0
C      1  0.5219980000000  0.4220860000000  0.5304140000000 1.0
C      1  0.4742500000000  0.5061280000000  0.5380470000000 1.0
C      1  0.6076260000000  0.5004400000000  0.4937370000000 1.0
C      1  0.4872830000000  0.5619780000000  0.5170790000000 1.0
C      1  0.5089660000000  0.5247440000000  0.5449200000000 1.0
C      1  0.3900290000000  0.5005810000000  0.5300410000000 1.0
C      1  0.5711930000000  0.4861750000000  0.5012560000000 1.0
C      1  0.3974110000000  0.4571890000000  0.5012970000000 1.0
C      1  0.5483840000000  0.4845470000000  0.4084700000000 1.0
C      1  0.5472170000000  0.5564460000000  0.5020270000000 1.0
C      1  0.4983570000000  0.4578570000000  0.3895050000000 1.0
C      1  0.4615320000000  0.4423620000000  0.5382830000000 1.0
C      1  0.4371590000000  0.5534670000000  0.4311040000000 1.0
C      1  0.5373170000000  0.5855050000000  0.4500060000000 1.0
C      1  0.5511080000000  0.4990920000000  0.5256530000000 1.0
C      1  0.6139940000000  0.4800130000000  0.5380930000000 1.0
C      1  0.4735810000000  0.5132770000000  0.4581980000000 1.0
C      1  0.4021100000000  0.5439160000000  0.4627630000000 1.0
C      1  0.4860040000000  0.5812770000000  0.4607080000000 1.0
C      1  0.4307630000000  0.5452010000000  0.5602590000000 1.0
C      1  0.5713850000000  0.4408980000000  0.5470920000000 1.0
C      1  0.5434450000000  0.5173320000000  0.4483480000000 1.0
C      1  0.4590380000000  0.5283950000000  0.5537530000000 1.0
C      1  0.4244440000000  0.4624620000000  0.5403460000000 1.0
C      1  0.4347140000000  0.4738370000000  0.5975300000000 1.0
C      1  0.4578020000000  0.5548260000000  0.5319470000000 1.0
C      1  0.5064160000000  0.5798510000000  0.5644330000000 1.0
C      1  0.5066010000000  0.5844350000000  0.5319790000000 1.0
C      1  0.4245380000000  0.5758620000000  0.5235180000000 1.0
C      1  0.4239050000000  0.5104750000000  0.4679010000000 1.0
C      1  0.4980940000000  0.5796970000000  0.4911800000000 1.0
C      1  0.4816300000000  0.4782530000000  0.4981690000000 1.0
C      1  0.5368060000000  0.6068550000000  0.4730030000000 1.0
C      1  0.5015130000000  0.4812720000000  0.4524300000000 1.0
C      1  0.5481990000000  0.4362530000000  0.5719130000000 1.0
C      1  0.5092570000000  0.4992630000000  0.6193960000000 1.0
C      1  0.5802150000000  0.5415990000000  0.5574490000000 1.0
C      1  0.4324630000000  0.5257020000000  0.4972160000000 1.0
C      1  0.4198860000000  0.5725320000000  0.4936660000000 1.0
C      1  0.5567100000000  0.5539150000000  0.5789320000000 1.0
C      1  0.5646250000000  0.4525650000000  0.4438700000000 1.0
C      1  0.5631440000000  0.5277550000000  0.5118250000000 1.0
C      1  0.4139970000000  0.5533620000000  0.5372050000000 1.0
C      1  0.5407650000000  0.4800860000000  0.4760200000000 1.0
C      1  0.5303290000000  0.5532460000000  0.4599540000000 1.0
C      1  0.5712670000000  0.5730590000000  0.4840950000000 1.0
C      1  0.3984790000000  0.4703550000000  0.5263690000000 1.0
C      1  0.4399480000000  0.6007450000000  0.5131610000000 1.0
C      1  0.5091590000000  0.5766650000000  0.4356720000000 1.0
C      1  0.4722740000000  0.4164630000000  0.5409040000000 1.0
C      1  0.5274040000000  0.4548170000000  0.5866510000000 1.0
C      1  0.5703220000000  0.4103210000000  0.5215380000000 1.0
C      1  0.4565330000000  0.5917000000000  0.4635910000000 1.0
C      1  0.4137460000000  0.4826060000000  0.5753720000000 1.0
C      1  0.4476430000000  0.5524100000000  0.5009950000000 1.0
C      1  0.5246040000000  0.4124950000000  0.4200520000000 1.0
C      1  0.4519180000000  0.5164440000000  0.5848300000000 1.0
C      1  0.5576140000000  0.4663890000000  0.5327230000000 1.0
C      1  0.5804690000000  0.5110110000000  0.4798720000000 1.0
C      1  0.5594300000000  0.5956080000000  0.5061970000000 1.0
C      1  0.4004470000000  0.4291580000000  0.5721720000000 1.0
C      1  0.5324850000000  0.5534940000000  0.4257470000000 1.0
C      1  0.5533520000000  0.4253350000000  0.4615660000000 1.0
C      1  0.5293540000000  0.5018640000000  0.5490050000000 1.0
C      1  0.4180810000000  0.5087690000000  0.4174480000000 1.0
C      1  0.4054550000000  0.4829450000000  0.4295170000000 1.0
C      1  0.4955140000000  0.5176660000000  0.5940190000000 1.0
C      1  0.5632990000000  0.5430910000000  0.4386710000000 1.0
C      1  0.5909640000000  0.4931450000000  0.4212420000000 1.0
C      1  0.4950330000000  0.5353300000000  0.5695060000000 1.0
C      1  0.4263910000000  0.4865910000000  0.4998330000000 1.0
C      1  0.5794710000000  0.5252750000000  0.4144950000000 1.0
C      1  0.4363730000000  0.5756090000000  0.4499300000000 1.0
C      1  0.4781990000000  0.4100190000000  0.4580120000000 1.0
C      1  0.5094170000000  0.5320250000000  0.6213650000000 1.0
C      1  0.5618560000000  0.5230160000000  0.5791290000000 1.0
C      1  0.4569650000000  0.4616390000000  0.4894430000000 1.0
C      1  0.4461160000000  0.4470290000000  0.5903060000000 1.0
C      1  0.4390500000000  0.4800840000000  0.4714010000000 1.0
C      1  0.4820670000000  0.5512550000000  0.4501450000000 1.0
C      1  0.6116920000000  0.5443380000000  0.4590200000000 1.0
C      1  0.5452560000000  0.4806140000000  0.5934600000000 1.0
C      1  0.5350630000000  0.4598640000000  0.4535180000000 1.0
END
