TITL C-2778431-5191-745 0.00162898181404075 125000 -1035.63349473779 0 0 176 (C1) n - 1
REM
REM in /home/nfs/bkarasulu/CARBON/AIRSS/Generating-Clusters/REBO/Only-C1/SD-CG/HFTN-CG
REM
REM
REM
REM
REM
REM ./C.cell (11c1c37f851c82e70ff6c80c92926a4b)
REM
REM compiler GCC version 9.2.1 20190827 (Red Hat 9.2.1-1)
REM options -cpp -mtune=generic -march=x86-64 -g -O0 -fpre-include=/usr/include/finclude/math-vector-fortran.h
REM seed -609026644 1987785762 1623591327 680436831 -1376716973 -1481054595 1025440516 -593247716 -1229126897 -574210278 -1328424751 -705056066 160943713 493605874 -309926019 -1058801705 1119481710 160998358 462841336 -2145048409 -1856885911 1017371804 -2129685418 585351396 -2011950469 -829750454 -1819735071 256050340 -548144300 -1529720381 -1827214332 -930831874 -565542833
REM
CELL 1.54180   50.00000   50.00000   50.00000   90.00000   90.00000   90.00000
LATT -1
SFAC C  
C      1  0.5647340000000  0.4253260000000  0.5370640000000 1.0
C      1  0.4459600000000  0.3925880000000  0.4930620000000 1.0
C      1  0.5736850000000  0.5736190000000  0.5046390000000 1.0
C      1  0.5334620000000  0.4889660000000  0.6059790000000 1.0
C      1  0.4339610000000  0.4313580000000  0.5547070000000 1.0
C      1  0.5878260000000  0.4400890000000  0.5345460000000 1.0
C      1  0.4790660000000  0.5927650000000  0.5594920000000 1.0
C      1  0.5067590000000  0.4493710000000  0.5836250000000 1.0
C      1  0.5607310000000  0.4632150000000  0.5166360000000 1.0
C      1  0.5781930000000  0.5128590000000  0.4524990000000 1.0
C      1  0.4715430000000  0.4893490000000  0.5542260000000 1.0
C      1  0.5026620000000  0.4619520000000  0.5346220000000 1.0
C      1  0.5593800000000  0.5161070000000  0.5418250000000 1.0
C      1  0.5796450000000  0.5247130000000  0.5749420000000 1.0
C      1  0.4953260000000  0.4756760000000  0.4407190000000 1.0
C      1  0.4049920000000  0.4934430000000  0.5434850000000 1.0
C      1  0.5221280000000  0.4887170000000  0.4254370000000 1.0
C      1  0.5595450000000  0.5033650000000  0.5795810000000 1.0
C      1  0.5210830000000  0.5978600000000  0.5133220000000 1.0
C      1  0.5616490000000  0.4509900000000  0.5782180000000 1.0
C      1  0.5162060000000  0.6105390000000  0.4815580000000 1.0
C      1  0.5022370000000  0.5501480000000  0.4896370000000 1.0
C      1  0.4520380000000  0.4947180000000  0.4523320000000 1.0
C      1  0.4697790000000  0.5293350000000  0.6058080000000 1.0
C      1  0.3864260000000  0.5263230000000  0.5115340000000 1.0
C      1  0.4992940000000  0.5130020000000  0.4675260000000 1.0
C      1  0.5519910000000  0.4618890000000  0.5487630000000 1.0
C      1  0.4271150000000  0.5314170000000  0.4484710000000 1.0
C      1  0.5299180000000  0.5291460000000  0.5522280000000 1.0
C      1  0.5113720000000  0.5516150000000  0.3990570000000 1.0
C      1  0.5296900000000  0.4501940000000  0.4535130000000 1.0
C      1  0.5803830000000  0.5568930000000  0.4775630000000 1.0
C      1  0.5630780000000  0.5642250000000  0.5358370000000 1.0
C      1  0.3868120000000  0.5104180000000  0.4889830000000 1.0
C      1  0.4485730000000  0.5106250000000  0.5928960000000 1.0
C      1  0.5706520000000  0.4849460000000  0.4425620000000 1.0
C      1  0.4642370000000  0.6153880000000  0.4934230000000 1.0
C      1  0.4272810000000  0.4980430000000  0.5688460000000 1.0
C      1  0.4421040000000  0.4587240000000  0.5267460000000 1.0
C      1  0.5457170000000  0.6133630000000  0.4726630000000 1.0
C      1  0.5660850000000  0.5299750000000  0.5155890000000 1.0
C      1  0.4286000000000  0.5195670000000  0.4987890000000 1.0
C      1  0.5616490000000  0.4644340000000  0.4886240000000 1.0
C      1  0.4877220000000  0.5906630000000  0.4218510000000 1.0
C      1  0.5275090000000  0.4436450000000  0.5402430000000 1.0
C      1  0.4721900000000  0.5889090000000  0.4490670000000 1.0
C      1  0.4741220000000  0.5884000000000  0.5283390000000 1.0
C      1  0.4733190000000  0.4476480000000  0.4122710000000 1.0
C      1  0.4142680000000  0.5166740000000  0.4711730000000 1.0
C      1  0.4968440000000  0.5435280000000  0.4582630000000 1.0
C      1  0.4717670000000  0.5548170000000  0.4476000000000 1.0
C      1  0.4252520000000  0.5925730000000  0.5325920000000 1.0
C      1  0.5029820000000  0.5612570000000  0.5546910000000 1.0
C      1  0.5040890000000  0.4936890000000  0.6118550000000 1.0
C      1  0.4250470000000  0.4674370000000  0.4266360000000 1.0
C      1  0.5637640000000  0.4771100000000  0.5976520000000 1.0
C      1  0.4885480000000  0.4749560000000  0.5971540000000 1.0
C      1  0.5421230000000  0.4177000000000  0.4855040000000 1.0
C      1  0.4199210000000  0.5730810000000  0.5549210000000 1.0
C      1  0.4443720000000  0.6077610000000  0.5099300000000 1.0
C      1  0.5911070000000  0.4626470000000  0.4796410000000 1.0
C      1  0.5215610000000  0.5629350000000  0.4557300000000 1.0
C      1  0.4250080000000  0.4064120000000  0.4754890000000 1.0
C      1  0.4318370000000  0.5532640000000  0.5340110000000 1.0
C      1  0.5538430000000  0.4247740000000  0.5634930000000 1.0
C      1  0.5425960000000  0.4912220000000  0.5524730000000 1.0
C      1  0.4721490000000  0.4883890000000  0.5056840000000 1.0
C      1  0.5053480000000  0.4750920000000  0.3821980000000 1.0
C      1  0.5481140000000  0.5901740000000  0.4940690000000 1.0
C      1  0.5636530000000  0.4022370000000  0.4771450000000 1.0
C      1  0.4844420000000  0.6009800000000  0.4739410000000 1.0
C      1  0.5214230000000  0.4212060000000  0.4253670000000 1.0
C      1  0.4146090000000  0.4316100000000  0.4882720000000 1.0
C      1  0.5307820000000  0.3991200000000  0.4392770000000 1.0
C      1  0.4538250000000  0.5063620000000  0.5402340000000 1.0
C      1  0.4844000000000  0.5332080000000  0.5580450000000 1.0
C      1  0.4405310000000  0.5796710000000  0.4456770000000 1.0
C      1  0.4479740000000  0.4054500000000  0.4557510000000 1.0
C      1  0.5425740000000  0.4276370000000  0.5149040000000 1.0
C      1  0.5222980000000  0.4268620000000  0.4667060000000 1.0
C      1  0.5204380000000  0.5873100000000  0.5673240000000 1.0
C      1  0.5308010000000  0.3851940000000  0.5211660000000 1.0
C      1  0.4597750000000  0.5197170000000  0.5010520000000 1.0
C      1  0.5172670000000  0.4550160000000  0.4248460000000 1.0
C      1  0.6088230000000  0.5207780000000  0.5593310000000 1.0
C      1  0.5546270000000  0.5313470000000  0.4092880000000 1.0
C      1  0.4978940000000  0.5214700000000  0.6134710000000 1.0
C      1  0.4835120000000  0.5471960000000  0.5865670000000 1.0
C      1  0.5931350000000  0.5477390000000  0.5154830000000 1.0
C      1  0.5459190000000  0.4742960000000  0.4626840000000 1.0
C      1  0.4619090000000  0.5672220000000  0.5598820000000 1.0
C      1  0.3976170000000  0.4656880000000  0.5433620000000 1.0
C      1  0.5642280000000  0.5353910000000  0.4372050000000 1.0
C      1  0.4977740000000  0.4135460000000  0.4565660000000 1.0
C      1  0.4495660000000  0.4505370000000  0.4272220000000 1.0
C      1  0.4431930000000  0.4532270000000  0.4593190000000 1.0
C      1  0.4650020000000  0.4073370000000  0.5115940000000 1.0
C      1  0.5350830000000  0.5513410000000  0.5762670000000 1.0
C      1  0.5163380000000  0.4698230000000  0.4891070000000 1.0
C      1  0.5896030000000  0.4724760000000  0.5326080000000 1.0
C      1  0.5928810000000  0.4846810000000  0.5026370000000 1.0
C      1  0.5267570000000  0.5258950000000  0.4933530000000 1.0
C      1  0.4673480000000  0.4871690000000  0.5833430000000 1.0
C      1  0.4607400000000  0.4333590000000  0.5186910000000 1.0
C      1  0.5697790000000  0.4603470000000  0.3989970000000 1.0
C      1  0.4367490000000  0.5549640000000  0.4285770000000 1.0
C      1  0.5376530000000  0.5549700000000  0.4096830000000 1.0
C      1  0.5199660000000  0.5398080000000  0.6010140000000 1.0
C      1  0.5176220000000  0.4450490000000  0.5018810000000 1.0
C      1  0.4386860000000  0.4549810000000  0.4938910000000 1.0
C      1  0.4953990000000  0.3976040000000  0.4998000000000 1.0
C      1  0.5027880000000  0.5250330000000  0.3930370000000 1.0
C      1  0.4256200000000  0.4874000000000  0.4467430000000 1.0
C      1  0.4693130000000  0.4870500000000  0.4318920000000 1.0
C      1  0.4892470000000  0.5671940000000  0.4081300000000 1.0
C      1  0.5272490000000  0.5020440000000  0.4563410000000 1.0
C      1  0.5293140000000  0.3864270000000  0.4641460000000 1.0
C      1  0.4155390000000  0.5546590000000  0.5768310000000 1.0
C      1  0.5868440000000  0.5444900000000  0.5480920000000 1.0
C      1  0.4328950000000  0.5778890000000  0.5027030000000 1.0
C      1  0.4752490000000  0.5215770000000  0.3996390000000 1.0
C      1  0.4324830000000  0.5714350000000  0.4747490000000 1.0
C      1  0.5087830000000  0.5426070000000  0.5283320000000 1.0
C      1  0.5641230000000  0.4836190000000  0.4129770000000 1.0
C      1  0.5651820000000  0.5038710000000  0.4980590000000 1.0
C      1  0.4097750000000  0.4397830000000  0.5407390000000 1.0
C      1  0.4711420000000  0.4055160000000  0.4369740000000 1.0
C      1  0.5221990000000  0.3837050000000  0.4919100000000 1.0
C      1  0.4230240000000  0.5293090000000  0.5815760000000 1.0
C      1  0.5839500000000  0.5261610000000  0.4800510000000 1.0
C      1  0.4951450000000  0.4707450000000  0.4700540000000 1.0
C      1  0.4853120000000  0.4214060000000  0.5476630000000 1.0
C      1  0.4479850000000  0.5461950000000  0.4656740000000 1.0
C      1  0.4289370000000  0.5020400000000  0.5263610000000 1.0
C      1  0.5026630000000  0.6001890000000  0.5360440000000 1.0
C      1  0.4844960000000  0.4591160000000  0.5607050000000 1.0
C      1  0.5751250000000  0.4383530000000  0.3857850000000 1.0
C      1  0.4651450000000  0.5468170000000  0.4149700000000 1.0
C      1  0.5416860000000  0.5683600000000  0.4354420000000 1.0
C      1  0.5497730000000  0.5051640000000  0.4017070000000 1.0
C      1  0.4751110000000  0.3959330000000  0.4749730000000 1.0
C      1  0.5198230000000  0.4999360000000  0.3952630000000 1.0
C      1  0.4556290000000  0.5363830000000  0.5469190000000 1.0
C      1  0.5193590000000  0.4046120000000  0.5378310000000 1.0
C      1  0.3998690000000  0.4870030000000  0.4678850000000 1.0
C      1  0.4675770000000  0.4947080000000  0.4041440000000 1.0
C      1  0.4028780000000  0.4265330000000  0.5164510000000 1.0
C      1  0.5935460000000  0.4660920000000  0.4526710000000 1.0
C      1  0.4993830000000  0.5723410000000  0.5871150000000 1.0
C      1  0.5009920000000  0.4231770000000  0.5184900000000 1.0
C      1  0.5207610000000  0.4236850000000  0.5659650000000 1.0
C      1  0.6022640000000  0.5163980000000  0.5059120000000 1.0
C      1  0.5057210000000  0.5794340000000  0.4896110000000 1.0
C      1  0.5477670000000  0.5743920000000  0.5605050000000 1.0
C      1  0.5692380000000  0.5641250000000  0.4511050000000 1.0
C      1  0.5424760000000  0.5500690000000  0.5121830000000 1.0
C      1  0.4692020000000  0.5027320000000  0.4749340000000 1.0
C      1  0.4594240000000  0.5648360000000  0.5184500000000 1.0
C      1  0.5347290000000  0.4579120000000  0.5962690000000 1.0
C      1  0.5347970000000  0.4930410000000  0.5016720000000 1.0
C      1  0.4899340000000  0.4259860000000  0.4225690000000 1.0
C      1  0.5905220000000  0.5059350000000  0.5361850000000 1.0
C      1  0.4980950000000  0.5087120000000  0.5015320000000 1.0
C      1  0.4798210000000  0.4594840000000  0.5132820000000 1.0
C      1  0.4117170000000  0.5372450000000  0.5187240000000 1.0
C      1  0.4366620000000  0.4709040000000  0.5502340000000 1.0
C      1  0.5279440000000  0.5130150000000  0.5824880000000 1.0
C      1  0.4789720000000  0.5425200000000  0.5105900000000 1.0
C      1  0.5408200000000  0.5609690000000  0.4808190000000 1.0
C      1  0.5436420000000  0.5308840000000  0.4639320000000 1.0
C      1  0.4980830000000  0.5121160000000  0.5352960000000 1.0
C      1  0.4694380000000  0.4577340000000  0.4803950000000 1.0
C      1  0.4617110000000  0.4352570000000  0.5585350000000 1.0
C      1  0.4800460000000  0.4693080000000  0.3944220000000 1.0
C      1  0.5189480000000  0.4891440000000  0.5315860000000 1.0
C      1  0.4105480000000  0.4574540000000  0.4681080000000 1.0
END
