TITL C-2778433-5640-804 -0.000748910576351768 125000 -817.280478038023 0 0 139 (C1) n - 1
REM
REM in /home/nfs/bkarasulu/CARBON/AIRSS/Generating-Clusters/REBO/Only-C1/SD-CG/HFTN-CG
REM
REM
REM
REM
REM
REM ./C.cell (11c1c37f851c82e70ff6c80c92926a4b)
REM
REM compiler GCC version 9.2.1 20190827 (Red Hat 9.2.1-1)
REM options -cpp -mtune=generic -march=x86-64 -g -O0 -fpre-include=/usr/include/finclude/math-vector-fortran.h
REM seed 2119627636 1082460079 1581865717 486036256 235269154 374545081 1032620679 216284832 420013080 -233356065 -1340824160 -1163552238 -110331152 554056050 -911998554 -196708638 -1452356301 1084958527 838952247 -511927246 432525938 -1230437270 -1707242520 237074081 283447384 -1200986545 -1037618028 996794668 -1947552181 -11797878 523779404 -1749025351 -530275806
REM
CELL 1.54180   50.00000   50.00000   50.00000   90.00000   90.00000   90.00000
LATT -1
SFAC C  
C      1  0.5008710000000  0.5704990000000  0.4469200000000 1.0
C      1  0.5570550000000  0.5931460000000  0.5315590000000 1.0
C      1  0.5207580000000  0.5726420000000  0.4707000000000 1.0
C      1  0.5915800000000  0.4722740000000  0.4888970000000 1.0
C      1  0.5417330000000  0.4050410000000  0.4961060000000 1.0
C      1  0.4602590000000  0.4897320000000  0.5607220000000 1.0
C      1  0.5127710000000  0.5142100000000  0.4777860000000 1.0
C      1  0.4193910000000  0.5310530000000  0.5000340000000 1.0
C      1  0.4445080000000  0.5093240000000  0.5437680000000 1.0
C      1  0.5804150000000  0.5333230000000  0.4730970000000 1.0
C      1  0.5117030000000  0.4843870000000  0.4887550000000 1.0
C      1  0.5116440000000  0.5621560000000  0.5833760000000 1.0
C      1  0.5354480000000  0.4050820000000  0.4546540000000 1.0
C      1  0.5080220000000  0.5718140000000  0.5366090000000 1.0
C      1  0.4149530000000  0.5050990000000  0.5488260000000 1.0
C      1  0.4805600000000  0.5229660000000  0.4705010000000 1.0
C      1  0.5428000000000  0.5248350000000  0.5177910000000 1.0
C      1  0.5857260000000  0.4516920000000  0.5066020000000 1.0
C      1  0.4366040000000  0.4914040000000  0.4223550000000 1.0
C      1  0.5525080000000  0.5243100000000  0.5928610000000 1.0
C      1  0.4924910000000  0.4210360000000  0.5400850000000 1.0
C      1  0.5072130000000  0.4489470000000  0.5321360000000 1.0
C      1  0.5680430000000  0.5466080000000  0.5217110000000 1.0
C      1  0.5272790000000  0.5067410000000  0.5858260000000 1.0
C      1  0.4516020000000  0.5716510000000  0.4990010000000 1.0
C      1  0.4218870000000  0.5354950000000  0.5633410000000 1.0
C      1  0.5598360000000  0.4655770000000  0.4508080000000 1.0
C      1  0.5683830000000  0.5153570000000  0.4971350000000 1.0
C      1  0.5021400000000  0.6202660000000  0.4929940000000 1.0
C      1  0.5205630000000  0.4691830000000  0.4443900000000 1.0
C      1  0.4624240000000  0.5457910000000  0.5120970000000 1.0
C      1  0.5469360000000  0.4560150000000  0.4991710000000 1.0
C      1  0.4493460000000  0.4981870000000  0.4708330000000 1.0
C      1  0.4829460000000  0.4543360000000  0.4611270000000 1.0
C      1  0.5460930000000  0.4014490000000  0.5508530000000 1.0
C      1  0.4440700000000  0.4460480000000  0.4486850000000 1.0
C      1  0.4542640000000  0.4306810000000  0.5658070000000 1.0
C      1  0.4899960000000  0.4776170000000  0.4429360000000 1.0
C      1  0.4630180000000  0.4597700000000  0.4195480000000 1.0
C      1  0.5485490000000  0.4477770000000  0.5724860000000 1.0
C      1  0.5120830000000  0.4825050000000  0.3980540000000 1.0
C      1  0.5074430000000  0.5339930000000  0.4073720000000 1.0
C      1  0.4065540000000  0.4870460000000  0.4482640000000 1.0
C      1  0.4801940000000  0.4693780000000  0.5327640000000 1.0
C      1  0.5674120000000  0.4355160000000  0.4597310000000 1.0
C      1  0.4742230000000  0.5735370000000  0.4541860000000 1.0
C      1  0.5856560000000  0.5568820000000  0.4941100000000 1.0
C      1  0.5122700000000  0.5566810000000  0.4254950000000 1.0
C      1  0.5680390000000  0.5515950000000  0.5520100000000 1.0
C      1  0.5267860000000  0.4461490000000  0.4253780000000 1.0
C      1  0.4797800000000  0.4926860000000  0.4847400000000 1.0
C      1  0.4664220000000  0.4324200000000  0.4320530000000 1.0
C      1  0.5599490000000  0.5183730000000  0.4175220000000 1.0
C      1  0.5675470000000  0.5293530000000  0.5683360000000 1.0
C      1  0.4164420000000  0.4827130000000  0.5042000000000 1.0
C      1  0.5124860000000  0.5229130000000  0.4468220000000 1.0
C      1  0.5396190000000  0.4978710000000  0.5328640000000 1.0
C      1  0.4804740000000  0.4989890000000  0.6044210000000 1.0
C      1  0.4792770000000  0.5245050000000  0.4103020000000 1.0
C      1  0.4650490000000  0.4486550000000  0.5170010000000 1.0
C      1  0.6011310000000  0.4867370000000  0.5275760000000 1.0
C      1  0.4373080000000  0.4754320000000  0.4510320000000 1.0
C      1  0.4571800000000  0.4995720000000  0.5892010000000 1.0
C      1  0.5355370000000  0.4928090000000  0.4349020000000 1.0
C      1  0.4455890000000  0.5333050000000  0.5301760000000 1.0
C      1  0.4274020000000  0.5052210000000  0.4920340000000 1.0
C      1  0.4952950000000  0.4459180000000  0.5797900000000 1.0
C      1  0.5449690000000  0.5553920000000  0.4858600000000 1.0
C      1  0.5759490000000  0.5319000000000  0.4443590000000 1.0
C      1  0.4470880000000  0.5973980000000  0.5428980000000 1.0
C      1  0.4621770000000  0.4086420000000  0.4880440000000 1.0
C      1  0.4906530000000  0.4231550000000  0.4485670000000 1.0
C      1  0.4391950000000  0.4296210000000  0.4766250000000 1.0
C      1  0.4170200000000  0.5545010000000  0.4804640000000 1.0
C      1  0.5832960000000  0.4628250000000  0.5376400000000 1.0
C      1  0.5750040000000  0.5720010000000  0.4654390000000 1.0
C      1  0.4849340000000  0.5277850000000  0.5028930000000 1.0
C      1  0.5160910000000  0.3916320000000  0.4775980000000 1.0
C      1  0.5428720000000  0.3952660000000  0.5249920000000 1.0
C      1  0.5663630000000  0.4852880000000  0.4236930000000 1.0
C      1  0.5383820000000  0.5391440000000  0.4338600000000 1.0
C      1  0.4554240000000  0.5254090000000  0.4521420000000 1.0
C      1  0.5280180000000  0.4584110000000  0.3993990000000 1.0
C      1  0.5182470000000  0.4216440000000  0.4357420000000 1.0
C      1  0.4242790000000  0.5618950000000  0.4558800000000 1.0
C      1  0.4709680000000  0.5834260000000  0.4800120000000 1.0
C      1  0.4563190000000  0.5398870000000  0.4149300000000 1.0
C      1  0.5020460000000  0.5171830000000  0.6001700000000 1.0
C      1  0.5531540000000  0.4991010000000  0.5621780000000 1.0
C      1  0.5772070000000  0.4849290000000  0.4701500000000 1.0
C      1  0.4646400000000  0.5476880000000  0.5957320000000 1.0
C      1  0.5525480000000  0.5763940000000  0.5548850000000 1.0
C      1  0.4886660000000  0.5046130000000  0.5492310000000 1.0
C      1  0.4319080000000  0.5236520000000  0.4274340000000 1.0
C      1  0.4933160000000  0.5442600000000  0.5959400000000 1.0
C      1  0.4582990000000  0.5746340000000  0.5549790000000 1.0
C      1  0.5528540000000  0.4672220000000  0.5268290000000 1.0
C      1  0.4929810000000  0.4679330000000  0.5641680000000 1.0
C      1  0.4940970000000  0.5346740000000  0.5409570000000 1.0
C      1  0.4810240000000  0.4975610000000  0.5176090000000 1.0
C      1  0.4673940000000  0.4091430000000  0.5210300000000 1.0
C      1  0.4859830000000  0.4775410000000  0.4098690000000 1.0
C      1  0.4488170000000  0.4609350000000  0.5570480000000 1.0
C      1  0.4302220000000  0.4542670000000  0.4983330000000 1.0
C      1  0.4176680000000  0.5695360000000  0.5094970000000 1.0
C      1  0.5041960000000  0.4414130000000  0.4813740000000 1.0
C      1  0.5145740000000  0.4904760000000  0.5630040000000 1.0
C      1  0.4867080000000  0.4286910000000  0.5012240000000 1.0
C      1  0.4944670000000  0.5937930000000  0.4920100000000 1.0
C      1  0.5418230000000  0.5242100000000  0.4780660000000 1.0
C      1  0.5276860000000  0.5108890000000  0.4076870000000 1.0
C      1  0.5244150000000  0.5724110000000  0.5600660000000 1.0
C      1  0.4366540000000  0.5942660000000  0.5181970000000 1.0
C      1  0.4805370000000  0.5613910000000  0.5443180000000 1.0
C      1  0.5147170000000  0.5389190000000  0.5146780000000 1.0
C      1  0.4157750000000  0.5450740000000  0.5310820000000 1.0
C      1  0.5159830000000  0.4787200000000  0.5178490000000 1.0
C      1  0.5133430000000  0.5712010000000  0.5041200000000 1.0
C      1  0.5284480000000  0.4292490000000  0.4759590000000 1.0
C      1  0.5916150000000  0.5042240000000  0.5129270000000 1.0
C      1  0.4888590000000  0.4023060000000  0.4712840000000 1.0
C      1  0.5568410000000  0.5062290000000  0.4560370000000 1.0
C      1  0.5604970000000  0.5754790000000  0.5064150000000 1.0
C      1  0.5489430000000  0.4199830000000  0.5704530000000 1.0
C      1  0.4520400000000  0.5568190000000  0.4429010000000 1.0
C      1  0.4270130000000  0.4566480000000  0.5321290000000 1.0
C      1  0.5338370000000  0.4686050000000  0.4733030000000 1.0
C      1  0.5646970000000  0.4295890000000  0.4918230000000 1.0
C      1  0.5671360000000  0.4709500000000  0.5642880000000 1.0
C      1  0.5303740000000  0.4632910000000  0.5511170000000 1.0
C      1  0.4611760000000  0.4540730000000  0.4838200000000 1.0
C      1  0.4447590000000  0.4282060000000  0.5350950000000 1.0
C      1  0.5484710000000  0.5620430000000  0.4535080000000 1.0
C      1  0.4068190000000  0.4833360000000  0.5331460000000 1.0
C      1  0.4909770000000  0.5089560000000  0.4337720000000 1.0
C      1  0.4437960000000  0.5592150000000  0.5743170000000 1.0
C      1  0.4423850000000  0.5248960000000  0.5886330000000 1.0
C      1  0.4045030000000  0.5099550000000  0.4372890000000 1.0
C      1  0.4823330000000  0.4237340000000  0.5678110000000 1.0
END
