TITL C-2778432-5617-189 0.444240206336516 125000 -192.332902589407 0 0 35 (C1) n - 1
REM
REM in /home/nfs/bkarasulu/CARBON/AIRSS/Generating-Clusters/REBO/Only-C1/SD-CG/HFTN-CG
REM
REM
REM
REM
REM
REM ./C.cell (11c1c37f851c82e70ff6c80c92926a4b)
REM
REM compiler GCC version 9.2.1 20190827 (Red Hat 9.2.1-1)
REM options -cpp -mtune=generic -march=x86-64 -g -O0 -fpre-include=/usr/include/finclude/math-vector-fortran.h
REM seed -50902342 1849662055 -379506625 524025293 -65745815 1283874917 1840086138 1376625947 -1181316405 -494834223 -1279971971 -997194308 -1681768346 -486007719 125646308 -67255382 890859872 -985015610 1968588335 -1224879926 -385924601 1052793075 -1201828086 -1567501025 -1724432045 327782389 -549294202 -1870672782 340843650 81850142 684780312 -1185265012 -347876538
REM
CELL 1.54180   50.00000   50.00000   50.00000   90.00000   90.00000   90.00000
LATT -1
SFAC C  
C      1  0.5522950000000  0.3778590000000  0.5976340000000 1.0
C      1  0.5121260000000  0.5985050000000  0.4458120000000 1.0
C      1  0.5024140000000  0.4695100000000  0.5058250000000 1.0
C      1  0.5313450000000  0.5280350000000  0.4695260000000 1.0
C      1  0.4174260000000  0.5746230000000  0.4636660000000 1.0
C      1  0.4174450000000  0.4947360000000  0.4908420000000 1.0
C      1  0.4426150000000  0.5000510000000  0.4858360000000 1.0
C      1  0.5365340000000  0.5778030000000  0.4522670000000 1.0
C      1  0.5460900000000  0.4467730000000  0.5251730000000 1.0
C      1  0.4695850000000  0.4596030000000  0.5493750000000 1.0
C      1  0.5635800000000  0.4131980000000  0.5575780000000 1.0
C      1  0.5289400000000  0.4622720000000  0.5109900000000 1.0
C      1  0.4576030000000  0.6462420000000  0.4385610000000 1.0
C      1  0.4817580000000  0.5284130000000  0.4634170000000 1.0
C      1  0.5577990000000  0.3950960000000  0.5780950000000 1.0
C      1  0.5074930000000  0.5143140000000  0.4744100000000 1.0
C      1  0.4844530000000  0.5998170000000  0.4457420000000 1.0
C      1  0.4702470000000  0.5754350000000  0.4502980000000 1.0
C      1  0.5467900000000  0.3606210000000  0.6171730000000 1.0
C      1  0.4950520000000  0.4909300000000  0.4905840000000 1.0
C      1  0.5154120000000  0.4254720000000  0.5541000000000 1.0
C      1  0.4641750000000  0.4388670000000  0.5007600000000 1.0
C      1  0.5891410000000  0.4166600000000  0.5487540000000 1.0
C      1  0.5399540000000  0.5521390000000  0.4609090000000 1.0
C      1  0.4918330000000  0.4375050000000  0.5470600000000 1.0
C      1  0.4813180000000  0.4519780000000  0.5182840000000 1.0
C      1  0.4706080000000  0.6237560000000  0.4420390000000 1.0
C      1  0.4859450000000  0.5517460000000  0.4483460000000 1.0
C      1  0.4691300000000  0.5056500000000  0.4805630000000 1.0
C      1  0.5424060000000  0.4279780000000  0.5460120000000 1.0
C      1  0.3920220000000  0.5742330000000  0.4700960000000 1.0
C      1  0.5413730000000  0.3436570000000  0.6364010000000 1.0
C      1  0.4432400000000  0.5750200000000  0.4571330000000 1.0
C      1  0.5429720000000  0.6083250000000  0.4433440000000 1.0
C      1  0.5088810000000  0.5531780000000  0.4333970000000 1.0
END
