TITL C-2778432-5617-14 -0.000845574901231115 125000 -101.361452323539 0 0 19 (C1) n - 1
REM
REM in /home/nfs/bkarasulu/CARBON/AIRSS/Generating-Clusters/REBO/Only-C1/SD-CG/HFTN-CG
REM
REM
REM
REM
REM
REM ./C.cell (11c1c37f851c82e70ff6c80c92926a4b)
REM
REM compiler GCC version 9.2.1 20190827 (Red Hat 9.2.1-1)
REM options -cpp -mtune=generic -march=x86-64 -g -O0 -fpre-include=/usr/include/finclude/math-vector-fortran.h
REM seed 1341226802 1566914838 -328673306 723687288 -1481525061 -169814142 -696160119 1024597675 1313759455 -168691525 -956970498 1138833643 -359179949 -1327424026 1218204451 329839663 87029026 -1920003096 2133692192 -1562500578 1267478282 -400639555 -880296082 -1381277587 1926076780 -1137681196 2046309177 -147253751 -380016838 -1240233369 821721367 1357995939 585976738
REM
CELL 1.54180   50.00000   50.00000   50.00000   90.00000   90.00000   90.00000
LATT -1
SFAC C  
C      1  0.4508240000000  0.4945120000000  0.5113600000000 1.0
C      1  0.4866430000000  0.5062780000000  0.4981720000000 1.0
C      1  0.5182700000000  0.5206020000000  0.4783240000000 1.0
C      1  0.5354420000000  0.4747860000000  0.5412260000000 1.0
C      1  0.4918520000000  0.4601570000000  0.4869860000000 1.0
C      1  0.4962890000000  0.5045900000000  0.4394480000000 1.0
C      1  0.4509220000000  0.5226350000000  0.5040140000000 1.0
C      1  0.4738400000000  0.5189830000000  0.4462660000000 1.0
C      1  0.4747010000000  0.4782080000000  0.5005520000000 1.0
C      1  0.5119560000000  0.4712880000000  0.4712570000000 1.0
C      1  0.5041490000000  0.5137480000000  0.5190670000000 1.0
C      1  0.5506860000000  0.4558050000000  0.5520210000000 1.0
C      1  0.5140890000000  0.4980250000000  0.4609930000000 1.0
C      1  0.4762980000000  0.5446660000000  0.5019570000000 1.0
C      1  0.4693250000000  0.5247920000000  0.4753320000000 1.0
C      1  0.5046340000000  0.5387910000000  0.5299070000000 1.0
C      1  0.5201970000000  0.4937670000000  0.5304310000000 1.0
C      1  0.5041940000000  0.5412420000000  0.4900430000000 1.0
C      1  0.5656880000000  0.4371260000000  0.5626450000000 1.0
END
