TITL C-2778434-4341-840 0.000415623659273531 125000 -359.740100171417 0 0 63 (C1) n - 1
REM
REM in /home/nfs/bkarasulu/CARBON/AIRSS/Generating-Clusters/REBO/Only-C1/SD-CG/HFTN-CG
REM
REM
REM
REM
REM
REM ./C.cell (11c1c37f851c82e70ff6c80c92926a4b)
REM
REM compiler GCC version 9.2.1 20190827 (Red Hat 9.2.1-1)
REM options -cpp -mtune=generic -march=x86-64 -g -O0 -fpre-include=/usr/include/finclude/math-vector-fortran.h
REM seed -1959434845 -1580010448 -1156694807 -1651570938 1416217272 -2116850011 355279942 680840811 -2022295316 909417527 110903223 791477717 -1645980430 476229259 -455250101 -806205356 27902340 937217622 -1711409447 -557846117 724937824 -1197905964 1353893687 -891964092 -24467355 -1366870495 -1943905240 -1862248388 -485162185 131280004 -267519625 1227562663 -264858169
REM
CELL 1.54180   50.00000   50.00000   50.00000   90.00000   90.00000   90.00000
LATT -1
SFAC C  
C      1  0.5278660000000  0.5193120000000  0.5385210000000 1.0
C      1  0.4636750000000  0.5369600000000  0.5376260000000 1.0
C      1  0.5762750000000  0.5144090000000  0.5109820000000 1.0
C      1  0.4589300000000  0.4400700000000  0.5388300000000 1.0
C      1  0.5677180000000  0.4727810000000  0.4512260000000 1.0
C      1  0.5598010000000  0.5272970000000  0.4839490000000 1.0
C      1  0.5051740000000  0.5115770000000  0.4417170000000 1.0
C      1  0.4674210000000  0.4658810000000  0.4597640000000 1.0
C      1  0.5571190000000  0.4715460000000  0.4932790000000 1.0
C      1  0.5096430000000  0.4847310000000  0.5088990000000 1.0
C      1  0.5070060000000  0.5595160000000  0.4586560000000 1.0
C      1  0.5120090000000  0.4381480000000  0.4540180000000 1.0
C      1  0.5710130000000  0.4907690000000  0.5354600000000 1.0
C      1  0.5007930000000  0.5090850000000  0.5276990000000 1.0
C      1  0.4483980000000  0.4500260000000  0.4739220000000 1.0
C      1  0.4547480000000  0.5126810000000  0.4865480000000 1.0
C      1  0.4746510000000  0.4891400000000  0.5282620000000 1.0
C      1  0.4813030000000  0.4610700000000  0.5239890000000 1.0
C      1  0.5192940000000  0.5413280000000  0.4917610000000 1.0
C      1  0.5269830000000  0.5468800000000  0.5562660000000 1.0
C      1  0.4256190000000  0.4409180000000  0.4608390000000 1.0
C      1  0.5434150000000  0.4794520000000  0.4552410000000 1.0
C      1  0.5011380000000  0.4562320000000  0.4977730000000 1.0
C      1  0.4559130000000  0.5114570000000  0.5435320000000 1.0
C      1  0.4878840000000  0.5352810000000  0.5157110000000 1.0
C      1  0.5050530000000  0.4585410000000  0.5644550000000 1.0
C      1  0.4424100000000  0.5069580000000  0.4613590000000 1.0
C      1  0.4175360000000  0.5160100000000  0.4530190000000 1.0
C      1  0.4497430000000  0.4446970000000  0.5060150000000 1.0
C      1  0.5104220000000  0.5131950000000  0.4811950000000 1.0
C      1  0.5204600000000  0.5352330000000  0.4485550000000 1.0
C      1  0.4805150000000  0.5283280000000  0.4859960000000 1.0
C      1  0.5453590000000  0.4973790000000  0.5559420000000 1.0
C      1  0.5025210000000  0.4153850000000  0.5110720000000 1.0
C      1  0.4967070000000  0.4628520000000  0.4665890000000 1.0
C      1  0.4343260000000  0.4724340000000  0.5038470000000 1.0
C      1  0.5260490000000  0.5726660000000  0.4811480000000 1.0
C      1  0.5437590000000  0.5250180000000  0.5743590000000 1.0
C      1  0.4782350000000  0.4279150000000  0.5142990000000 1.0
C      1  0.5005060000000  0.5669020000000  0.5526900000000 1.0
C      1  0.5308950000000  0.5829830000000  0.5115810000000 1.0
C      1  0.5292640000000  0.5770750000000  0.5411480000000 1.0
C      1  0.5462490000000  0.5311150000000  0.4611410000000 1.0
C      1  0.5143180000000  0.4874380000000  0.4600480000000 1.0
C      1  0.4511230000000  0.4947500000000  0.5075140000000 1.0
C      1  0.4600540000000  0.4900840000000  0.4456680000000 1.0
C      1  0.4672280000000  0.5756930000000  0.4844270000000 1.0
C      1  0.4797170000000  0.4494930000000  0.5622040000000 1.0
C      1  0.4752460000000  0.5648700000000  0.5394540000000 1.0
C      1  0.5256750000000  0.4339210000000  0.4999450000000 1.0
C      1  0.4802700000000  0.5547050000000  0.4696190000000 1.0
C      1  0.5514210000000  0.4628770000000  0.5372240000000 1.0
C      1  0.5051010000000  0.5622060000000  0.5132460000000 1.0
C      1  0.5435840000000  0.5205300000000  0.5126480000000 1.0
C      1  0.3940470000000  0.5245580000000  0.4451440000000 1.0
C      1  0.4798210000000  0.5048630000000  0.4307870000000 1.0
C      1  0.5359050000000  0.4937820000000  0.4929780000000 1.0
C      1  0.4760090000000  0.5776620000000  0.5114040000000 1.0
C      1  0.5821180000000  0.4830990000000  0.5041470000000 1.0
C      1  0.4080150000000  0.4727990000000  0.4955470000000 1.0
C      1  0.5284940000000  0.4264350000000  0.4694750000000 1.0
C      1  0.5300740000000  0.4682380000000  0.5582200000000 1.0
C      1  0.5479820000000  0.4507670000000  0.5114200000000 1.0
END
