TITL C-2778431-5191-740 -0.00296043760499986 125000 -877.953784304506 0 0 147 (C1) n - 1
REM
REM in /home/nfs/bkarasulu/CARBON/AIRSS/Generating-Clusters/REBO/Only-C1/SD-CG/HFTN-CG
REM
REM
REM
REM
REM
REM ./C.cell (11c1c37f851c82e70ff6c80c92926a4b)
REM
REM compiler GCC version 9.2.1 20190827 (Red Hat 9.2.1-1)
REM options -cpp -mtune=generic -march=x86-64 -g -O0 -fpre-include=/usr/include/finclude/math-vector-fortran.h
REM seed -372331311 -1959636836 -549548514 -1243183753 -1536013017 -633540996 27632047 1269946753 1599741901 756398374 -429032894 -1634643308 1636667319 537773820 1495579352 691694313 -1230424844 -1861849974 489727659 -1360813103 283950034 1690073464 1509724467 -1578691038 1481518736 -2050840712 -1581625585 637272012 -62869553 1530126257 205875997 599858722 -710139957
REM
CELL 1.54180   50.00000   50.00000   50.00000   90.00000   90.00000   90.00000
LATT -1
SFAC C  
C      1  0.4110580000000  0.4461070000000  0.4785100000000 1.0
C      1  0.4735410000000  0.5204220000000  0.5183780000000 1.0
C      1  0.5891980000000  0.4563150000000  0.5186990000000 1.0
C      1  0.4844770000000  0.4444540000000  0.4845400000000 1.0
C      1  0.5044130000000  0.4357470000000  0.5778440000000 1.0
C      1  0.4059750000000  0.5411970000000  0.5150070000000 1.0
C      1  0.4646380000000  0.5939050000000  0.5155900000000 1.0
C      1  0.4988260000000  0.5274120000000  0.5040640000000 1.0
C      1  0.5334940000000  0.3950650000000  0.5007940000000 1.0
C      1  0.5021300000000  0.5592260000000  0.5007800000000 1.0
C      1  0.5153920000000  0.4580380000000  0.4804400000000 1.0
C      1  0.4971900000000  0.4625620000000  0.4513270000000 1.0
C      1  0.4302450000000  0.4201430000000  0.5039800000000 1.0
C      1  0.4288540000000  0.4747030000000  0.4347880000000 1.0
C      1  0.4868220000000  0.5380970000000  0.4543390000000 1.0
C      1  0.4025760000000  0.5179700000000  0.4915230000000 1.0
C      1  0.4664170000000  0.5362860000000  0.4732840000000 1.0
C      1  0.5249800000000  0.4436950000000  0.5100030000000 1.0
C      1  0.4244260000000  0.4889000000000  0.5722250000000 1.0
C      1  0.5637090000000  0.5363510000000  0.5490060000000 1.0
C      1  0.4811400000000  0.4124360000000  0.5255600000000 1.0
C      1  0.4521210000000  0.4992450000000  0.4336760000000 1.0
C      1  0.5133300000000  0.5620660000000  0.5389320000000 1.0
C      1  0.5625740000000  0.4311880000000  0.4735780000000 1.0
C      1  0.5585290000000  0.5251180000000  0.4211800000000 1.0
C      1  0.5809430000000  0.4819360000000  0.4380730000000 1.0
C      1  0.4692350000000  0.5845640000000  0.5424670000000 1.0
C      1  0.4229830000000  0.5150790000000  0.5256280000000 1.0
C      1  0.5806870000000  0.4689970000000  0.5409610000000 1.0
C      1  0.4690140000000  0.4676600000000  0.4073190000000 1.0
C      1  0.4615640000000  0.4984710000000  0.5610910000000 1.0
C      1  0.4797800000000  0.4404340000000  0.4229890000000 1.0
C      1  0.5013280000000  0.5814470000000  0.4479580000000 1.0
C      1  0.4144600000000  0.5260370000000  0.4605630000000 1.0
C      1  0.4132560000000  0.4901420000000  0.5043200000000 1.0
C      1  0.5396450000000  0.5042620000000  0.4172980000000 1.0
C      1  0.5369550000000  0.5918320000000  0.5266440000000 1.0
C      1  0.4549080000000  0.5348280000000  0.5758790000000 1.0
C      1  0.4541940000000  0.5721920000000  0.4605840000000 1.0
C      1  0.5450910000000  0.4305350000000  0.4468120000000 1.0
C      1  0.5027470000000  0.5378120000000  0.5476990000000 1.0
C      1  0.5392100000000  0.4880830000000  0.5164180000000 1.0
C      1  0.5711160000000  0.4995820000000  0.5792230000000 1.0
C      1  0.4758820000000  0.5336000000000  0.5423710000000 1.0
C      1  0.4972390000000  0.4853270000000  0.4015500000000 1.0
C      1  0.4924640000000  0.4284420000000  0.4490490000000 1.0
C      1  0.5063550000000  0.4596120000000  0.4186930000000 1.0
C      1  0.4530700000000  0.5529670000000  0.4388650000000 1.0
C      1  0.5185160000000  0.4141430000000  0.4564920000000 1.0
C      1  0.5226190000000  0.4936750000000  0.5996350000000 1.0
C      1  0.4334060000000  0.5727570000000  0.4797980000000 1.0
C      1  0.5073380000000  0.5319570000000  0.3948440000000 1.0
C      1  0.4712500000000  0.5567440000000  0.4173330000000 1.0
C      1  0.5038680000000  0.5102320000000  0.4793870000000 1.0
C      1  0.4385340000000  0.4265860000000  0.4737090000000 1.0
C      1  0.4754160000000  0.5308970000000  0.3986090000000 1.0
C      1  0.5797290000000  0.4967960000000  0.4915200000000 1.0
C      1  0.5350060000000  0.4558820000000  0.4288380000000 1.0
C      1  0.5066290000000  0.4923110000000  0.5388810000000 1.0
C      1  0.5843430000000  0.4971370000000  0.5526630000000 1.0
C      1  0.5466340000000  0.5508950000000  0.4158140000000 1.0
C      1  0.5702380000000  0.5599940000000  0.4795420000000 1.0
C      1  0.4777180000000  0.4901930000000  0.4542230000000 1.0
C      1  0.4961850000000  0.5072420000000  0.6036890000000 1.0
C      1  0.5154130000000  0.5409220000000  0.4660710000000 1.0
C      1  0.5642910000000  0.5631330000000  0.5130970000000 1.0
C      1  0.5242380000000  0.5693660000000  0.4609020000000 1.0
C      1  0.4511760000000  0.4197610000000  0.5308010000000 1.0
C      1  0.4334490000000  0.5170130000000  0.5551150000000 1.0
C      1  0.4570850000000  0.4862790000000  0.5311280000000 1.0
C      1  0.5372350000000  0.5176150000000  0.4597100000000 1.0
C      1  0.5890120000000  0.5339230000000  0.5384310000000 1.0
C      1  0.4883640000000  0.5225900000000  0.4286870000000 1.0
C      1  0.5677470000000  0.4559340000000  0.4386600000000 1.0
C      1  0.4793440000000  0.5855010000000  0.4661380000000 1.0
C      1  0.5125410000000  0.3981020000000  0.4805530000000 1.0
C      1  0.4281110000000  0.4455070000000  0.5324050000000 1.0
C      1  0.4696410000000  0.4173090000000  0.4702720000000 1.0
C      1  0.4568840000000  0.4546850000000  0.4671840000000 1.0
C      1  0.5411750000000  0.4850360000000  0.4376290000000 1.0
C      1  0.4461020000000  0.5061550000000  0.5911390000000 1.0
C      1  0.5113580000000  0.4854600000000  0.4968360000000 1.0
C      1  0.5041060000000  0.5637050000000  0.5777780000000 1.0
C      1  0.4857410000000  0.4824490000000  0.5158030000000 1.0
C      1  0.4382670000000  0.5901220000000  0.5043400000000 1.0
C      1  0.4866560000000  0.4036340000000  0.4930780000000 1.0
C      1  0.4380020000000  0.4681050000000  0.5500970000000 1.0
C      1  0.5494020000000  0.4225000000000  0.5016540000000 1.0
C      1  0.5469890000000  0.5108300000000  0.5539580000000 1.0
C      1  0.5361940000000  0.4264090000000  0.5573720000000 1.0
C      1  0.5342860000000  0.5619290000000  0.5739400000000 1.0
C      1  0.4398410000000  0.5275280000000  0.4416500000000 1.0
C      1  0.5560850000000  0.4919090000000  0.4675770000000 1.0
C      1  0.5569440000000  0.5300570000000  0.4813150000000 1.0
C      1  0.4694370000000  0.5532140000000  0.4960520000000 1.0
C      1  0.5767680000000  0.4650540000000  0.4886370000000 1.0
C      1  0.5145750000000  0.4146110000000  0.5193740000000 1.0
C      1  0.4467710000000  0.4501450000000  0.5055080000000 1.0
C      1  0.5699430000000  0.5026940000000  0.5222940000000 1.0
C      1  0.5909270000000  0.5426330000000  0.5110040000000 1.0
C      1  0.4880540000000  0.5888330000000  0.4963700000000 1.0
C      1  0.5605760000000  0.4178510000000  0.5482560000000 1.0
C      1  0.5519180000000  0.5679350000000  0.5453430000000 1.0
C      1  0.4561420000000  0.4589750000000  0.4368020000000 1.0
C      1  0.5159690000000  0.4596420000000  0.5363080000000 1.0
C      1  0.5463930000000  0.5086980000000  0.5938380000000 1.0
C      1  0.5175790000000  0.5945530000000  0.5113500000000 1.0
C      1  0.4880370000000  0.5341500000000  0.5844320000000 1.0
C      1  0.4959870000000  0.5830610000000  0.5531080000000 1.0
C      1  0.4109270000000  0.4678390000000  0.4588780000000 1.0
C      1  0.5501000000000  0.4778610000000  0.5461940000000 1.0
C      1  0.4235040000000  0.5661280000000  0.5179540000000 1.0
C      1  0.4488690000000  0.4674120000000  0.5826930000000 1.0
C      1  0.5341880000000  0.4572280000000  0.5627160000000 1.0
C      1  0.4528210000000  0.5558250000000  0.5185080000000 1.0
C      1  0.5872810000000  0.4329820000000  0.4958560000000 1.0
C      1  0.4749960000000  0.4519480000000  0.5119620000000 1.0
C      1  0.5213530000000  0.5157110000000  0.5206390000000 1.0
C      1  0.4666330000000  0.5004230000000  0.4043180000000 1.0
C      1  0.5040030000000  0.4171840000000  0.5507920000000 1.0
C      1  0.4904580000000  0.5042560000000  0.5650490000000 1.0
C      1  0.4380830000000  0.4737820000000  0.4875470000000 1.0
C      1  0.4968550000000  0.5696890000000  0.4218790000000 1.0
C      1  0.4868750000000  0.4608540000000  0.5926490000000 1.0
C      1  0.5716750000000  0.4208930000000  0.5237900000000 1.0
C      1  0.5796590000000  0.5140560000000  0.4382310000000 1.0
C      1  0.5953790000000  0.5239610000000  0.4898520000000 1.0
C      1  0.5316520000000  0.5544170000000  0.5138750000000 1.0
C      1  0.4741110000000  0.4573210000000  0.5633130000000 1.0
C      1  0.4561770000000  0.5067750000000  0.4747060000000 1.0
C      1  0.5400070000000  0.5360110000000  0.5841370000000 1.0
C      1  0.5180400000000  0.5063750000000  0.3997210000000 1.0
C      1  0.5470060000000  0.4610240000000  0.4723770000000 1.0
C      1  0.5197650000000  0.5187090000000  0.5656840000000 1.0
C      1  0.4858910000000  0.4513500000000  0.5406050000000 1.0
C      1  0.5187880000000  0.5547280000000  0.4086870000000 1.0
C      1  0.4705700000000  0.4865540000000  0.6018440000000 1.0
C      1  0.5192950000000  0.4647050000000  0.5893970000000 1.0
C      1  0.5498990000000  0.5774080000000  0.4642340000000 1.0
C      1  0.4260640000000  0.4972050000000  0.4671320000000 1.0
C      1  0.4078200000000  0.4569270000000  0.5072690000000 1.0
C      1  0.5500830000000  0.5259410000000  0.5106160000000 1.0
C      1  0.5844870000000  0.5340740000000  0.4616680000000 1.0
C      1  0.4135790000000  0.5500520000000  0.4828280000000 1.0
C      1  0.4493060000000  0.5071000000000  0.5061200000000 1.0
C      1  0.5079470000000  0.5049590000000  0.4475500000000 1.0
C      1  0.4554890000000  0.5568780000000  0.5512560000000 1.0
END
