TITL C-2778424-3986-1443 0.00211300713117187 125000 -952.699609946761 0 0 163 (C1) n - 1
REM
REM in /home/nfs/bkarasulu/CARBON/AIRSS/Generating-Clusters/REBO/Only-C1/SD-CG/HFTN-CG
REM
REM
REM
REM
REM
REM ./C.cell (11c1c37f851c82e70ff6c80c92926a4b)
REM
REM compiler GCC version 9.2.1 20190827 (Red Hat 9.2.1-1)
REM options -cpp -mtune=generic -march=x86-64 -g -O0 -fpre-include=/usr/include/finclude/math-vector-fortran.h
REM seed -279466230 398023471 -684627379 482180133 1806178254 -1023076169 -630774046 1782304554 340045114 2087071321 484935235 703618603 566999711 1424475603 -1317146981 -353610657 -1341436031 -471319844 1438614983 300995253 468571329 49138683 -27913761 -1077087076 994825853 -909447129 478612907 420323738 -1227000562 -2028829228 -1534427169 -1524119326 799243941
REM
CELL 1.54180   50.00000   50.00000   50.00000   90.00000   90.00000   90.00000
LATT -1
SFAC C  
C      1  0.5572950000000  0.4905910000000  0.5429510000000 1.0
C      1  0.4570200000000  0.4524730000000  0.5842230000000 1.0
C      1  0.4404350000000  0.5547970000000  0.4780220000000 1.0
C      1  0.4284990000000  0.5313320000000  0.4677380000000 1.0
C      1  0.5097400000000  0.6070960000000  0.4992610000000 1.0
C      1  0.4503360000000  0.4248380000000  0.5724330000000 1.0
C      1  0.5827410000000  0.5592960000000  0.4938430000000 1.0
C      1  0.4575200000000  0.5108220000000  0.4459550000000 1.0
C      1  0.5608570000000  0.5865400000000  0.5229700000000 1.0
C      1  0.5559610000000  0.4968700000000  0.4967510000000 1.0
C      1  0.5140960000000  0.5612560000000  0.5825160000000 1.0
C      1  0.5204780000000  0.5281190000000  0.5517320000000 1.0
C      1  0.4087400000000  0.4943140000000  0.5226940000000 1.0
C      1  0.5196050000000  0.4568160000000  0.4702220000000 1.0
C      1  0.5381440000000  0.5663190000000  0.4164110000000 1.0
C      1  0.4552950000000  0.5863050000000  0.4511290000000 1.0
C      1  0.4288550000000  0.4641150000000  0.4220000000000 1.0
C      1  0.4682210000000  0.4234670000000  0.5191000000000 1.0
C      1  0.4937650000000  0.4767860000000  0.5252260000000 1.0
C      1  0.4944930000000  0.3793680000000  0.5196890000000 1.0
C      1  0.5739060000000  0.5658030000000  0.5383770000000 1.0
C      1  0.4968340000000  0.4749990000000  0.4420480000000 1.0
C      1  0.5976520000000  0.5191850000000  0.4670070000000 1.0
C      1  0.4528400000000  0.5922320000000  0.5024160000000 1.0
C      1  0.6074150000000  0.4887020000000  0.5539630000000 1.0
C      1  0.4571200000000  0.4947380000000  0.4163320000000 1.0
C      1  0.4790620000000  0.5201810000000  0.3981720000000 1.0
C      1  0.4971630000000  0.4306550000000  0.5076760000000 1.0
C      1  0.5509210000000  0.4621650000000  0.4588970000000 1.0
C      1  0.4110230000000  0.5079000000000  0.4296700000000 1.0
C      1  0.5678140000000  0.4500710000000  0.4841760000000 1.0
C      1  0.5625650000000  0.4903550000000  0.4435760000000 1.0
C      1  0.4184040000000  0.4914380000000  0.5515600000000 1.0
C      1  0.4251270000000  0.5457180000000  0.5553550000000 1.0
C      1  0.4728920000000  0.5920280000000  0.5259570000000 1.0
C      1  0.5452490000000  0.5318630000000  0.4741460000000 1.0
C      1  0.5649930000000  0.5219330000000  0.5696090000000 1.0
C      1  0.4771240000000  0.4136720000000  0.5699740000000 1.0
C      1  0.5400950000000  0.4849760000000  0.5981420000000 1.0
C      1  0.5418580000000  0.5327650000000  0.5256170000000 1.0
C      1  0.5683040000000  0.4371270000000  0.4464390000000 1.0
C      1  0.5072250000000  0.5715130000000  0.4274640000000 1.0
C      1  0.4092710000000  0.5166230000000  0.5960550000000 1.0
C      1  0.5377360000000  0.5044540000000  0.4620810000000 1.0
C      1  0.4964500000000  0.5156160000000  0.5689700000000 1.0
C      1  0.4836200000000  0.3995380000000  0.5342330000000 1.0
C      1  0.5029850000000  0.5283420000000  0.4427310000000 1.0
C      1  0.5173430000000  0.4455850000000  0.5760730000000 1.0
C      1  0.5597870000000  0.4674450000000  0.5806170000000 1.0
C      1  0.4650820000000  0.5580820000000  0.5817180000000 1.0
C      1  0.5601310000000  0.5552720000000  0.5635070000000 1.0
C      1  0.4575150000000  0.4493210000000  0.5292730000000 1.0
C      1  0.5372920000000  0.4677970000000  0.4070220000000 1.0
C      1  0.5304490000000  0.5420150000000  0.4470520000000 1.0
C      1  0.4688210000000  0.5311610000000  0.4943900000000 1.0
C      1  0.4023550000000  0.4908800000000  0.4518540000000 1.0
C      1  0.5290990000000  0.4058080000000  0.5013360000000 1.0
C      1  0.5331630000000  0.5736660000000  0.5658110000000 1.0
C      1  0.4230100000000  0.4679710000000  0.4538530000000 1.0
C      1  0.4687150000000  0.4646870000000  0.4249090000000 1.0
C      1  0.4444430000000  0.5751370000000  0.4272440000000 1.0
C      1  0.4471320000000  0.4669720000000  0.5088350000000 1.0
C      1  0.4246960000000  0.5169020000000  0.5697850000000 1.0
C      1  0.4474760000000  0.4399150000000  0.4221170000000 1.0
C      1  0.4888530000000  0.5405950000000  0.5310120000000 1.0
C      1  0.5256210000000  0.4144370000000  0.4375160000000 1.0
C      1  0.4974430000000  0.4765960000000  0.6255040000000 1.0
C      1  0.4916560000000  0.5492830000000  0.5695310000000 1.0
C      1  0.4212020000000  0.4388530000000  0.4976190000000 1.0
C      1  0.5631410000000  0.4739280000000  0.4151770000000 1.0
C      1  0.4744110000000  0.5376210000000  0.4446270000000 1.0
C      1  0.5114890000000  0.5863730000000  0.4536080000000 1.0
C      1  0.4465890000000  0.5462800000000  0.4271800000000 1.0
C      1  0.4872500000000  0.5517780000000  0.4082210000000 1.0
C      1  0.5003430000000  0.4621080000000  0.5516510000000 1.0
C      1  0.4963630000000  0.4286280000000  0.5469500000000 1.0
C      1  0.4563480000000  0.4601960000000  0.5550000000000 1.0
C      1  0.4556210000000  0.4065130000000  0.4743500000000 1.0
C      1  0.5595370000000  0.5599750000000  0.4421550000000 1.0
C      1  0.5047390000000  0.4275570000000  0.4138960000000 1.0
C      1  0.5401690000000  0.4997660000000  0.5679820000000 1.0
C      1  0.5493540000000  0.4270720000000  0.5467900000000 1.0
C      1  0.5441860000000  0.5327840000000  0.4173200000000 1.0
C      1  0.5046990000000  0.5016660000000  0.4594870000000 1.0
C      1  0.4903130000000  0.4526330000000  0.3960040000000 1.0
C      1  0.5623390000000  0.4163900000000  0.5192990000000 1.0
C      1  0.4266990000000  0.4238740000000  0.5276460000000 1.0
C      1  0.4665250000000  0.5231780000000  0.5437720000000 1.0
C      1  0.4809230000000  0.4861100000000  0.3935770000000 1.0
C      1  0.4549540000000  0.4777610000000  0.4524360000000 1.0
C      1  0.5012490000000  0.4239520000000  0.5862870000000 1.0
C      1  0.5858890000000  0.5383660000000  0.4413670000000 1.0
C      1  0.4610180000000  0.4920690000000  0.4958410000000 1.0
C      1  0.4687980000000  0.4951670000000  0.5270740000000 1.0
C      1  0.5522000000000  0.5406390000000  0.5936210000000 1.0
C      1  0.5917820000000  0.4899210000000  0.4580420000000 1.0
C      1  0.5507770000000  0.4139180000000  0.4517790000000 1.0
C      1  0.5896660000000  0.5206060000000  0.5194410000000 1.0
C      1  0.5293670000000  0.4832770000000  0.4848910000000 1.0
C      1  0.5122330000000  0.4748440000000  0.3859030000000 1.0
C      1  0.4799100000000  0.4609570000000  0.4684420000000 1.0
C      1  0.6026340000000  0.5002940000000  0.4950370000000 1.0
C      1  0.4975340000000  0.4594340000000  0.4961250000000 1.0
C      1  0.5198990000000  0.5673360000000  0.4876450000000 1.0
C      1  0.5678040000000  0.5187940000000  0.4271220000000 1.0
C      1  0.5741000000000  0.5372880000000  0.4785570000000 1.0
C      1  0.5194920000000  0.5864360000000  0.5415960000000 1.0
C      1  0.4167090000000  0.4709280000000  0.5080000000000 1.0
C      1  0.5166640000000  0.4904930000000  0.5123580000000 1.0
C      1  0.5597720000000  0.4459080000000  0.5131910000000 1.0
C      1  0.6110740000000  0.4980720000000  0.5281540000000 1.0
C      1  0.4166290000000  0.4589940000000  0.5594890000000 1.0
C      1  0.5549650000000  0.4178900000000  0.4853100000000 1.0
C      1  0.5002580000000  0.6028110000000  0.5266430000000 1.0
C      1  0.5049420000000  0.4338670000000  0.4532970000000 1.0
C      1  0.5072100000000  0.5180660000000  0.4142020000000 1.0
C      1  0.5091060000000  0.4926640000000  0.6059390000000 1.0
C      1  0.4893650000000  0.5047690000000  0.4846010000000 1.0
C      1  0.5658580000000  0.5847530000000  0.4889570000000 1.0
C      1  0.5142980000000  0.3828790000000  0.5006790000000 1.0
C      1  0.4666850000000  0.5987020000000  0.4761270000000 1.0
C      1  0.5365830000000  0.5929860000000  0.5012140000000 1.0
C      1  0.5427390000000  0.5783040000000  0.4647270000000 1.0
C      1  0.4227730000000  0.4403240000000  0.4665700000000 1.0
C      1  0.4276290000000  0.4324100000000  0.5541280000000 1.0
C      1  0.5242230000000  0.5417810000000  0.6014760000000 1.0
C      1  0.5020210000000  0.5233060000000  0.6077610000000 1.0
C      1  0.4521670000000  0.5344170000000  0.5166330000000 1.0
C      1  0.3816680000000  0.4949980000000  0.4694270000000 1.0
C      1  0.4786000000000  0.5643290000000  0.5144700000000 1.0
C      1  0.5458320000000  0.4445760000000  0.5691850000000 1.0
C      1  0.4893740000000  0.5647870000000  0.4875900000000 1.0
C      1  0.4677380000000  0.4734710000000  0.5990040000000 1.0
C      1  0.5524620000000  0.4637350000000  0.5311710000000 1.0
C      1  0.4738940000000  0.5323160000000  0.6006170000000 1.0
C      1  0.4757100000000  0.4292770000000  0.4608080000000 1.0
C      1  0.5191380000000  0.5450120000000  0.3982030000000 1.0
C      1  0.5282540000000  0.5397310000000  0.4979390000000 1.0
C      1  0.5791680000000  0.4909570000000  0.5671880000000 1.0
C      1  0.4448160000000  0.4142210000000  0.5007440000000 1.0
C      1  0.4497770000000  0.4875620000000  0.5507730000000 1.0
C      1  0.4690660000000  0.5601180000000  0.4659760000000 1.0
C      1  0.4241050000000  0.5317450000000  0.4388180000000 1.0
C      1  0.4569600000000  0.5200720000000  0.5727890000000 1.0
C      1  0.4744340000000  0.4959190000000  0.5863070000000 1.0
C      1  0.5015980000000  0.5269550000000  0.5038830000000 1.0
C      1  0.5195780000000  0.4528910000000  0.4291660000000 1.0
C      1  0.5137270000000  0.4900700000000  0.4158860000000 1.0
C      1  0.5182240000000  0.5557300000000  0.5335140000000 1.0
C      1  0.5233010000000  0.4226440000000  0.5279090000000 1.0
C      1  0.5888060000000  0.5504950000000  0.5199870000000 1.0
C      1  0.5941190000000  0.4693040000000  0.4838780000000 1.0
C      1  0.4236860000000  0.5459590000000  0.5243570000000 1.0
C      1  0.4263470000000  0.4917710000000  0.4109910000000 1.0
C      1  0.4359310000000  0.5680140000000  0.5022360000000 1.0
C      1  0.5910510000000  0.4562520000000  0.4523980000000 1.0
C      1  0.5100170000000  0.4846810000000  0.5726090000000 1.0
C      1  0.4408660000000  0.5635900000000  0.5687630000000 1.0
C      1  0.4060150000000  0.5206570000000  0.5148320000000 1.0
C      1  0.4427970000000  0.5067450000000  0.4763290000000 1.0
C      1  0.4959950000000  0.6018330000000  0.4743940000000 1.0
C      1  0.4447300000000  0.4245860000000  0.4488370000000 1.0
C      1  0.5611710000000  0.5107020000000  0.5215810000000 1.0
END
