TITL C-2778425-5191-1396 0.000671717501265289 125000 -150.682527809169 0 0 27 (C1) n - 1
REM
REM in /home/nfs/bkarasulu/CARBON/AIRSS/Generating-Clusters/REBO/Only-C1/SD-CG/HFTN-CG
REM
REM
REM
REM
REM
REM ./C.cell (11c1c37f851c82e70ff6c80c92926a4b)
REM
REM compiler GCC version 9.2.1 20190827 (Red Hat 9.2.1-1)
REM options -cpp -mtune=generic -march=x86-64 -g -O0 -fpre-include=/usr/include/finclude/math-vector-fortran.h
REM seed 1295858985 148344594 -500835439 1436761345 -1523871183 -346214906 -1793634697 571724503 -677823427 38293001 1573001486 -810478771 586148654 1421440946 -1743448752 -1177162964 -692778058 -413180111 -696680687 -1916067367 -958214 -1343999453 -1475478814 647882218 -1476616053 1545388184 703454352 -2143475163 -1637813140 790812675 1498945577 1672159240 -1777500872
REM
CELL 1.54180   50.00000   50.00000   50.00000   90.00000   90.00000   90.00000
LATT -1
SFAC C  
C      1  0.5487550000000  0.5023210000000  0.5230910000000 1.0
C      1  0.4833680000000  0.5142840000000  0.4890000000000 1.0
C      1  0.4890710000000  0.4846840000000  0.5523140000000 1.0
C      1  0.4599980000000  0.5297190000000  0.4777880000000 1.0
C      1  0.5354000000000  0.4634670000000  0.4901970000000 1.0
C      1  0.4612760000000  0.4718220000000  0.4815930000000 1.0
C      1  0.4557820000000  0.5554220000000  0.5112080000000 1.0
C      1  0.5036930000000  0.5047590000000  0.4662500000000 1.0
C      1  0.5782740000000  0.4894390000000  0.5236630000000 1.0
C      1  0.5163420000000  0.4453140000000  0.5009630000000 1.0
C      1  0.4907890000000  0.4736670000000  0.4661420000000 1.0
C      1  0.4970510000000  0.5271120000000  0.5150460000000 1.0
C      1  0.4988800000000  0.5080850000000  0.5419200000000 1.0
C      1  0.5260450000000  0.5163770000000  0.5274850000000 1.0
C      1  0.4864890000000  0.4587940000000  0.5444730000000 1.0
C      1  0.6031090000000  0.4896320000000  0.5326090000000 1.0
C      1  0.4426130000000  0.4882850000000  0.4898640000000 1.0
C      1  0.5237100000000  0.4787860000000  0.4694820000000 1.0
C      1  0.5058580000000  0.5346590000000  0.4577000000000 1.0
C      1  0.4852090000000  0.5498710000000  0.4710250000000 1.0
C      1  0.4326680000000  0.5110780000000  0.5002720000000 1.0
C      1  0.4920310000000  0.4445760000000  0.5215160000000 1.0
C      1  0.4849960000000  0.4497740000000  0.4892390000000 1.0
C      1  0.5551620000000  0.4757060000000  0.5059640000000 1.0
C      1  0.4361080000000  0.5364520000000  0.5091520000000 1.0
C      1  0.4825300000000  0.5519770000000  0.5020030000000 1.0
C      1  0.5247920000000  0.5439370000000  0.4400430000000 1.0
END
