TITL C-2778423-5760-1134 0.0958153858706985 125000 -360.030681226779 0 0 62 (C1) n - 1
REM
REM in /home/nfs/bkarasulu/CARBON/AIRSS/Generating-Clusters/REBO/Only-C1/SD-CG/HFTN-CG
REM
REM
REM
REM
REM
REM ./C.cell (11c1c37f851c82e70ff6c80c92926a4b)
REM
REM compiler GCC version 9.2.1 20190827 (Red Hat 9.2.1-1)
REM options -cpp -mtune=generic -march=x86-64 -g -O0 -fpre-include=/usr/include/finclude/math-vector-fortran.h
REM seed 968238885 1128817872 -1135674420 -974585418 1788334383 1659454370 -77472495 1864463430 278569390 660555243 514336118 -1022671811 2043106345 -1597616631 -780788253 1934515787 1704429208 1415614213 -201624196 334072871 1371572446 1388828676 -949202799 1495028968 79931087 -454394399 1622627136 1495179983 1718235504 -1317976817 -2009139129 -694433625 1080187616
REM
CELL 1.54180   50.00000   50.00000   50.00000   90.00000   90.00000   90.00000
LATT -1
SFAC C  
C      1  0.5458120000000  0.5472900000000  0.5022790000000 1.0
C      1  0.5508230000000  0.4706670000000  0.4910640000000 1.0
C      1  0.4655490000000  0.4692700000000  0.5132740000000 1.0
C      1  0.5213220000000  0.4814890000000  0.5294330000000 1.0
C      1  0.4441550000000  0.5265340000000  0.5764360000000 1.0
C      1  0.4447920000000  0.5050310000000  0.4405200000000 1.0
C      1  0.5393680000000  0.5023480000000  0.5454730000000 1.0
C      1  0.5350990000000  0.5269190000000  0.5692180000000 1.0
C      1  0.4702560000000  0.4369580000000  0.5488590000000 1.0
C      1  0.5093750000000  0.5177930000000  0.5401520000000 1.0
C      1  0.5536360000000  0.5468050000000  0.5314040000000 1.0
C      1  0.4845110000000  0.4749750000000  0.3975730000000 1.0
C      1  0.4942140000000  0.4789100000000  0.5089900000000 1.0
C      1  0.5659230000000  0.4998450000000  0.4935050000000 1.0
C      1  0.5204420000000  0.4690960000000  0.4526750000000 1.0
C      1  0.5605350000000  0.5244100000000  0.4818500000000 1.0
C      1  0.4498930000000  0.5492380000000  0.4688520000000 1.0
C      1  0.5164320000000  0.3940850000000  0.4954620000000 1.0
C      1  0.5070700000000  0.4605440000000  0.5756910000000 1.0
C      1  0.5061340000000  0.5319210000000  0.4427270000000 1.0
C      1  0.5640490000000  0.5212580000000  0.5377850000000 1.0
C      1  0.4592150000000  0.5314320000000  0.4885510000000 1.0
C      1  0.5016140000000  0.4731720000000  0.4791420000000 1.0
C      1  0.4394260000000  0.5143830000000  0.5283130000000 1.0
C      1  0.4583390000000  0.5177770000000  0.5532140000000 1.0
C      1  0.5058800000000  0.5580430000000  0.5477560000000 1.0
C      1  0.5028270000000  0.5098420000000  0.4639350000000 1.0
C      1  0.4882590000000  0.4903020000000  0.4203410000000 1.0
C      1  0.4935650000000  0.5587770000000  0.5188310000000 1.0
C      1  0.4934350000000  0.4857060000000  0.5742460000000 1.0
C      1  0.5320770000000  0.4555850000000  0.5342790000000 1.0
C      1  0.4409410000000  0.4532850000000  0.4974140000000 1.0
C      1  0.4886570000000  0.5252210000000  0.4908210000000 1.0
C      1  0.5227980000000  0.5249100000000  0.4943950000000 1.0
C      1  0.5093230000000  0.5088960000000  0.5709000000000 1.0
C      1  0.5166140000000  0.4428250000000  0.5551230000000 1.0
C      1  0.4675010000000  0.5597620000000  0.4490990000000 1.0
C      1  0.5177800000000  0.4893450000000  0.4330970000000 1.0
C      1  0.5380990000000  0.5092000000000  0.4353570000000 1.0
C      1  0.5229330000000  0.5536830000000  0.4495480000000 1.0
C      1  0.4838160000000  0.4851420000000  0.4537750000000 1.0
C      1  0.4962990000000  0.4255280000000  0.5438320000000 1.0
C      1  0.4855680000000  0.5797330000000  0.4598430000000 1.0
C      1  0.4428210000000  0.5123060000000  0.5016070000000 1.0
C      1  0.5457250000000  0.4620970000000  0.4608610000000 1.0
C      1  0.5278850000000  0.4947330000000  0.4824200000000 1.0
C      1  0.5054150000000  0.4110780000000  0.5211510000000 1.0
C      1  0.5425880000000  0.4464780000000  0.5095920000000 1.0
C      1  0.4775210000000  0.5412900000000  0.5430880000000 1.0
C      1  0.5333480000000  0.5515550000000  0.5529150000000 1.0
C      1  0.4273970000000  0.4318520000000  0.4938500000000 1.0
C      1  0.4798940000000  0.5387000000000  0.4325860000000 1.0
C      1  0.4540770000000  0.4881720000000  0.4606590000000 1.0
C      1  0.5138510000000  0.5575220000000  0.4964500000000 1.0
C      1  0.4694750000000  0.4874170000000  0.5586340000000 1.0
C      1  0.5109410000000  0.5705380000000  0.4692820000000 1.0
C      1  0.4667960000000  0.5145200000000  0.4244310000000 1.0
C      1  0.4635230000000  0.4643560000000  0.5429020000000 1.0
C      1  0.4466320000000  0.4848030000000  0.4897080000000 1.0
C      1  0.4948060000000  0.5093190000000  0.5177190000000 1.0
C      1  0.5308340000000  0.4222280000000  0.5025680000000 1.0
C      1  0.5521150000000  0.5231050000000  0.4545410000000 1.0
END
