TITL C-2778423-5760-1109 -0.000485338902552423 125000 -410.129300583992 0 0 70 (C1) n - 1
REM
REM in /home/nfs/bkarasulu/CARBON/AIRSS/Generating-Clusters/REBO/Only-C1/SD-CG/HFTN-CG
REM
REM
REM
REM
REM
REM ./C.cell (11c1c37f851c82e70ff6c80c92926a4b)
REM
REM compiler GCC version 9.2.1 20190827 (Red Hat 9.2.1-1)
REM options -cpp -mtune=generic -march=x86-64 -g -O0 -fpre-include=/usr/include/finclude/math-vector-fortran.h
REM seed -1561460968 266859132 -675347916 -1039524178 -690230110 1613273461 -276621752 -245182862 -581773140 9710833 -132259009 595153860 80769137 578752846 -133980068 -1058572611 520940068 1105746136 -227759818 1067890847 389927487 1717704541 -1654220142 -662798427 24860217 -1016681569 140624295 1047610048 -733151051 -1725804388 -679523428 189629607 1584678172
REM
CELL 1.54180   50.00000   50.00000   50.00000   90.00000   90.00000   90.00000
LATT -1
SFAC C  
C      1  0.4692300000000  0.4398010000000  0.5092660000000 1.0
C      1  0.5019770000000  0.4760760000000  0.5520290000000 1.0
C      1  0.5577660000000  0.4590950000000  0.4750100000000 1.0
C      1  0.5240120000000  0.5891550000000  0.4934960000000 1.0
C      1  0.4596040000000  0.4967610000000  0.4431540000000 1.0
C      1  0.4288460000000  0.4796500000000  0.4865600000000 1.0
C      1  0.5435620000000  0.5025820000000  0.5672110000000 1.0
C      1  0.5473340000000  0.4681600000000  0.5318070000000 1.0
C      1  0.5657150000000  0.5413290000000  0.5266520000000 1.0
C      1  0.5173460000000  0.5697150000000  0.5507570000000 1.0
C      1  0.5747820000000  0.5108950000000  0.5285110000000 1.0
C      1  0.4267930000000  0.4614470000000  0.5110230000000 1.0
C      1  0.4904430000000  0.5100310000000  0.5695420000000 1.0
C      1  0.4216530000000  0.4950900000000  0.5745120000000 1.0
C      1  0.4776270000000  0.5315640000000  0.4182050000000 1.0
C      1  0.4982080000000  0.5106030000000  0.4187170000000 1.0
C      1  0.4495170000000  0.4544910000000  0.5511980000000 1.0
C      1  0.4823980000000  0.4805020000000  0.4740330000000 1.0
C      1  0.5317960000000  0.4904760000000  0.4951700000000 1.0
C      1  0.4459120000000  0.4447410000000  0.5243110000000 1.0
C      1  0.4987850000000  0.5669870000000  0.4894060000000 1.0
C      1  0.5188910000000  0.4532820000000  0.4485320000000 1.0
C      1  0.5567690000000  0.5141260000000  0.4692530000000 1.0
C      1  0.4972400000000  0.4634840000000  0.4343300000000 1.0
C      1  0.4531940000000  0.5566410000000  0.4948050000000 1.0
C      1  0.5785840000000  0.5002170000000  0.5009210000000 1.0
C      1  0.5099150000000  0.4752700000000  0.4848410000000 1.0
C      1  0.4388830000000  0.4859340000000  0.5544690000000 1.0
C      1  0.5602810000000  0.4934080000000  0.5458030000000 1.0
C      1  0.5081860000000  0.5309810000000  0.4613960000000 1.0
C      1  0.4266760000000  0.5072740000000  0.4998680000000 1.0
C      1  0.5400770000000  0.5576370000000  0.5421740000000 1.0
C      1  0.5345410000000  0.5395700000000  0.5159480000000 1.0
C      1  0.4955140000000  0.4266870000000  0.4981480000000 1.0
C      1  0.5233740000000  0.5129060000000  0.5167520000000 1.0
C      1  0.5223340000000  0.5175540000000  0.4357710000000 1.0
C      1  0.5425820000000  0.4694190000000  0.4518620000000 1.0
C      1  0.4641360000000  0.4477350000000  0.4602630000000 1.0
C      1  0.5092540000000  0.4396970000000  0.5244290000000 1.0
C      1  0.4706340000000  0.5084360000000  0.4808250000000 1.0
C      1  0.5401770000000  0.5448370000000  0.4420450000000 1.0
C      1  0.5017240000000  0.5142060000000  0.4830400000000 1.0
C      1  0.4795240000000  0.5582120000000  0.5110850000000 1.0
C      1  0.4927470000000  0.4986090000000  0.5122230000000 1.0
C      1  0.5507190000000  0.5473670000000  0.4723180000000 1.0
C      1  0.4323160000000  0.5776670000000  0.4994240000000 1.0
C      1  0.5015370000000  0.4449620000000  0.5536040000000 1.0
C      1  0.5303850000000  0.5571900000000  0.4923520000000 1.0
C      1  0.5158920000000  0.4314510000000  0.4732140000000 1.0
C      1  0.4852700000000  0.4353980000000  0.4607220000000 1.0
C      1  0.5220820000000  0.4868350000000  0.5366870000000 1.0
C      1  0.4814600000000  0.5270970000000  0.5238160000000 1.0
C      1  0.4579510000000  0.5256520000000  0.4390940000000 1.0
C      1  0.5384540000000  0.4450440000000  0.5169340000000 1.0
C      1  0.4914330000000  0.4647140000000  0.5096170000000 1.0
C      1  0.4714650000000  0.4850510000000  0.5641980000000 1.0
C      1  0.4914850000000  0.5602850000000  0.5428860000000 1.0
C      1  0.4497010000000  0.4760390000000  0.4651900000000 1.0
C      1  0.4462610000000  0.5255850000000  0.4888160000000 1.0
C      1  0.4844430000000  0.5321180000000  0.5536270000000 1.0
C      1  0.4834450000000  0.4872310000000  0.4289360000000 1.0
C      1  0.4901880000000  0.5538210000000  0.4633010000000 1.0
C      1  0.5717630000000  0.5321230000000  0.4943020000000 1.0
C      1  0.4598420000000  0.5439770000000  0.4636800000000 1.0
C      1  0.5591280000000  0.4819160000000  0.4926250000000 1.0
C      1  0.5427750000000  0.4387150000000  0.4890680000000 1.0
C      1  0.4749160000000  0.4508690000000  0.5663250000000 1.0
C      1  0.4270690000000  0.4894690000000  0.5251520000000 1.0
C      1  0.5436860000000  0.4983410000000  0.4492460000000 1.0
C      1  0.5177890000000  0.5058140000000  0.5755150000000 1.0
END
