TITL C-2778428-5639-474 0.430747293550805 125000 -744.293585684767 0 0 129 (C1) n - 1
REM
REM in /home/nfs/bkarasulu/CARBON/AIRSS/Generating-Clusters/REBO/Only-C1/SD-CG/HFTN-CG
REM
REM
REM
REM
REM
REM ./C.cell (11c1c37f851c82e70ff6c80c92926a4b)
REM
REM compiler GCC version 9.2.1 20190827 (Red Hat 9.2.1-1)
REM options -cpp -mtune=generic -march=x86-64 -g -O0 -fpre-include=/usr/include/finclude/math-vector-fortran.h
REM seed -388146742 -1108814047 -723987541 -2049672436 80204221 -447238666 1737106161 1871405638 -995565452 -1899126926 -1114463545 1126926545 -459430098 1914358979 768670671 -1372194416 -1395851066 -1719787151 -1772645229 -109371187 -1528387836 1725630132 -1469608248 603982286 -2050947344 -1137003038 1004252689 -2025585655 644167905 -829571237 2101916172 -249089063 -1071552898
REM
CELL 1.54180   50.00000   50.00000   50.00000   90.00000   90.00000   90.00000
LATT -1
SFAC C  
C      1  0.4667030000000  0.4782000000000  0.4143880000000 1.0
C      1  0.5271140000000  0.5904760000000  0.4629330000000 1.0
C      1  0.4730910000000  0.4608470000000  0.4394980000000 1.0
C      1  0.5057990000000  0.4073380000000  0.5509110000000 1.0
C      1  0.5667240000000  0.5203990000000  0.5282630000000 1.0
C      1  0.4948810000000  0.4977060000000  0.4349010000000 1.0
C      1  0.5554630000000  0.5391820000000  0.4368880000000 1.0
C      1  0.4658710000000  0.5188620000000  0.5379820000000 1.0
C      1  0.4796350000000  0.4097630000000  0.4787870000000 1.0
C      1  0.5325280000000  0.4601020000000  0.4450730000000 1.0
C      1  0.5712880000000  0.5112070000000  0.4884100000000 1.0
C      1  0.4733470000000  0.4562290000000  0.5786620000000 1.0
C      1  0.4617590000000  0.4878560000000  0.5836720000000 1.0
C      1  0.5298300000000  0.4261440000000  0.4923370000000 1.0
C      1  0.5631180000000  0.5096520000000  0.4500120000000 1.0
C      1  0.4575700000000  0.5881830000000  0.5852380000000 1.0
C      1  0.5190410000000  0.4966420000000  0.5055660000000 1.0
C      1  0.5335280000000  0.4176820000000  0.4600130000000 1.0
C      1  0.4949730000000  0.4886500000000  0.5915780000000 1.0
C      1  0.4324800000000  0.5295680000000  0.4666130000000 1.0
C      1  0.4885590000000  0.5300630000000  0.5610320000000 1.0
C      1  0.4903370000000  0.4394910000000  0.4352590000000 1.0
C      1  0.5220660000000  0.4577120000000  0.5486740000000 1.0
C      1  0.4757910000000  0.5751410000000  0.4632490000000 1.0
C      1  0.5812330000000  0.4936960000000  0.5654230000000 1.0
C      1  0.4938350000000  0.4931550000000  0.4052600000000 1.0
C      1  0.5258850000000  0.5426610000000  0.4333540000000 1.0
C      1  0.5653910000000  0.5133490000000  0.4179570000000 1.0
C      1  0.4890260000000  0.5228720000000  0.5057930000000 1.0
C      1  0.4374280000000  0.5614850000000  0.5479080000000 1.0
C      1  0.4467510000000  0.5180140000000  0.5791260000000 1.0
C      1  0.4341990000000  0.4798690000000  0.4600610000000 1.0
C      1  0.5756110000000  0.5682830000000  0.4916130000000 1.0
C      1  0.5146080000000  0.5597060000000  0.4851850000000 1.0
C      1  0.5637470000000  0.4324700000000  0.4615230000000 1.0
C      1  0.4404920000000  0.4466440000000  0.4576300000000 1.0
C      1  0.4690420000000  0.5636880000000  0.5111890000000 1.0
C      1  0.4546350000000  0.4769530000000  0.4996020000000 1.0
C      1  0.5320450000000  0.4130640000000  0.5299180000000 1.0
C      1  0.4942940000000  0.4677810000000  0.5576120000000 1.0
C      1  0.5106060000000  0.4797430000000  0.4480340000000 1.0
C      1  0.5151000000000  0.4543740000000  0.4921410000000 1.0
C      1  0.5901680000000  0.5508280000000  0.5173410000000 1.0
C      1  0.4229440000000  0.4918500000000  0.5397640000000 1.0
C      1  0.5080140000000  0.4060020000000  0.5066500000000 1.0
C      1  0.4523080000000  0.4649070000000  0.3943750000000 1.0
C      1  0.5839430000000  0.4751310000000  0.4992610000000 1.0
C      1  0.4244310000000  0.5238030000000  0.5637460000000 1.0
C      1  0.4643870000000  0.5084310000000  0.4984410000000 1.0
C      1  0.4221160000000  0.5685550000000  0.5185920000000 1.0
C      1  0.4332930000000  0.4830920000000  0.5655620000000 1.0
C      1  0.5436910000000  0.4764790000000  0.5327420000000 1.0
C      1  0.4510700000000  0.5417950000000  0.5242010000000 1.0
C      1  0.4565030000000  0.5080300000000  0.4215090000000 1.0
C      1  0.4457050000000  0.4498550000000  0.5385880000000 1.0
C      1  0.5103020000000  0.3972410000000  0.4738120000000 1.0
C      1  0.5682680000000  0.5615300000000  0.4476590000000 1.0
C      1  0.5229780000000  0.4975590000000  0.5472710000000 1.0
C      1  0.4616790000000  0.4452330000000  0.5024820000000 1.0
C      1  0.5542940000000  0.4679950000000  0.4238040000000 1.0
C      1  0.4884560000000  0.5499150000000  0.4970480000000 1.0
C      1  0.5452300000000  0.5172120000000  0.5045070000000 1.0
C      1  0.4091170000000  0.5119900000000  0.5243460000000 1.0
C      1  0.4083040000000  0.5102160000000  0.4916700000000 1.0
C      1  0.5969990000000  0.4794880000000  0.5470400000000 1.0
C      1  0.4066710000000  0.5128200000000  0.4574240000000 1.0
C      1  0.5005490000000  0.5998340000000  0.5122310000000 1.0
C      1  0.4368880000000  0.5267800000000  0.4998110000000 1.0
C      1  0.4130320000000  0.5407290000000  0.5363820000000 1.0
C      1  0.4536630000000  0.5643080000000  0.5720100000000 1.0
C      1  0.4652270000000  0.4365270000000  0.5572150000000 1.0
C      1  0.5894920000000  0.5391230000000  0.4860820000000 1.0
C      1  0.5955710000000  0.5176240000000  0.5192090000000 1.0
C      1  0.6036720000000  0.5118540000000  0.4780100000000 1.0
C      1  0.5654300000000  0.5158120000000  0.5577470000000 1.0
C      1  0.5503910000000  0.5835770000000  0.4746260000000 1.0
C      1  0.5503480000000  0.5440370000000  0.5560240000000 1.0
C      1  0.5718400000000  0.4583770000000  0.4494490000000 1.0
C      1  0.5147940000000  0.5063620000000  0.5792040000000 1.0
C      1  0.5366930000000  0.5488060000000  0.5058790000000 1.0
C      1  0.4771090000000  0.4165540000000  0.5124610000000 1.0
C      1  0.5165600000000  0.4345140000000  0.4403540000000 1.0
C      1  0.4206430000000  0.4437510000000  0.5302080000000 1.0
C      1  0.5212830000000  0.4433190000000  0.5875960000000 1.0
C      1  0.5992690000000  0.4889220000000  0.5195930000000 1.0
C      1  0.5794880000000  0.4249540000000  0.5355240000000 1.0
C      1  0.4748940000000  0.5906320000000  0.5165160000000 1.0
C      1  0.5115450000000  0.5533310000000  0.4553160000000 1.0
C      1  0.4544820000000  0.4267530000000  0.4632160000000 1.0
C      1  0.5519920000000  0.5855820000000  0.5089070000000 1.0
C      1  0.5092620000000  0.5286930000000  0.4141050000000 1.0
C      1  0.5239290000000  0.5476030000000  0.5359020000000 1.0
C      1  0.4996710000000  0.4779380000000  0.4761390000000 1.0
C      1  0.5096570000000  0.5089870000000  0.4750820000000 1.0
C      1  0.4888040000000  0.4983630000000  0.5502790000000 1.0
C      1  0.4751450000000  0.4657440000000  0.5317690000000 1.0
C      1  0.5488370000000  0.4920560000000  0.4076800000000 1.0
C      1  0.3972700000000  0.4603330000000  0.4905910000000 1.0
C      1  0.4705500000000  0.4686810000000  0.4716280000000 1.0
C      1  0.5758440000000  0.4244620000000  0.4852380000000 1.0
C      1  0.4332020000000  0.5578940000000  0.4565370000000 1.0
C      1  0.5121810000000  0.5203550000000  0.5267540000000 1.0
C      1  0.5420690000000  0.4676740000000  0.4771670000000 1.0
C      1  0.4798630000000  0.4161470000000  0.5434620000000 1.0
C      1  0.5771780000000  0.4842020000000  0.4678240000000 1.0
C      1  0.4004070000000  0.4447340000000  0.5124690000000 1.0
C      1  0.4551980000000  0.5058200000000  0.4678300000000 1.0
C      1  0.4866790000000  0.4407070000000  0.4821790000000 1.0
C      1  0.5571800000000  0.4289510000000  0.5126790000000 1.0
C      1  0.5070060000000  0.4685110000000  0.5199340000000 1.0
C      1  0.4612840000000  0.6108750000000  0.5978120000000 1.0
C      1  0.4350720000000  0.5799700000000  0.4977850000000 1.0
C      1  0.5280750000000  0.4295400000000  0.5594490000000 1.0
C      1  0.5216360000000  0.5860270000000  0.5022550000000 1.0
C      1  0.5608480000000  0.5598920000000  0.5277650000000 1.0
C      1  0.4484130000000  0.5760210000000  0.4725820000000 1.0
C      1  0.5189150000000  0.5381420000000  0.5677740000000 1.0
C      1  0.4808790000000  0.5476140000000  0.4481770000000 1.0
C      1  0.4996850000000  0.5904240000000  0.4642960000000 1.0
C      1  0.4820480000000  0.5163130000000  0.4566390000000 1.0
C      1  0.5559640000000  0.4626490000000  0.5079430000000 1.0
C      1  0.4527070000000  0.4896250000000  0.5312090000000 1.0
C      1  0.4653740000000  0.5394020000000  0.5787880000000 1.0
C      1  0.4104320000000  0.4809740000000  0.4797170000000 1.0
C      1  0.4315740000000  0.5039930000000  0.4359830000000 1.0
C      1  0.5223390000000  0.5024650000000  0.3995150000000 1.0
C      1  0.5070500000000  0.4635930000000  0.5986140000000 1.0
C      1  0.4769750000000  0.5297250000000  0.4195230000000 1.0
C      1  0.5396510000000  0.4979790000000  0.4682530000000 1.0
END
