TITL C-2778431-5191-798 0.00218260775034606 125000 -659.502380379514 0 0 112 (C1) n - 1
REM
REM in /home/nfs/bkarasulu/CARBON/AIRSS/Generating-Clusters/REBO/Only-C1/SD-CG/HFTN-CG
REM
REM
REM
REM
REM
REM ./C.cell (11c1c37f851c82e70ff6c80c92926a4b)
REM
REM compiler GCC version 9.2.1 20190827 (Red Hat 9.2.1-1)
REM options -cpp -mtune=generic -march=x86-64 -g -O0 -fpre-include=/usr/include/finclude/math-vector-fortran.h
REM seed 247680574 2044548583 1679491136 695045027 -2119533140 1135937561 -938374312 581199340 -1122140438 -1085168383 283053858 1608204724 478567283 751771367 -1833952766 216106711 -1716585529 -1831450272 -916636912 395119655 -459127136 -177446541 1090279619 136896246 -1145419261 -1078340322 -316936671 -1930758250 1991712123 1675841077 1609433903 626653254 -372311580
REM
CELL 1.54180   50.00000   50.00000   50.00000   90.00000   90.00000   90.00000
LATT -1
SFAC C  
C      1  0.5166620000000  0.4678000000000  0.4946360000000 1.0
C      1  0.5425390000000  0.5033810000000  0.4315900000000 1.0
C      1  0.5394000000000  0.4302300000000  0.5332040000000 1.0
C      1  0.5487890000000  0.5172970000000  0.5721430000000 1.0
C      1  0.4292600000000  0.4456970000000  0.5063790000000 1.0
C      1  0.4959850000000  0.5261540000000  0.4613350000000 1.0
C      1  0.5011240000000  0.4122900000000  0.5141970000000 1.0
C      1  0.5078650000000  0.4739950000000  0.4075720000000 1.0
C      1  0.5172830000000  0.5567350000000  0.5667350000000 1.0
C      1  0.4899300000000  0.5283880000000  0.4094030000000 1.0
C      1  0.5290160000000  0.4769360000000  0.4262930000000 1.0
C      1  0.5700790000000  0.4441490000000  0.5314560000000 1.0
C      1  0.5088870000000  0.4840380000000  0.5775850000000 1.0
C      1  0.5835300000000  0.5358250000000  0.4794600000000 1.0
C      1  0.4994520000000  0.5315660000000  0.4934670000000 1.0
C      1  0.4206370000000  0.5056260000000  0.5476570000000 1.0
C      1  0.5314910000000  0.5331740000000  0.4340130000000 1.0
C      1  0.4800360000000  0.4796900000000  0.4049080000000 1.0
C      1  0.4968580000000  0.4398340000000  0.5543790000000 1.0
C      1  0.5812170000000  0.5290250000000  0.4498560000000 1.0
C      1  0.4392620000000  0.4795620000000  0.5915840000000 1.0
C      1  0.5177360000000  0.5682340000000  0.4472960000000 1.0
C      1  0.4044260000000  0.4906130000000  0.5036160000000 1.0
C      1  0.4641350000000  0.5681240000000  0.5576350000000 1.0
C      1  0.4933390000000  0.4468140000000  0.4540720000000 1.0
C      1  0.5272430000000  0.4279990000000  0.4451270000000 1.0
C      1  0.4856900000000  0.5098880000000  0.5099880000000 1.0
C      1  0.5695240000000  0.5031560000000  0.4449760000000 1.0
C      1  0.5588060000000  0.4692390000000  0.5957160000000 1.0
C      1  0.3937150000000  0.5179480000000  0.5078580000000 1.0
C      1  0.4854080000000  0.5881330000000  0.4921920000000 1.0
C      1  0.4907790000000  0.4697250000000  0.5413930000000 1.0
C      1  0.5739750000000  0.4575370000000  0.4813420000000 1.0
C      1  0.5044730000000  0.4152170000000  0.4611660000000 1.0
C      1  0.5244290000000  0.5711410000000  0.5301360000000 1.0
C      1  0.5424000000000  0.4502520000000  0.5796670000000 1.0
C      1  0.4957930000000  0.5723640000000  0.5602850000000 1.0
C      1  0.5803610000000  0.4263250000000  0.4789270000000 1.0
C      1  0.5558010000000  0.4907400000000  0.5435440000000 1.0
C      1  0.5943380000000  0.4963110000000  0.5089270000000 1.0
C      1  0.4459020000000  0.5126780000000  0.5312100000000 1.0
C      1  0.4623780000000  0.5074300000000  0.4399110000000 1.0
C      1  0.5711130000000  0.4821220000000  0.4616920000000 1.0
C      1  0.5672990000000  0.4922040000000  0.5752280000000 1.0
C      1  0.5331690000000  0.4560400000000  0.4452000000000 1.0
C      1  0.4651150000000  0.4142050000000  0.4987200000000 1.0
C      1  0.5068630000000  0.4851910000000  0.5183850000000 1.0
C      1  0.5558140000000  0.4886050000000  0.5157820000000 1.0
C      1  0.4201490000000  0.4823990000000  0.5268980000000 1.0
C      1  0.4396040000000  0.4709180000000  0.4387460000000 1.0
C      1  0.4381090000000  0.5163720000000  0.5005160000000 1.0
C      1  0.5856350000000  0.5234020000000  0.5052040000000 1.0
C      1  0.5008240000000  0.5616320000000  0.4997350000000 1.0
C      1  0.5640810000000  0.4615630000000  0.5570900000000 1.0
C      1  0.4099390000000  0.5299940000000  0.5300610000000 1.0
C      1  0.4743730000000  0.5210570000000  0.5401250000000 1.0
C      1  0.4740380000000  0.5392430000000  0.5650220000000 1.0
C      1  0.5466750000000  0.5597100000000  0.4314810000000 1.0
C      1  0.4210810000000  0.5273050000000  0.4744080000000 1.0
C      1  0.4509640000000  0.4288490000000  0.5181870000000 1.0
C      1  0.3952740000000  0.5321960000000  0.4829370000000 1.0
C      1  0.4643020000000  0.5420150000000  0.4430790000000 1.0
C      1  0.4137970000000  0.4802530000000  0.4775260000000 1.0
C      1  0.5671100000000  0.5597210000000  0.4712580000000 1.0
C      1  0.4680470000000  0.4469810000000  0.5375680000000 1.0
C      1  0.5403440000000  0.5688210000000  0.4709880000000 1.0
C      1  0.5408340000000  0.4993680000000  0.4948890000000 1.0
C      1  0.4977420000000  0.5290990000000  0.5875200000000 1.0
C      1  0.4598110000000  0.4928900000000  0.4994060000000 1.0
C      1  0.4487470000000  0.4687480000000  0.5198880000000 1.0
C      1  0.4259400000000  0.4916510000000  0.4531750000000 1.0
C      1  0.5392090000000  0.5216530000000  0.4633060000000 1.0
C      1  0.4663030000000  0.5222470000000  0.5918080000000 1.0
C      1  0.5148200000000  0.5010210000000  0.4727520000000 1.0
C      1  0.4670290000000  0.4425210000000  0.4365520000000 1.0
C      1  0.4600980000000  0.4623330000000  0.4155020000000 1.0
C      1  0.5639690000000  0.4256680000000  0.5031140000000 1.0
C      1  0.5331100000000  0.4320660000000  0.5011290000000 1.0
C      1  0.5303520000000  0.5708460000000  0.4966280000000 1.0
C      1  0.4432390000000  0.4442560000000  0.4597110000000 1.0
C      1  0.4542320000000  0.5783220000000  0.4923340000000 1.0
C      1  0.5306990000000  0.5298000000000  0.4954730000000 1.0
C      1  0.4560020000000  0.5706530000000  0.5256610000000 1.0
C      1  0.4810260000000  0.4896550000000  0.5639420000000 1.0
C      1  0.5006950000000  0.4390360000000  0.4928790000000 1.0
C      1  0.4988040000000  0.4738440000000  0.4665200000000 1.0
C      1  0.5254110000000  0.5282940000000  0.5497810000000 1.0
C      1  0.4730410000000  0.4944120000000  0.4688790000000 1.0
C      1  0.4224090000000  0.4525800000000  0.4803550000000 1.0
C      1  0.5043070000000  0.5069950000000  0.5447940000000 1.0
C      1  0.4732710000000  0.5059970000000  0.4116270000000 1.0
C      1  0.4854140000000  0.5670940000000  0.4466840000000 1.0
C      1  0.4718890000000  0.4342660000000  0.4749850000000 1.0
C      1  0.5783970000000  0.4671370000000  0.5089390000000 1.0
C      1  0.4924600000000  0.4012480000000  0.4839740000000 1.0
C      1  0.5394490000000  0.5413800000000  0.5223880000000 1.0
C      1  0.5188240000000  0.5100770000000  0.5846370000000 1.0
C      1  0.4650410000000  0.5278640000000  0.4737620000000 1.0
C      1  0.4352280000000  0.5239180000000  0.4474450000000 1.0
C      1  0.4491080000000  0.5470970000000  0.4942620000000 1.0
C      1  0.5427430000000  0.4662100000000  0.4727560000000 1.0
C      1  0.4596790000000  0.4959750000000  0.5835880000000 1.0
C      1  0.5156080000000  0.4569330000000  0.5746200000000 1.0
C      1  0.4301040000000  0.5487680000000  0.5225100000000 1.0
C      1  0.5450730000000  0.5636830000000  0.5554500000000 1.0
C      1  0.5626440000000  0.5415850000000  0.5548910000000 1.0
C      1  0.4900240000000  0.5724440000000  0.5282230000000 1.0
C      1  0.5023410000000  0.5344820000000  0.4326490000000 1.0
C      1  0.4721750000000  0.5857710000000  0.4640970000000 1.0
C      1  0.5717490000000  0.5356400000000  0.5266990000000 1.0
C      1  0.5128800000000  0.4204840000000  0.5383390000000 1.0
C      1  0.5743970000000  0.5519330000000  0.4328010000000 1.0
END
