TITL C-2778424-3986-951 -0.00244332208755618 125000 -543.636922422402 0 0 95 (C1) n - 1
REM
REM in /home/nfs/bkarasulu/CARBON/AIRSS/Generating-Clusters/REBO/Only-C1/SD-CG/HFTN-CG
REM
REM
REM
REM
REM
REM ./C.cell (11c1c37f851c82e70ff6c80c92926a4b)
REM
REM compiler GCC version 9.2.1 20190827 (Red Hat 9.2.1-1)
REM options -cpp -mtune=generic -march=x86-64 -g -O0 -fpre-include=/usr/include/finclude/math-vector-fortran.h
REM seed 90841048 -2004675885 -656768816 1578287579 308232728 410095223 745452241 1814425870 -609019680 -541543907 -1267303553 -271053423 -953963842 -1019161141 68646084 1856496783 1014523939 221032258 1789448216 -840640183 -2088805435 -1821188009 983540141 -1912484710 1082534888 212009126 717441890 -1461307051 860205593 -1861772410 62308132 -1271847941 1318559156
REM
CELL 1.54180   50.00000   50.00000   50.00000   90.00000   90.00000   90.00000
LATT -1
SFAC C  
C      1  0.4755530000000  0.5579270000000  0.5252270000000 1.0
C      1  0.5085510000000  0.5548830000000  0.5180130000000 1.0
C      1  0.5049270000000  0.5976050000000  0.4601590000000 1.0
C      1  0.4978620000000  0.4847770000000  0.4783240000000 1.0
C      1  0.5441310000000  0.5083600000000  0.4262510000000 1.0
C      1  0.5596490000000  0.4921180000000  0.5422410000000 1.0
C      1  0.4617880000000  0.5163580000000  0.4916420000000 1.0
C      1  0.5054930000000  0.5141260000000  0.4734820000000 1.0
C      1  0.4805200000000  0.4362200000000  0.5024800000000 1.0
C      1  0.4731110000000  0.5458400000000  0.4038450000000 1.0
C      1  0.4458810000000  0.5098950000000  0.4244940000000 1.0
C      1  0.5388230000000  0.4166210000000  0.4603430000000 1.0
C      1  0.4410560000000  0.5284620000000  0.4446280000000 1.0
C      1  0.4531220000000  0.4971020000000  0.5827500000000 1.0
C      1  0.5792900000000  0.5307560000000  0.5012250000000 1.0
C      1  0.4810330000000  0.4605560000000  0.5703720000000 1.0
C      1  0.5294020000000  0.4817020000000  0.4407640000000 1.0
C      1  0.4511740000000  0.4449630000000  0.5033050000000 1.0
C      1  0.4970730000000  0.5245060000000  0.5261740000000 1.0
C      1  0.5507770000000  0.5292710000000  0.4455860000000 1.0
C      1  0.5067820000000  0.4858520000000  0.5295740000000 1.0
C      1  0.5086090000000  0.5044180000000  0.6194480000000 1.0
C      1  0.4952050000000  0.5434280000000  0.4775480000000 1.0
C      1  0.4646030000000  0.5279180000000  0.5218710000000 1.0
C      1  0.5834860000000  0.4757940000000  0.4989210000000 1.0
C      1  0.5062800000000  0.6016690000000  0.4893720000000 1.0
C      1  0.4879940000000  0.4996290000000  0.5061880000000 1.0
C      1  0.5365410000000  0.5448700000000  0.5289240000000 1.0
C      1  0.5086810000000  0.4236550000000  0.4481640000000 1.0
C      1  0.5205550000000  0.4628650000000  0.5757160000000 1.0
C      1  0.5283080000000  0.4035060000000  0.5095970000000 1.0
C      1  0.5496410000000  0.4235700000000  0.4919440000000 1.0
C      1  0.5682870000000  0.4902020000000  0.4658270000000 1.0
C      1  0.5579000000000  0.4624940000000  0.5264270000000 1.0
C      1  0.4736800000000  0.5929220000000  0.4843070000000 1.0
C      1  0.5526930000000  0.4445060000000  0.4567270000000 1.0
C      1  0.4573710000000  0.5561530000000  0.4509130000000 1.0
C      1  0.5722930000000  0.4451680000000  0.5019990000000 1.0
C      1  0.4544450000000  0.4875640000000  0.4832500000000 1.0
C      1  0.4495380000000  0.5213390000000  0.5682590000000 1.0
C      1  0.4197250000000  0.4841440000000  0.5167200000000 1.0
C      1  0.4772800000000  0.5601840000000  0.4853350000000 1.0
C      1  0.5152400000000  0.4843410000000  0.5612860000000 1.0
C      1  0.5166120000000  0.4040850000000  0.4815990000000 1.0
C      1  0.5326040000000  0.4663810000000  0.4709920000000 1.0
C      1  0.4790580000000  0.4850860000000  0.5837480000000 1.0
C      1  0.5944570000000  0.5006060000000  0.5071370000000 1.0
C      1  0.5538730000000  0.5533930000000  0.5035940000000 1.0
C      1  0.5508850000000  0.4811380000000  0.4917590000000 1.0
C      1  0.3720900000000  0.4751440000000  0.5039130000000 1.0
C      1  0.5207750000000  0.4321810000000  0.5502400000000 1.0
C      1  0.3987400000000  0.4718240000000  0.5007480000000 1.0
C      1  0.5331300000000  0.4486160000000  0.5066710000000 1.0
C      1  0.5849680000000  0.5095500000000  0.5343150000000 1.0
C      1  0.5015760000000  0.5052360000000  0.5924690000000 1.0
C      1  0.5110980000000  0.4481650000000  0.4296290000000 1.0
C      1  0.5514660000000  0.5231870000000  0.5505260000000 1.0
C      1  0.4807770000000  0.4406470000000  0.5522390000000 1.0
C      1  0.4604170000000  0.5212020000000  0.4025910000000 1.0
C      1  0.5135810000000  0.5351920000000  0.5521820000000 1.0
C      1  0.4611970000000  0.4669880000000  0.4568910000000 1.0
C      1  0.4771350000000  0.5826650000000  0.4517890000000 1.0
C      1  0.5268220000000  0.5117070000000  0.5704180000000 1.0
C      1  0.4196830000000  0.5117530000000  0.5262500000000 1.0
C      1  0.4435060000000  0.4832450000000  0.4327820000000 1.0
C      1  0.5564580000000  0.4793850000000  0.4198740000000 1.0
C      1  0.5668830000000  0.4690490000000  0.4464180000000 1.0
C      1  0.4431900000000  0.5194910000000  0.5407340000000 1.0
C      1  0.5186120000000  0.5933160000000  0.5136380000000 1.0
C      1  0.5450020000000  0.5824610000000  0.5184680000000 1.0
C      1  0.5365170000000  0.4873300000000  0.5186260000000 1.0
C      1  0.4949920000000  0.5340400000000  0.5779630000000 1.0
C      1  0.5742570000000  0.5205350000000  0.4689390000000 1.0
C      1  0.4962450000000  0.5827240000000  0.5321150000000 1.0
C      1  0.5131060000000  0.4084060000000  0.5329110000000 1.0
C      1  0.4810870000000  0.4439630000000  0.4550390000000 1.0
C      1  0.4293910000000  0.4757240000000  0.4628070000000 1.0
C      1  0.4117620000000  0.4570740000000  0.4790470000000 1.0
C      1  0.4460280000000  0.4728160000000  0.5088590000000 1.0
C      1  0.5239720000000  0.5391490000000  0.4622990000000 1.0
C      1  0.4999180000000  0.4717230000000  0.4487800000000 1.0
C      1  0.4272620000000  0.5514710000000  0.4956400000000 1.0
C      1  0.4873450000000  0.4247270000000  0.5298290000000 1.0
C      1  0.4465170000000  0.5365420000000  0.4758740000000 1.0
C      1  0.4686670000000  0.5411710000000  0.5758520000000 1.0
C      1  0.4493060000000  0.5715920000000  0.4953890000000 1.0
C      1  0.4102600000000  0.5340970000000  0.5103670000000 1.0
C      1  0.4894820000000  0.4203010000000  0.4764100000000 1.0
C      1  0.5199100000000  0.4549430000000  0.5349470000000 1.0
C      1  0.4284020000000  0.4350810000000  0.4887320000000 1.0
C      1  0.4744670000000  0.5636360000000  0.4239250000000 1.0
C      1  0.5530230000000  0.5456430000000  0.4750510000000 1.0
C      1  0.5758570000000  0.5410870000000  0.5342940000000 1.0
C      1  0.5060220000000  0.4544230000000  0.4889100000000 1.0
C      1  0.5672560000000  0.5718660000000  0.5361620000000 1.0
END
