TITL C-2778428-5639-560 -0.00104752090820219 125000 -1054.63738397034 0 0 180 (C1) n - 1
REM
REM in /home/nfs/bkarasulu/CARBON/AIRSS/Generating-Clusters/REBO/Only-C1/SD-CG/HFTN-CG
REM
REM
REM
REM
REM
REM ./C.cell (11c1c37f851c82e70ff6c80c92926a4b)
REM
REM compiler GCC version 9.2.1 20190827 (Red Hat 9.2.1-1)
REM options -cpp -mtune=generic -march=x86-64 -g -O0 -fpre-include=/usr/include/finclude/math-vector-fortran.h
REM seed -1136219680 -1323451681 -23110021 -706884982 -1184365480 1960084628 426134758 -862582409 -374803118 572316087 328256510 -679292108 1024989269 2081771573 965969579 2122559413 -589355628 -1917395210 506008883 -1566868436 -1465032339 407119046 -427222665 1028013289 -728971278 -1195436637 715628727 1008301225 696222168 1716435750 1080918447 1337253500 -235445731
REM
CELL 1.54180   50.00000   50.00000   50.00000   90.00000   90.00000   90.00000
LATT -1
SFAC C  
C      1  0.5865670000000  0.5526680000000  0.5275710000000 1.0
C      1  0.4678260000000  0.6052780000000  0.4749080000000 1.0
C      1  0.4391290000000  0.4814740000000  0.4119420000000 1.0
C      1  0.5597580000000  0.4661760000000  0.4899810000000 1.0
C      1  0.4404960000000  0.4232120000000  0.5064940000000 1.0
C      1  0.4524030000000  0.5270770000000  0.4336070000000 1.0
C      1  0.4121530000000  0.5325880000000  0.4783070000000 1.0
C      1  0.4172710000000  0.4507130000000  0.5819610000000 1.0
C      1  0.4687900000000  0.5411800000000  0.4077230000000 1.0
C      1  0.5637920000000  0.4205260000000  0.4685290000000 1.0
C      1  0.5090820000000  0.5866050000000  0.5000180000000 1.0
C      1  0.5216470000000  0.5163250000000  0.6034910000000 1.0
C      1  0.5341530000000  0.5565450000000  0.4594110000000 1.0
C      1  0.5828920000000  0.4531560000000  0.4268460000000 1.0
C      1  0.5187050000000  0.5321150000000  0.3912910000000 1.0
C      1  0.4117830000000  0.5560370000000  0.4355540000000 1.0
C      1  0.5054940000000  0.4819060000000  0.5363050000000 1.0
C      1  0.4291190000000  0.4977080000000  0.5694350000000 1.0
C      1  0.5972770000000  0.5066220000000  0.4800080000000 1.0
C      1  0.5183070000000  0.4886650000000  0.5752200000000 1.0
C      1  0.4368780000000  0.5750090000000  0.4475550000000 1.0
C      1  0.5839870000000  0.4473070000000  0.4741440000000 1.0
C      1  0.4815890000000  0.4948320000000  0.3907710000000 1.0
C      1  0.5226250000000  0.5482130000000  0.5753540000000 1.0
C      1  0.4980000000000  0.5214080000000  0.4618140000000 1.0
C      1  0.5290350000000  0.4666320000000  0.5549370000000 1.0
C      1  0.5169160000000  0.5175600000000  0.5607430000000 1.0
C      1  0.4587680000000  0.5000410000000  0.5961590000000 1.0
C      1  0.4611840000000  0.5513550000000  0.4947080000000 1.0
C      1  0.5057290000000  0.5312410000000  0.4303080000000 1.0
C      1  0.4497520000000  0.4927510000000  0.4563960000000 1.0
C      1  0.4622950000000  0.5343100000000  0.4657850000000 1.0
C      1  0.4856700000000  0.4154690000000  0.5801370000000 1.0
C      1  0.6055920000000  0.5063180000000  0.5074430000000 1.0
C      1  0.4954560000000  0.4930210000000  0.4205460000000 1.0
C      1  0.5255270000000  0.4523170000000  0.4264660000000 1.0
C      1  0.5559950000000  0.5158320000000  0.5224070000000 1.0
C      1  0.4701300000000  0.5083790000000  0.4866840000000 1.0
C      1  0.5346940000000  0.3980350000000  0.4230150000000 1.0
C      1  0.4726680000000  0.4681080000000  0.4514890000000 1.0
C      1  0.4447670000000  0.4952570000000  0.4959560000000 1.0
C      1  0.5133050000000  0.4861580000000  0.6084660000000 1.0
C      1  0.5263820000000  0.5712900000000  0.5224140000000 1.0
C      1  0.5667010000000  0.5594350000000  0.4204780000000 1.0
C      1  0.4346190000000  0.4710670000000  0.5829610000000 1.0
C      1  0.4765960000000  0.5064150000000  0.4415140000000 1.0
C      1  0.5073110000000  0.4358230000000  0.4071100000000 1.0
C      1  0.5680990000000  0.5031940000000  0.4786630000000 1.0
C      1  0.4669450000000  0.5671560000000  0.5331450000000 1.0
C      1  0.5093400000000  0.4525440000000  0.4536540000000 1.0
C      1  0.4571260000000  0.4841290000000  0.5448720000000 1.0
C      1  0.4754190000000  0.4233110000000  0.5498790000000 1.0
C      1  0.5311690000000  0.5064190000000  0.3854330000000 1.0
C      1  0.4900250000000  0.4835590000000  0.4770450000000 1.0
C      1  0.5707790000000  0.5072660000000  0.4340730000000 1.0
C      1  0.5574060000000  0.4838040000000  0.5339270000000 1.0
C      1  0.4246040000000  0.5123900000000  0.4582400000000 1.0
C      1  0.5740200000000  0.3913310000000  0.5427270000000 1.0
C      1  0.5774310000000  0.5578570000000  0.4778380000000 1.0
C      1  0.4527780000000  0.4376620000000  0.4342580000000 1.0
C      1  0.5839220000000  0.5087810000000  0.5499570000000 1.0
C      1  0.5572740000000  0.5370970000000  0.4957470000000 1.0
C      1  0.5435440000000  0.4311030000000  0.5353620000000 1.0
C      1  0.4263340000000  0.5861780000000  0.4782980000000 1.0
C      1  0.4984580000000  0.4025940000000  0.5273960000000 1.0
C      1  0.5530130000000  0.5864600000000  0.5936350000000 1.0
C      1  0.4897620000000  0.5543720000000  0.5128940000000 1.0
C      1  0.5589200000000  0.4786740000000  0.5652010000000 1.0
C      1  0.5950590000000  0.4812670000000  0.5469650000000 1.0
C      1  0.4083770000000  0.4563850000000  0.5306120000000 1.0
C      1  0.5537050000000  0.4979890000000  0.4074930000000 1.0
C      1  0.4456740000000  0.5875210000000  0.5062620000000 1.0
C      1  0.4958420000000  0.5342720000000  0.5903130000000 1.0
C      1  0.5089000000000  0.4849100000000  0.4500460000000 1.0
C      1  0.4432020000000  0.5462990000000  0.5743310000000 1.0
C      1  0.5352090000000  0.5279310000000  0.4748500000000 1.0
C      1  0.4799110000000  0.4398860000000  0.4633350000000 1.0
C      1  0.5570000000000  0.4857900000000  0.4552450000000 1.0
C      1  0.5619920000000  0.4049020000000  0.4977280000000 1.0
C      1  0.5833200000000  0.5727330000000  0.5029690000000 1.0
C      1  0.5489000000000  0.4574490000000  0.4584880000000 1.0
C      1  0.5149350000000  0.4217180000000  0.5458890000000 1.0
C      1  0.5028320000000  0.4380300000000  0.5991710000000 1.0
C      1  0.4844840000000  0.3916230000000  0.4984330000000 1.0
C      1  0.4832070000000  0.5220640000000  0.5105890000000 1.0
C      1  0.4285550000000  0.5665690000000  0.5219320000000 1.0
C      1  0.4625330000000  0.4679560000000  0.6014000000000 1.0
C      1  0.4860240000000  0.5795840000000  0.5572230000000 1.0
C      1  0.4440860000000  0.4347940000000  0.5569200000000 1.0
C      1  0.5511280000000  0.5161950000000  0.5561160000000 1.0
C      1  0.5196490000000  0.4178290000000  0.5790080000000 1.0
C      1  0.4002830000000  0.4307810000000  0.5809820000000 1.0
C      1  0.5387410000000  0.5871420000000  0.5716650000000 1.0
C      1  0.4050130000000  0.5593650000000  0.4989210000000 1.0
C      1  0.4592740000000  0.4473520000000  0.4970090000000 1.0
C      1  0.5340960000000  0.4169390000000  0.4862720000000 1.0
C      1  0.4589730000000  0.5657010000000  0.4262070000000 1.0
C      1  0.4637660000000  0.4631760000000  0.4191730000000 1.0
C      1  0.4982320000000  0.6073370000000  0.5417240000000 1.0
C      1  0.4039040000000  0.5012580000000  0.5521940000000 1.0
C      1  0.4356360000000  0.4593180000000  0.5433660000000 1.0
C      1  0.4516740000000  0.4717620000000  0.5160810000000 1.0
C      1  0.4677370000000  0.3916450000000  0.4770310000000 1.0
C      1  0.5141390000000  0.4093550000000  0.4078940000000 1.0
C      1  0.5538310000000  0.5500820000000  0.5770240000000 1.0
C      1  0.4848370000000  0.5272770000000  0.5526950000000 1.0
C      1  0.5109980000000  0.4668660000000  0.4985220000000 1.0
C      1  0.4874230000000  0.4609690000000  0.3982560000000 1.0
C      1  0.4160580000000  0.4712400000000  0.4557010000000 1.0
C      1  0.5179130000000  0.5041670000000  0.5189330000000 1.0
C      1  0.5217380000000  0.5965710000000  0.4243100000000 1.0
C      1  0.4962130000000  0.4490330000000  0.5413860000000 1.0
C      1  0.4119040000000  0.4412420000000  0.5011810000000 1.0
C      1  0.4607550000000  0.4388570000000  0.5835730000000 1.0
C      1  0.4827700000000  0.4821270000000  0.5589170000000 1.0
C      1  0.5960900000000  0.5246310000000  0.5281110000000 1.0
C      1  0.4483970000000  0.4126680000000  0.5327820000000 1.0
C      1  0.5328190000000  0.5039920000000  0.4538860000000 1.0
C      1  0.5088400000000  0.5177930000000  0.4899550000000 1.0
C      1  0.5219450000000  0.6106820000000  0.5173450000000 1.0
C      1  0.4531060000000  0.5147490000000  0.5507520000000 1.0
C      1  0.5043000000000  0.5535860000000  0.5500550000000 1.0
C      1  0.5273970000000  0.4459980000000  0.4784640000000 1.0
C      1  0.5356490000000  0.4608490000000  0.5214000000000 1.0
C      1  0.4573190000000  0.4169240000000  0.4611480000000 1.0
C      1  0.5243560000000  0.5878590000000  0.5495360000000 1.0
C      1  0.4823840000000  0.5511860000000  0.4437650000000 1.0
C      1  0.5148080000000  0.5749800000000  0.4733910000000 1.0
C      1  0.5261030000000  0.4796080000000  0.4143540000000 1.0
C      1  0.4196870000000  0.4927850000000  0.4303330000000 1.0
C      1  0.4931450000000  0.4652290000000  0.6116940000000 1.0
C      1  0.4156950000000  0.5351280000000  0.5178570000000 1.0
C      1  0.5848120000000  0.4383160000000  0.5295390000000 1.0
C      1  0.4878110000000  0.4547040000000  0.5735290000000 1.0
C      1  0.4726290000000  0.5528210000000  0.5737240000000 1.0
C      1  0.4048250000000  0.5289070000000  0.5461660000000 1.0
C      1  0.4204880000000  0.5271190000000  0.4294170000000 1.0
C      1  0.3979220000000  0.4899480000000  0.5033510000000 1.0
C      1  0.5466370000000  0.4308170000000  0.5679510000000 1.0
C      1  0.4906070000000  0.4417410000000  0.4933950000000 1.0
C      1  0.5878310000000  0.4537060000000  0.5537670000000 1.0
C      1  0.5545060000000  0.4411120000000  0.4325690000000 1.0
C      1  0.5106580000000  0.4816550000000  0.3841530000000 1.0
C      1  0.5886840000000  0.4567270000000  0.5052660000000 1.0
C      1  0.5369910000000  0.5706580000000  0.4296650000000 1.0
C      1  0.5943540000000  0.4639000000000  0.4499240000000 1.0
C      1  0.5809100000000  0.5634270000000  0.4512940000000 1.0
C      1  0.4670580000000  0.6010110000000  0.5296110000000 1.0
C      1  0.4284450000000  0.4422260000000  0.4505080000000 1.0
C      1  0.4258860000000  0.5517040000000  0.5524980000000 1.0
C      1  0.4988480000000  0.5996570000000  0.4345110000000 1.0
C      1  0.4876530000000  0.5032700000000  0.5836830000000 1.0
C      1  0.4793460000000  0.5920470000000  0.5006730000000 1.0
C      1  0.4424060000000  0.4678900000000  0.4775830000000 1.0
C      1  0.4888960000000  0.5273180000000  0.3942590000000 1.0
C      1  0.5173810000000  0.5379350000000  0.5233930000000 1.0
C      1  0.5668800000000  0.5575890000000  0.5536760000000 1.0
C      1  0.5529790000000  0.5558350000000  0.5226770000000 1.0
C      1  0.5376850000000  0.5504390000000  0.4036970000000 1.0
C      1  0.5489240000000  0.6122700000000  0.5150870000000 1.0
C      1  0.4911970000000  0.5792380000000  0.4555880000000 1.0
C      1  0.5709770000000  0.5976230000000  0.5084450000000 1.0
C      1  0.4020470000000  0.4677360000000  0.4853770000000 1.0
C      1  0.4621290000000  0.5740620000000  0.4694120000000 1.0
C      1  0.5534290000000  0.4107170000000  0.4382780000000 1.0
C      1  0.4042630000000  0.5630080000000  0.4665150000000 1.0
C      1  0.3955960000000  0.4823560000000  0.5313390000000 1.0
C      1  0.4393450000000  0.5218050000000  0.5876090000000 1.0
C      1  0.5540990000000  0.5362060000000  0.4405250000000 1.0
C      1  0.4568270000000  0.5364120000000  0.5256880000000 1.0
C      1  0.5959430000000  0.4930030000000  0.4519290000000 1.0
C      1  0.4275020000000  0.4241190000000  0.4760640000000 1.0
C      1  0.5331290000000  0.5173610000000  0.4254130000000 1.0
C      1  0.4194520000000  0.5101660000000  0.4998320000000 1.0
C      1  0.5469880000000  0.5204300000000  0.5897500000000 1.0
C      1  0.6037700000000  0.4800340000000  0.5186900000000 1.0
C      1  0.5059160000000  0.4161040000000  0.4984050000000 1.0
C      1  0.5673490000000  0.4126890000000  0.5258120000000 1.0
C      1  0.5438050000000  0.4944150000000  0.4989610000000 1.0
C      1  0.5665280000000  0.4498290000000  0.5750350000000 1.0
END
