TITL C-2778436-5916-1204 -0.00517367532265806 125000 -915.133802007323 0 0 156 (C1) n - 1
REM
REM in /home/nfs/bkarasulu/CARBON/AIRSS/Generating-Clusters/REBO/Only-C1/SD-CG/HFTN-CG
REM
REM
REM
REM
REM
REM ./C.cell (11c1c37f851c82e70ff6c80c92926a4b)
REM
REM compiler GCC version 9.2.1 20190827 (Red Hat 9.2.1-1)
REM options -cpp -mtune=generic -march=x86-64 -g -O0 -fpre-include=/usr/include/finclude/math-vector-fortran.h
REM seed -1441199798 -1809583561 -1050230204 1698425493 2114361118 349113326 748246788 1911472564 151362059 -417239603 -1233784036 1497048527 688788417 -658486698 754596351 -1497873752 -1964915008 510742430 -709887911 1210532010 -2011658171 2064783331 -759537617 -539420608 -593221841 1195826853 -237945221 -1641962740 -721411685 -27305520 1338968828 -725112604 -1875301617
REM
CELL 1.54180   50.00000   50.00000   50.00000   90.00000   90.00000   90.00000
LATT -1
SFAC C  
C      1  0.5517480000000  0.4932840000000  0.5418210000000 1.0
C      1  0.4344420000000  0.4882000000000  0.5026230000000 1.0
C      1  0.4053480000000  0.5198920000000  0.5506680000000 1.0
C      1  0.4131040000000  0.4832340000000  0.5246960000000 1.0
C      1  0.4084850000000  0.5519710000000  0.5616240000000 1.0
C      1  0.4478420000000  0.4481520000000  0.4446310000000 1.0
C      1  0.5573130000000  0.5305180000000  0.5031880000000 1.0
C      1  0.4735880000000  0.4802070000000  0.4179870000000 1.0
C      1  0.4362400000000  0.5930410000000  0.5226900000000 1.0
C      1  0.4864260000000  0.5964790000000  0.5285150000000 1.0
C      1  0.5857880000000  0.4930580000000  0.5453060000000 1.0
C      1  0.5059620000000  0.4992500000000  0.5472000000000 1.0
C      1  0.5291970000000  0.4192210000000  0.5398830000000 1.0
C      1  0.4760510000000  0.4133220000000  0.5421050000000 1.0
C      1  0.5457940000000  0.5716920000000  0.5468370000000 1.0
C      1  0.5130400000000  0.5313450000000  0.5554460000000 1.0
C      1  0.5683790000000  0.5701300000000  0.5285730000000 1.0
C      1  0.5842410000000  0.4839820000000  0.4693470000000 1.0
C      1  0.5296750000000  0.5232350000000  0.5922160000000 1.0
C      1  0.5574520000000  0.4201950000000  0.5246020000000 1.0
C      1  0.4802890000000  0.5988770000000  0.4737670000000 1.0
C      1  0.5975830000000  0.5346770000000  0.4821740000000 1.0
C      1  0.5542540000000  0.4754090000000  0.4396920000000 1.0
C      1  0.5131090000000  0.4775300000000  0.4527650000000 1.0
C      1  0.4229610000000  0.5141690000000  0.4865860000000 1.0
C      1  0.4811990000000  0.5672510000000  0.5699180000000 1.0
C      1  0.5748980000000  0.4630870000000  0.5537710000000 1.0
C      1  0.4074310000000  0.4470270000000  0.5051460000000 1.0
C      1  0.4608390000000  0.4888280000000  0.5201360000000 1.0
C      1  0.4427950000000  0.5114000000000  0.4209720000000 1.0
C      1  0.4877360000000  0.5348300000000  0.5250300000000 1.0
C      1  0.5000890000000  0.4969550000000  0.4308460000000 1.0
C      1  0.4158380000000  0.4717150000000  0.5524150000000 1.0
C      1  0.4403620000000  0.4254940000000  0.5707870000000 1.0
C      1  0.6003990000000  0.5275710000000  0.5099400000000 1.0
C      1  0.4553300000000  0.5234230000000  0.5610260000000 1.0
C      1  0.5246700000000  0.5692780000000  0.5041940000000 1.0
C      1  0.5785440000000  0.4838420000000  0.5001380000000 1.0
C      1  0.4968660000000  0.4225370000000  0.4547640000000 1.0
C      1  0.4335830000000  0.5364720000000  0.5446160000000 1.0
C      1  0.5094120000000  0.4661740000000  0.5546410000000 1.0
C      1  0.4827270000000  0.5680810000000  0.4253190000000 1.0
C      1  0.4509850000000  0.4120450000000  0.5271860000000 1.0
C      1  0.5679160000000  0.4377340000000  0.5685760000000 1.0
C      1  0.5539000000000  0.4687990000000  0.4726850000000 1.0
C      1  0.5496890000000  0.5093140000000  0.4429340000000 1.0
C      1  0.4294390000000  0.4226910000000  0.5438340000000 1.0
C      1  0.5538420000000  0.5793960000000  0.4231660000000 1.0
C      1  0.5011870000000  0.4085080000000  0.5313460000000 1.0
C      1  0.5418250000000  0.5209340000000  0.5276360000000 1.0
C      1  0.5022530000000  0.4590010000000  0.6070460000000 1.0
C      1  0.5627270000000  0.5575970000000  0.5019240000000 1.0
C      1  0.5595430000000  0.5214250000000  0.5790850000000 1.0
C      1  0.4504880000000  0.4180680000000  0.4950820000000 1.0
C      1  0.4865660000000  0.4681110000000  0.4908240000000 1.0
C      1  0.5676550000000  0.5293900000000  0.5476920000000 1.0
C      1  0.5302300000000  0.4276220000000  0.4500810000000 1.0
C      1  0.5278050000000  0.5572140000000  0.4759910000000 1.0
C      1  0.5045380000000  0.5822380000000  0.4553990000000 1.0
C      1  0.5014920000000  0.5901360000000  0.4991140000000 1.0
C      1  0.5133760000000  0.5160610000000  0.5185370000000 1.0
C      1  0.4453060000000  0.4812450000000  0.4371490000000 1.0
C      1  0.3937240000000  0.5438700000000  0.4768860000000 1.0
C      1  0.5895550000000  0.4523230000000  0.4657010000000 1.0
C      1  0.5546270000000  0.4702000000000  0.5874350000000 1.0
C      1  0.5167720000000  0.5873700000000  0.5385680000000 1.0
C      1  0.5712590000000  0.4916990000000  0.4150150000000 1.0
C      1  0.5176980000000  0.5468560000000  0.5981930000000 1.0
C      1  0.4651010000000  0.5781930000000  0.4526470000000 1.0
C      1  0.5342560000000  0.4951670000000  0.4698430000000 1.0
C      1  0.5354100000000  0.5365110000000  0.4426940000000 1.0
C      1  0.5862750000000  0.5137770000000  0.4603820000000 1.0
C      1  0.5130450000000  0.5003150000000  0.5806780000000 1.0
C      1  0.5729390000000  0.4200160000000  0.4980660000000 1.0
C      1  0.5134140000000  0.4491230000000  0.4683490000000 1.0
C      1  0.5610540000000  0.5410950000000  0.4124130000000 1.0
C      1  0.4754290000000  0.4580420000000  0.5186080000000 1.0
C      1  0.5062650000000  0.4630200000000  0.3955190000000 1.0
C      1  0.5123170000000  0.4438170000000  0.6270420000000 1.0
C      1  0.4583720000000  0.5170660000000  0.4490570000000 1.0
C      1  0.5137550000000  0.4464740000000  0.5319960000000 1.0
C      1  0.5526210000000  0.4862250000000  0.5114920000000 1.0
C      1  0.5113290000000  0.5316270000000  0.4625380000000 1.0
C      1  0.4427280000000  0.4653000000000  0.4802480000000 1.0
C      1  0.4718960000000  0.4541080000000  0.4673030000000 1.0
C      1  0.5362600000000  0.4808640000000  0.5651680000000 1.0
C      1  0.5730640000000  0.4923590000000  0.5754910000000 1.0
C      1  0.4469170000000  0.5679880000000  0.5035040000000 1.0
C      1  0.4415040000000  0.5055240000000  0.5851200000000 1.0
C      1  0.5604050000000  0.5139400000000  0.4811380000000 1.0
C      1  0.4795340000000  0.4123600000000  0.4776880000000 1.0
C      1  0.5682750000000  0.4391070000000  0.4500950000000 1.0
C      1  0.4593000000000  0.4917540000000  0.4670500000000 1.0
C      1  0.5106360000000  0.5110360000000  0.4875570000000 1.0
C      1  0.4635130000000  0.4932700000000  0.6024410000000 1.0
C      1  0.5438350000000  0.4898120000000  0.4021710000000 1.0
C      1  0.4938520000000  0.4876880000000  0.6008990000000 1.0
C      1  0.5150630000000  0.4531210000000  0.5019920000000 1.0
C      1  0.3825530000000  0.4878090000000  0.5168760000000 1.0
C      1  0.4999030000000  0.5665510000000  0.5912890000000 1.0
C      1  0.5498940000000  0.4211680000000  0.5638670000000 1.0
C      1  0.4132530000000  0.5423350000000  0.4569420000000 1.0
C      1  0.4714660000000  0.4327540000000  0.5668850000000 1.0
C      1  0.4820970000000  0.4989700000000  0.4879530000000 1.0
C      1  0.5404530000000  0.5953720000000  0.5151290000000 1.0
C      1  0.4802670000000  0.5396780000000  0.5568030000000 1.0
C      1  0.4793870000000  0.4308130000000  0.5063270000000 1.0
C      1  0.5879910000000  0.5441300000000  0.5297520000000 1.0
C      1  0.3926600000000  0.4704870000000  0.4931600000000 1.0
C      1  0.5271260000000  0.5393340000000  0.4117060000000 1.0
C      1  0.4178260000000  0.4960770000000  0.5688010000000 1.0
C      1  0.4440470000000  0.5404010000000  0.5168390000000 1.0
C      1  0.4918090000000  0.4557070000000  0.5770940000000 1.0
C      1  0.5790230000000  0.5193420000000  0.4295650000000 1.0
C      1  0.5002440000000  0.4036530000000  0.5021110000000 1.0
C      1  0.5467910000000  0.4499510000000  0.4959170000000 1.0
C      1  0.4538250000000  0.4252970000000  0.4310210000000 1.0
C      1  0.4704120000000  0.5885730000000  0.5545150000000 1.0
C      1  0.4729870000000  0.5374300000000  0.4179710000000 1.0
C      1  0.4820670000000  0.4229950000000  0.4281070000000 1.0
C      1  0.5137160000000  0.5664010000000  0.4274760000000 1.0
C      1  0.4604510000000  0.5571610000000  0.4778170000000 1.0
C      1  0.5682480000000  0.4512530000000  0.5224820000000 1.0
C      1  0.4431350000000  0.5338720000000  0.4685940000000 1.0
C      1  0.5519420000000  0.4240040000000  0.4742220000000 1.0
C      1  0.4919900000000  0.4453830000000  0.4112950000000 1.0
C      1  0.4870530000000  0.4605420000000  0.4407940000000 1.0
C      1  0.5992970000000  0.4633430000000  0.5152680000000 1.0
C      1  0.4297470000000  0.4393840000000  0.4889050000000 1.0
C      1  0.5933770000000  0.4402620000000  0.4922310000000 1.0
C      1  0.4916500000000  0.4935900000000  0.3922580000000 1.0
C      1  0.5140210000000  0.5542380000000  0.5302770000000 1.0
C      1  0.4632090000000  0.5978990000000  0.5032890000000 1.0
C      1  0.4071170000000  0.4871620000000  0.4735210000000 1.0
C      1  0.4138980000000  0.4814780000000  0.4477750000000 1.0
C      1  0.5598350000000  0.5687230000000  0.4722060000000 1.0
C      1  0.5412290000000  0.5443000000000  0.5605460000000 1.0
C      1  0.4129900000000  0.4446520000000  0.5346110000000 1.0
C      1  0.4292830000000  0.5387500000000  0.4314260000000 1.0
C      1  0.3901120000000  0.5159610000000  0.5244800000000 1.0
C      1  0.4425690000000  0.5928660000000  0.5494950000000 1.0
C      1  0.4590000000000  0.4929960000000  0.5516630000000 1.0
C      1  0.4934940000000  0.5620920000000  0.4803860000000 1.0
C      1  0.4645620000000  0.4737510000000  0.5775680000000 1.0
C      1  0.4889760000000  0.5232260000000  0.4431560000000 1.0
C      1  0.5501280000000  0.5634060000000  0.4437000000000 1.0
C      1  0.5191970000000  0.5089300000000  0.4053720000000 1.0
C      1  0.4663840000000  0.5192430000000  0.5091770000000 1.0
C      1  0.3999110000000  0.5300460000000  0.5021280000000 1.0
C      1  0.4501320000000  0.5608260000000  0.4274880000000 1.0
C      1  0.6012710000000  0.4976490000000  0.5185460000000 1.0
C      1  0.4661340000000  0.5136830000000  0.3976410000000 1.0
C      1  0.4658780000000  0.4599370000000  0.5471460000000 1.0
C      1  0.5336910000000  0.4634700000000  0.4021180000000 1.0
C      1  0.5447880000000  0.4463310000000  0.4265940000000 1.0
C      1  0.5917160000000  0.5607850000000  0.4748470000000 1.0
END
