TITL C-2778435-5768-1280 0.00533945506476651 125000 -919.417295570799 0 0 157 (C1) n - 1
REM
REM in /home/nfs/bkarasulu/CARBON/AIRSS/Generating-Clusters/REBO/Only-C1/SD-CG/HFTN-CG
REM
REM
REM
REM
REM
REM ./C.cell (11c1c37f851c82e70ff6c80c92926a4b)
REM
REM compiler GCC version 9.2.1 20190827 (Red Hat 9.2.1-1)
REM options -cpp -mtune=generic -march=x86-64 -g -O0 -fpre-include=/usr/include/finclude/math-vector-fortran.h
REM seed 866934696 -1215128319 22903060 -1614235486 715315660 -90705174 -1776156354 1894979167 811261951 1607558737 573415764 -267190197 -267686228 1316599833 -1420855797 -290047157 -571389349 1420827651 1669220756 171970748 1038045414 178284491 -1335615765 -985661540 -498706406 103419908 -218394545 1620416640 -463342235 461579928 -873271947 -1277999866 54004607
REM
CELL 1.54180   50.00000   50.00000   50.00000   90.00000   90.00000   90.00000
LATT -1
SFAC C  
C      1  0.5061960000000  0.4949260000000  0.5253340000000 1.0
C      1  0.4617660000000  0.5057360000000  0.3985550000000 1.0
C      1  0.4699340000000  0.4616570000000  0.4838370000000 1.0
C      1  0.5776030000000  0.4387360000000  0.4950020000000 1.0
C      1  0.5135010000000  0.4681560000000  0.4805210000000 1.0
C      1  0.5849540000000  0.4537690000000  0.5239880000000 1.0
C      1  0.5179170000000  0.5174780000000  0.5060810000000 1.0
C      1  0.4666650000000  0.5822730000000  0.4779690000000 1.0
C      1  0.5515530000000  0.4257370000000  0.5352960000000 1.0
C      1  0.4417140000000  0.4947080000000  0.4232510000000 1.0
C      1  0.4950960000000  0.5059950000000  0.3996760000000 1.0
C      1  0.4593450000000  0.5623850000000  0.5242600000000 1.0
C      1  0.5051950000000  0.5587930000000  0.4208110000000 1.0
C      1  0.5251460000000  0.5831860000000  0.5587910000000 1.0
C      1  0.5025240000000  0.4738620000000  0.4031890000000 1.0
C      1  0.5548470000000  0.5831110000000  0.4687140000000 1.0
C      1  0.4505630000000  0.5955210000000  0.5042320000000 1.0
C      1  0.4894500000000  0.5304380000000  0.5183540000000 1.0
C      1  0.4736680000000  0.5788150000000  0.5756840000000 1.0
C      1  0.4492330000000  0.4954720000000  0.5449850000000 1.0
C      1  0.4776010000000  0.4842580000000  0.5330110000000 1.0
C      1  0.5629720000000  0.5160160000000  0.5792060000000 1.0
C      1  0.5171270000000  0.4458930000000  0.5331760000000 1.0
C      1  0.4042700000000  0.4668840000000  0.4980940000000 1.0
C      1  0.5439790000000  0.5482650000000  0.6039140000000 1.0
C      1  0.4502800000000  0.5038580000000  0.5840020000000 1.0
C      1  0.5656550000000  0.4967550000000  0.4306360000000 1.0
C      1  0.5073040000000  0.5762090000000  0.4433190000000 1.0
C      1  0.5889400000000  0.5207180000000  0.5292180000000 1.0
C      1  0.5564730000000  0.4766930000000  0.5813190000000 1.0
C      1  0.5238250000000  0.5869090000000  0.4711180000000 1.0
C      1  0.5268800000000  0.5616460000000  0.5348620000000 1.0
C      1  0.4649810000000  0.4381790000000  0.5345130000000 1.0
C      1  0.5265050000000  0.5528400000000  0.5847660000000 1.0
C      1  0.4421020000000  0.5088820000000  0.5080820000000 1.0
C      1  0.4688480000000  0.4006670000000  0.5050020000000 1.0
C      1  0.5009950000000  0.4657620000000  0.5911680000000 1.0
C      1  0.4435050000000  0.5261630000000  0.5355190000000 1.0
C      1  0.5365440000000  0.4488650000000  0.4321520000000 1.0
C      1  0.4169950000000  0.5259520000000  0.4664140000000 1.0
C      1  0.5103140000000  0.5163100000000  0.4775730000000 1.0
C      1  0.4793110000000  0.5451140000000  0.4192260000000 1.0
C      1  0.5516600000000  0.5463400000000  0.4371640000000 1.0
C      1  0.5715890000000  0.5317690000000  0.5512930000000 1.0
C      1  0.4287530000000  0.5697360000000  0.4795330000000 1.0
C      1  0.4303000000000  0.5538600000000  0.5475970000000 1.0
C      1  0.4751630000000  0.5235500000000  0.5738780000000 1.0
C      1  0.3958660000000  0.4976420000000  0.5060840000000 1.0
C      1  0.5387320000000  0.5095790000000  0.5954850000000 1.0
C      1  0.5939820000000  0.5091480000000  0.4653060000000 1.0
C      1  0.4851830000000  0.4396420000000  0.5562250000000 1.0
C      1  0.5171610000000  0.5139470000000  0.5741230000000 1.0
C      1  0.4814500000000  0.5704230000000  0.5062980000000 1.0
C      1  0.4741050000000  0.5274810000000  0.5441500000000 1.0
C      1  0.4534360000000  0.5783580000000  0.5528080000000 1.0
C      1  0.4783810000000  0.4417710000000  0.5076100000000 1.0
C      1  0.4917060000000  0.4472280000000  0.4308940000000 1.0
C      1  0.4778830000000  0.4004340000000  0.4401640000000 1.0
C      1  0.4104350000000  0.5463700000000  0.4869380000000 1.0
C      1  0.4551900000000  0.3849460000000  0.4849560000000 1.0
C      1  0.4466370000000  0.4116220000000  0.4452420000000 1.0
C      1  0.5528350000000  0.3855690000000  0.4508340000000 1.0
C      1  0.4272570000000  0.4230120000000  0.4913540000000 1.0
C      1  0.5521630000000  0.4739320000000  0.5135840000000 1.0
C      1  0.5497060000000  0.4402920000000  0.5107350000000 1.0
C      1  0.4905600000000  0.4787310000000  0.5019910000000 1.0
C      1  0.4465590000000  0.4196490000000  0.5156660000000 1.0
C      1  0.5047290000000  0.5925140000000  0.4959490000000 1.0
C      1  0.4232520000000  0.5145170000000  0.5757340000000 1.0
C      1  0.4297490000000  0.5705060000000  0.5116330000000 1.0
C      1  0.5407910000000  0.4830410000000  0.4872490000000 1.0
C      1  0.5277270000000  0.4696550000000  0.4148700000000 1.0
C      1  0.5431300000000  0.5368240000000  0.4675190000000 1.0
C      1  0.5455060000000  0.5265580000000  0.5145200000000 1.0
C      1  0.4656980000000  0.4379680000000  0.4464180000000 1.0
C      1  0.4273520000000  0.4720910000000  0.5452580000000 1.0
C      1  0.5104650000000  0.4942170000000  0.6073790000000 1.0
C      1  0.4634290000000  0.6015570000000  0.5299510000000 1.0
C      1  0.5220930000000  0.5549610000000  0.4819980000000 1.0
C      1  0.4953880000000  0.4169330000000  0.4954210000000 1.0
C      1  0.4221130000000  0.5422740000000  0.5756690000000 1.0
C      1  0.4243540000000  0.4692980000000  0.4289560000000 1.0
C      1  0.5905690000000  0.4821240000000  0.4672960000000 1.0
C      1  0.5629890000000  0.4629430000000  0.5443990000000 1.0
C      1  0.4915430000000  0.5638280000000  0.4683690000000 1.0
C      1  0.4894700000000  0.4376050000000  0.4695420000000 1.0
C      1  0.5818600000000  0.4133990000000  0.4797480000000 1.0
C      1  0.5177600000000  0.4419590000000  0.5008500000000 1.0
C      1  0.5257800000000  0.5167270000000  0.4064190000000 1.0
C      1  0.5101960000000  0.4174880000000  0.5510120000000 1.0
C      1  0.5593670000000  0.5575440000000  0.5456930000000 1.0
C      1  0.5224550000000  0.4976010000000  0.4550430000000 1.0
C      1  0.5386800000000  0.6045900000000  0.5278520000000 1.0
C      1  0.5137260000000  0.4366220000000  0.5789780000000 1.0
C      1  0.5407960000000  0.4416640000000  0.5589660000000 1.0
C      1  0.4486120000000  0.5302600000000  0.4182050000000 1.0
C      1  0.5908060000000  0.4701050000000  0.4946010000000 1.0
C      1  0.4295030000000  0.4351650000000  0.4305420000000 1.0
C      1  0.5613190000000  0.5753540000000  0.4428980000000 1.0
C      1  0.4572050000000  0.5044550000000  0.4474490000000 1.0
C      1  0.4720170000000  0.4740040000000  0.4047220000000 1.0
C      1  0.4971010000000  0.6004870000000  0.5638560000000 1.0
C      1  0.5054030000000  0.4678310000000  0.5564500000000 1.0
C      1  0.4762820000000  0.4942850000000  0.6043470000000 1.0
C      1  0.5299850000000  0.4746130000000  0.5785010000000 1.0
C      1  0.5252340000000  0.5395010000000  0.5560820000000 1.0
C      1  0.5726210000000  0.4924020000000  0.5579420000000 1.0
C      1  0.4896360000000  0.6106300000000  0.5368520000000 1.0
C      1  0.5062460000000  0.5768850000000  0.5864000000000 1.0
C      1  0.4414080000000  0.4745360000000  0.4848300000000 1.0
C      1  0.5947590000000  0.4186890000000  0.4121830000000 1.0
C      1  0.5785700000000  0.4233490000000  0.4334820000000 1.0
C      1  0.5100390000000  0.5561110000000  0.5114910000000 1.0
C      1  0.5938840000000  0.5547630000000  0.4871170000000 1.0
C      1  0.5645080000000  0.4483330000000  0.4375140000000 1.0
C      1  0.4354110000000  0.5379410000000  0.4457420000000 1.0
C      1  0.4360860000000  0.4021800000000  0.4717160000000 1.0
C      1  0.5679820000000  0.5680140000000  0.4894010000000 1.0
C      1  0.4293130000000  0.4781320000000  0.5151960000000 1.0
C      1  0.4999610000000  0.5009360000000  0.4324030000000 1.0
C      1  0.5758470000000  0.4736780000000  0.4446090000000 1.0
C      1  0.5049240000000  0.4025130000000  0.4440330000000 1.0
C      1  0.4715480000000  0.5189790000000  0.4943350000000 1.0
C      1  0.4723530000000  0.4844660000000  0.5659480000000 1.0
C      1  0.5485580000000  0.5079200000000  0.4715700000000 1.0
C      1  0.5043770000000  0.4708650000000  0.4478140000000 1.0
C      1  0.4624460000000  0.4667370000000  0.5923130000000 1.0
C      1  0.5578930000000  0.5866960000000  0.5361970000000 1.0
C      1  0.4067540000000  0.5049090000000  0.5543320000000 1.0
C      1  0.3998520000000  0.5150380000000  0.5282610000000 1.0
C      1  0.5287810000000  0.5423530000000  0.4171290000000 1.0
C      1  0.4799400000000  0.5227090000000  0.4414630000000 1.0
C      1  0.5531820000000  0.5509830000000  0.5067770000000 1.0
C      1  0.5118090000000  0.6083020000000  0.5184550000000 1.0
C      1  0.4106430000000  0.4501780000000  0.4535650000000 1.0
C      1  0.4107100000000  0.4452120000000  0.4812970000000 1.0
C      1  0.5971320000000  0.5397670000000  0.4632430000000 1.0
C      1  0.4107930000000  0.5438000000000  0.5210110000000 1.0
C      1  0.4578010000000  0.4981920000000  0.4730510000000 1.0
C      1  0.5263650000000  0.5077580000000  0.5438940000000 1.0
C      1  0.5918260000000  0.4935950000000  0.5191660000000 1.0
C      1  0.6002420000000  0.5407200000000  0.5115330000000 1.0
C      1  0.4398380000000  0.4522250000000  0.5885310000000 1.0
C      1  0.5548160000000  0.5001270000000  0.5325560000000 1.0
C      1  0.5746910000000  0.5252680000000  0.4419350000000 1.0
C      1  0.5424240000000  0.4947660000000  0.4150250000000 1.0
C      1  0.4784460000000  0.5512300000000  0.5916180000000 1.0
C      1  0.5740120000000  0.4039410000000  0.4544450000000 1.0
C      1  0.4866150000000  0.5335810000000  0.4685000000000 1.0
C      1  0.5260160000000  0.3841110000000  0.4463930000000 1.0
C      1  0.4542950000000  0.4568460000000  0.4207200000000 1.0
C      1  0.4240460000000  0.4560200000000  0.5663250000000 1.0
C      1  0.4933090000000  0.5232930000000  0.6027810000000 1.0
C      1  0.5150330000000  0.4323720000000  0.4475940000000 1.0
C      1  0.4493940000000  0.5591130000000  0.4602220000000 1.0
C      1  0.4899580000000  0.4363280000000  0.4022320000000 1.0
C      1  0.4195030000000  0.5008160000000  0.4837820000000 1.0
END
