TITL C-2778425-5191-811 -0.0052322787330763 125000 -880.751743352785 0 0 151 (C1) n - 1
REM
REM in /home/nfs/bkarasulu/CARBON/AIRSS/Generating-Clusters/REBO/Only-C1/SD-CG/HFTN-CG
REM
REM
REM
REM
REM
REM ./C.cell (11c1c37f851c82e70ff6c80c92926a4b)
REM
REM compiler GCC version 9.2.1 20190827 (Red Hat 9.2.1-1)
REM options -cpp -mtune=generic -march=x86-64 -g -O0 -fpre-include=/usr/include/finclude/math-vector-fortran.h
REM seed 354740578 -791102010 1610587393 -2039587970 1482066138 -1362962703 -1252642113 878581869 -2106000896 -496307624 -367249978 2086894034 -1601126900 1245155760 -1508901631 -619118139 1632449652 1834096223 -628088802 1041050000 -1385199056 -1835105016 -166697644 470975080 -470622484 -1636919072 393513000 -603741538 1991821745 -1864548511 1985639682 1231693019 1452933203
REM
CELL 1.54180   50.00000   50.00000   50.00000   90.00000   90.00000   90.00000
LATT -1
SFAC C  
C      1  0.5904770000000  0.4277490000000  0.4993190000000 1.0
C      1  0.4724650000000  0.5622040000000  0.5611330000000 1.0
C      1  0.5384240000000  0.4670310000000  0.5641060000000 1.0
C      1  0.5242570000000  0.4247440000000  0.4356140000000 1.0
C      1  0.5326390000000  0.5296710000000  0.4118940000000 1.0
C      1  0.5086050000000  0.4993810000000  0.4766210000000 1.0
C      1  0.4730190000000  0.5557840000000  0.4445040000000 1.0
C      1  0.5529710000000  0.4189820000000  0.4444450000000 1.0
C      1  0.4366780000000  0.4513880000000  0.4495720000000 1.0
C      1  0.5108540000000  0.5144620000000  0.5071330000000 1.0
C      1  0.4141170000000  0.4529180000000  0.5210810000000 1.0
C      1  0.5794800000000  0.5101760000000  0.4770480000000 1.0
C      1  0.5077640000000  0.4363890000000  0.5413620000000 1.0
C      1  0.4408830000000  0.5392650000000  0.5305860000000 1.0
C      1  0.4905340000000  0.5581690000000  0.4241030000000 1.0
C      1  0.5180520000000  0.5218420000000  0.4404650000000 1.0
C      1  0.4953500000000  0.4165230000000  0.4770210000000 1.0
C      1  0.5286990000000  0.5956460000000  0.5194160000000 1.0
C      1  0.4801890000000  0.5600090000000  0.4760860000000 1.0
C      1  0.5045130000000  0.4869320000000  0.5254170000000 1.0
C      1  0.4911200000000  0.4818630000000  0.5516600000000 1.0
C      1  0.5565640000000  0.5892650000000  0.5089270000000 1.0
C      1  0.4905300000000  0.4468320000000  0.4101460000000 1.0
C      1  0.5129220000000  0.5926330000000  0.4594410000000 1.0
C      1  0.4298980000000  0.4884150000000  0.4816960000000 1.0
C      1  0.5061070000000  0.3974940000000  0.5651390000000 1.0
C      1  0.5307330000000  0.4424120000000  0.5286970000000 1.0
C      1  0.4340790000000  0.5002590000000  0.5196720000000 1.0
C      1  0.6037970000000  0.4849780000000  0.4347430000000 1.0
C      1  0.5880210000000  0.5243000000000  0.5278190000000 1.0
C      1  0.4587590000000  0.5950150000000  0.5218770000000 1.0
C      1  0.4671570000000  0.5609720000000  0.5924680000000 1.0
C      1  0.5619460000000  0.5652610000000  0.4526420000000 1.0
C      1  0.5930510000000  0.5299450000000  0.4582850000000 1.0
C      1  0.5462230000000  0.5553350000000  0.5737100000000 1.0
C      1  0.5409000000000  0.5387040000000  0.5156900000000 1.0
C      1  0.5557050000000  0.4923060000000  0.4149480000000 1.0
C      1  0.5216700000000  0.5392760000000  0.5670190000000 1.0
C      1  0.6065030000000  0.5143630000000  0.5057320000000 1.0
C      1  0.4995920000000  0.4773800000000  0.4973810000000 1.0
C      1  0.5377730000000  0.5621620000000  0.4837100000000 1.0
C      1  0.5233580000000  0.4896480000000  0.5802370000000 1.0
C      1  0.5111740000000  0.4038540000000  0.5107870000000 1.0
C      1  0.4162450000000  0.5643410000000  0.5079370000000 1.0
C      1  0.4515500000000  0.4249100000000  0.4951740000000 1.0
C      1  0.5290870000000  0.4389100000000  0.5750240000000 1.0
C      1  0.4693720000000  0.4533870000000  0.5160010000000 1.0
C      1  0.5142370000000  0.4620540000000  0.4042670000000 1.0
C      1  0.4275890000000  0.4871150000000  0.5733280000000 1.0
C      1  0.4603700000000  0.4528530000000  0.5951780000000 1.0
C      1  0.5424230000000  0.5011980000000  0.5549670000000 1.0
C      1  0.5235310000000  0.4062720000000  0.4796690000000 1.0
C      1  0.4797650000000  0.5081100000000  0.5625410000000 1.0
C      1  0.4613420000000  0.4225780000000  0.5506570000000 1.0
C      1  0.4272440000000  0.5005550000000  0.4225440000000 1.0
C      1  0.5653220000000  0.5671350000000  0.5518960000000 1.0
C      1  0.4670070000000  0.4618520000000  0.5458530000000 1.0
C      1  0.5426880000000  0.4518460000000  0.4131850000000 1.0
C      1  0.4723590000000  0.4575860000000  0.4310330000000 1.0
C      1  0.6109840000000  0.4861120000000  0.4603090000000 1.0
C      1  0.5447060000000  0.3972510000000  0.5119550000000 1.0
C      1  0.4594570000000  0.5308050000000  0.6064320000000 1.0
C      1  0.4154840000000  0.4375260000000  0.5506010000000 1.0
C      1  0.4075570000000  0.5158280000000  0.4392720000000 1.0
C      1  0.4796480000000  0.4234110000000  0.4546610000000 1.0
C      1  0.5515640000000  0.4707510000000  0.5025050000000 1.0
C      1  0.5314720000000  0.4840120000000  0.4564970000000 1.0
C      1  0.5160860000000  0.5899130000000  0.5476390000000 1.0
C      1  0.5877660000000  0.5016210000000  0.4125340000000 1.0
C      1  0.5558280000000  0.4455240000000  0.4904190000000 1.0
C      1  0.5255440000000  0.5416760000000  0.4603690000000 1.0
C      1  0.4103340000000  0.5268970000000  0.5389870000000 1.0
C      1  0.5178220000000  0.5572950000000  0.4220420000000 1.0
C      1  0.5953520000000  0.4549160000000  0.4990670000000 1.0
C      1  0.5722790000000  0.4057300000000  0.4935270000000 1.0
C      1  0.4552560000000  0.5311410000000  0.4503760000000 1.0
C      1  0.4991110000000  0.6017190000000  0.4880010000000 1.0
C      1  0.5267110000000  0.4118740000000  0.5777990000000 1.0
C      1  0.5313070000000  0.5724520000000  0.4459820000000 1.0
C      1  0.5041190000000  0.5034300000000  0.5937750000000 1.0
C      1  0.5990940000000  0.4855690000000  0.4903750000000 1.0
C      1  0.5643190000000  0.5254180000000  0.4174960000000 1.0
C      1  0.5528110000000  0.5196930000000  0.4934270000000 1.0
C      1  0.4530030000000  0.4314750000000  0.4638560000000 1.0
C      1  0.5212710000000  0.5714830000000  0.5037570000000 1.0
C      1  0.4037750000000  0.5393960000000  0.5122430000000 1.0
C      1  0.4510880000000  0.4625870000000  0.4886650000000 1.0
C      1  0.4672590000000  0.5226920000000  0.4788230000000 1.0
C      1  0.4057270000000  0.4582270000000  0.4911920000000 1.0
C      1  0.5695810000000  0.5694060000000  0.4845360000000 1.0
C      1  0.4820550000000  0.5909140000000  0.5453920000000 1.0
C      1  0.5629520000000  0.5603100000000  0.5227340000000 1.0
C      1  0.4433210000000  0.5262480000000  0.5015450000000 1.0
C      1  0.4387720000000  0.4297450000000  0.5261600000000 1.0
C      1  0.4953640000000  0.4981330000000  0.4476400000000 1.0
C      1  0.4528690000000  0.5137850000000  0.4260320000000 1.0
C      1  0.5489960000000  0.4678050000000  0.5334240000000 1.0
C      1  0.5067520000000  0.5516670000000  0.5205230000000 1.0
C      1  0.4900100000000  0.5454740000000  0.6075890000000 1.0
C      1  0.4467840000000  0.4743570000000  0.4264330000000 1.0
C      1  0.4802470000000  0.5972130000000  0.4624240000000 1.0
C      1  0.5245760000000  0.5209790000000  0.5381330000000 1.0
C      1  0.4758710000000  0.4959840000000  0.4209710000000 1.0
C      1  0.5776930000000  0.4680700000000  0.4244960000000 1.0
C      1  0.4755360000000  0.4386840000000  0.5771440000000 1.0
C      1  0.4081780000000  0.4909150000000  0.4562930000000 1.0
C      1  0.5035600000000  0.5580870000000  0.5500350000000 1.0
C      1  0.4323390000000  0.5688910000000  0.4477730000000 1.0
C      1  0.4352310000000  0.5167550000000  0.5883450000000 1.0
C      1  0.4396630000000  0.5851450000000  0.4960560000000 1.0
C      1  0.5509170000000  0.4070030000000  0.4709300000000 1.0
C      1  0.5276060000000  0.4873320000000  0.4228140000000 1.0
C      1  0.4180890000000  0.5452720000000  0.4472140000000 1.0
C      1  0.4110050000000  0.4596370000000  0.4620450000000 1.0
C      1  0.4070870000000  0.4890290000000  0.5055320000000 1.0
C      1  0.5886060000000  0.5500300000000  0.5051430000000 1.0
C      1  0.4563810000000  0.5327250000000  0.5667370000000 1.0
C      1  0.4052740000000  0.5192470000000  0.4920630000000 1.0
C      1  0.5004620000000  0.4547500000000  0.5662830000000 1.0
C      1  0.4833850000000  0.4235220000000  0.5073740000000 1.0
C      1  0.4020580000000  0.5025690000000  0.5468440000000 1.0
C      1  0.5056850000000  0.5384450000000  0.4831310000000 1.0
C      1  0.5425700000000  0.4280020000000  0.5079300000000 1.0
C      1  0.4431890000000  0.4531850000000  0.5591410000000 1.0
C      1  0.5056560000000  0.5085370000000  0.4108830000000 1.0
C      1  0.4803200000000  0.5411070000000  0.5047500000000 1.0
C      1  0.4677030000000  0.5175650000000  0.5319620000000 1.0
C      1  0.4959420000000  0.4253360000000  0.4308370000000 1.0
C      1  0.6088370000000  0.5362190000000  0.4839420000000 1.0
C      1  0.4512890000000  0.4785960000000  0.5936940000000 1.0
C      1  0.4866490000000  0.4680730000000  0.4528490000000 1.0
C      1  0.4283960000000  0.5269100000000  0.4714220000000 1.0
C      1  0.5722370000000  0.4447160000000  0.4680640000000 1.0
C      1  0.5091860000000  0.5310060000000  0.5932640000000 1.0
C      1  0.4400410000000  0.5701850000000  0.5295440000000 1.0
C      1  0.4716090000000  0.5016190000000  0.5945720000000 1.0
C      1  0.5750970000000  0.5431380000000  0.4403780000000 1.0
C      1  0.5354760000000  0.4547450000000  0.4443070000000 1.0
C      1  0.4896550000000  0.6013350000000  0.5136400000000 1.0
C      1  0.5461560000000  0.4910070000000  0.4852890000000 1.0
C      1  0.5750860000000  0.4801150000000  0.5461450000000 1.0
C      1  0.4533420000000  0.5798930000000  0.4695190000000 1.0
C      1  0.4910070000000  0.4131520000000  0.5461200000000 1.0
C      1  0.4610430000000  0.4946760000000  0.4848300000000 1.0
C      1  0.4657250000000  0.4876260000000  0.5158110000000 1.0
C      1  0.5740160000000  0.5091850000000  0.5458550000000 1.0
C      1  0.4416390000000  0.5054750000000  0.5514050000000 1.0
C      1  0.4090530000000  0.4710820000000  0.5497310000000 1.0
C      1  0.4830200000000  0.4618230000000  0.4796670000000 1.0
C      1  0.5418260000000  0.5858260000000  0.5650790000000 1.0
C      1  0.5729130000000  0.4426740000000  0.4383860000000 1.0
END
