TITL C-2778426-5645-635 0.00111860829003756 125000 -186.346209162416 0 0 33 (C1) n - 1
REM
REM in /home/nfs/bkarasulu/CARBON/AIRSS/Generating-Clusters/REBO/Only-C1/SD-CG/HFTN-CG
REM
REM
REM
REM
REM
REM ./C.cell (11c1c37f851c82e70ff6c80c92926a4b)
REM
REM compiler GCC version 9.2.1 20190827 (Red Hat 9.2.1-1)
REM options -cpp -mtune=generic -march=x86-64 -g -O0 -fpre-include=/usr/include/finclude/math-vector-fortran.h
REM seed -1482579291 -2144358433 -2062944169 -1585233809 -200273940 -343213234 1295876057 -1552831611 1507975276 1946687781 -25894331 -1750224960 -496018651 508560538 1841765200 1915247949 1854243828 -915464378 182999904 -2073060334 261087099 856186495 1022227201 332665312 -890810549 -913506297 -1201462889 -1701872161 397385896 -937192053 1892406776 -938398980 -444535247
REM
CELL 1.54180   50.00000   50.00000   50.00000   90.00000   90.00000   90.00000
LATT -1
SFAC C  
C      1  0.5425280000000  0.4969360000000  0.5294540000000 1.0
C      1  0.4465350000000  0.4502000000000  0.4769090000000 1.0
C      1  0.5435530000000  0.4636020000000  0.4971120000000 1.0
C      1  0.4949120000000  0.4542380000000  0.4758270000000 1.0
C      1  0.4881080000000  0.5448930000000  0.4627180000000 1.0
C      1  0.5562010000000  0.5103290000000  0.4787190000000 1.0
C      1  0.4683680000000  0.4673830000000  0.4835480000000 1.0
C      1  0.5124330000000  0.4810940000000  0.5312550000000 1.0
C      1  0.4921130000000  0.5315100000000  0.5541300000000 1.0
C      1  0.4752310000000  0.5364600000000  0.5084240000000 1.0
C      1  0.4415690000000  0.5099140000000  0.4813260000000 1.0
C      1  0.5432140000000  0.5245680000000  0.5408030000000 1.0
C      1  0.4179520000000  0.4793070000000  0.5118050000000 1.0
C      1  0.5521590000000  0.4918790000000  0.4995770000000 1.0
C      1  0.5509940000000  0.4698580000000  0.5484430000000 1.0
C      1  0.4951150000000  0.4948500000000  0.4509500000000 1.0
C      1  0.4187590000000  0.4953560000000  0.4894110000000 1.0
C      1  0.5092300000000  0.4713070000000  0.4531090000000 1.0
C      1  0.4795530000000  0.5213930000000  0.4498760000000 1.0
C      1  0.5298910000000  0.5440520000000  0.5256220000000 1.0
C      1  0.5226950000000  0.5455620000000  0.4983490000000 1.0
C      1  0.5562760000000  0.5296200000000  0.5646020000000 1.0
C      1  0.4411810000000  0.4720620000000  0.5247580000000 1.0
C      1  0.4671410000000  0.4752180000000  0.5136890000000 1.0
C      1  0.4652650000000  0.4958280000000  0.4676110000000 1.0
C      1  0.4496350000000  0.5318700000000  0.4971160000000 1.0
C      1  0.4952760000000  0.5463980000000  0.4903240000000 1.0
C      1  0.5334010000000  0.4583630000000  0.5244720000000 1.0
C      1  0.4871650000000  0.4913510000000  0.5264850000000 1.0
C      1  0.4835870000000  0.5199440000000  0.5309580000000 1.0
C      1  0.5271790000000  0.4558090000000  0.4753670000000 1.0
C      1  0.5709190000000  0.5041730000000  0.4566740000000 1.0
C      1  0.5418630000000  0.5346710000000  0.4805780000000 1.0
END
