TITL C-2778432-5617-1196 -0.0236777425016714 125000 -189.088689882958 0 0 33 (C1) n - 1
REM
REM in /home/nfs/bkarasulu/CARBON/AIRSS/Generating-Clusters/REBO/Only-C1/SD-CG/HFTN-CG
REM
REM
REM
REM
REM
REM ./C.cell (11c1c37f851c82e70ff6c80c92926a4b)
REM
REM compiler GCC version 9.2.1 20190827 (Red Hat 9.2.1-1)
REM options -cpp -mtune=generic -march=x86-64 -g -O0 -fpre-include=/usr/include/finclude/math-vector-fortran.h
REM seed -766559829 -466259936 -1664982249 -1973270007 1887677502 221194051 -1185846887 -1182861496 1538901132 -456417470 -858252371 -304783638 1467058918 -1136003978 -1365633827 2018768982 319689792 -1800623317 1349514799 -243216801 -502340955 -96482207 -1777906392 1987098852 -1263182371 -1225529072 -623267200 1496800096 1196104933 1819641693 -1141500958 -1081892604 348525105
REM
CELL 1.54180   50.00000   50.00000   50.00000   90.00000   90.00000   90.00000
LATT -1
SFAC C  
C      1  0.5025030000000  0.5492150000000  0.4945940000000 1.0
C      1  0.5116550000000  0.5641130000000  0.5211280000000 1.0
C      1  0.4961170000000  0.5668260000000  0.5435480000000 1.0
C      1  0.4882270000000  0.4888070000000  0.5565710000000 1.0
C      1  0.4786630000000  0.5362820000000  0.4906780000000 1.0
C      1  0.4489880000000  0.4620180000000  0.4581560000000 1.0
C      1  0.4588950000000  0.5231640000000  0.5040380000000 1.0
C      1  0.5514200000000  0.5004630000000  0.4921200000000 1.0
C      1  0.4961080000000  0.4578010000000  0.5172220000000 1.0
C      1  0.4670380000000  0.4890450000000  0.5375810000000 1.0
C      1  0.5671930000000  0.5119120000000  0.4670650000000 1.0
C      1  0.5347420000000  0.5549220000000  0.4993690000000 1.0
C      1  0.4567900000000  0.4672090000000  0.4919490000000 1.0
C      1  0.5156160000000  0.4663410000000  0.4980990000000 1.0
C      1  0.5650570000000  0.4810580000000  0.4273810000000 1.0
C      1  0.4793610000000  0.4625750000000  0.4670550000000 1.0
C      1  0.5624380000000  0.4937410000000  0.5476630000000 1.0
C      1  0.5383110000000  0.4873400000000  0.5366690000000 1.0
C      1  0.3736330000000  0.4707210000000  0.4891140000000 1.0
C      1  0.4569750000000  0.5351370000000  0.5506430000000 1.0
C      1  0.5575780000000  0.5330560000000  0.4902210000000 1.0
C      1  0.4700010000000  0.4691880000000  0.5177910000000 1.0
C      1  0.4257140000000  0.4666500000000  0.4793270000000 1.0
C      1  0.3993130000000  0.4687140000000  0.4842880000000 1.0
C      1  0.4741910000000  0.5557610000000  0.5551250000000 1.0
C      1  0.5670530000000  0.5649210000000  0.4967950000000 1.0
C      1  0.5243400000000  0.4597280000000  0.4492130000000 1.0
C      1  0.5741730000000  0.5014650000000  0.4428820000000 1.0
C      1  0.4558010000000  0.5146270000000  0.5310120000000 1.0
C      1  0.5441490000000  0.4642860000000  0.4316370000000 1.0
C      1  0.5362010000000  0.4837420000000  0.5079680000000 1.0
C      1  0.5149690000000  0.4866620000000  0.5523710000000 1.0
C      1  0.5067870000000  0.4625120000000  0.4707310000000 1.0
END
