TITL C-2778426-5645-887 0.000463805509615185 125000 -1092.46408200035 0 0 187 (C1) n - 1
REM
REM in /home/nfs/bkarasulu/CARBON/AIRSS/Generating-Clusters/REBO/Only-C1/SD-CG/HFTN-CG
REM
REM
REM
REM
REM
REM ./C.cell (11c1c37f851c82e70ff6c80c92926a4b)
REM
REM compiler GCC version 9.2.1 20190827 (Red Hat 9.2.1-1)
REM options -cpp -mtune=generic -march=x86-64 -g -O0 -fpre-include=/usr/include/finclude/math-vector-fortran.h
REM seed 1150165346 1352986498 1851404854 -1181451275 -476745076 87564953 -1270191790 -1690474256 -2082354063 -818968330 -663384330 246895172 -100908709 1080946865 -1081123925 -1228952224 1293698878 419674593 -828067295 1591902270 289527491 221627512 -1217634807 -1359978164 -1788312303 225154109 2027465312 -947391295 -1573403654 -1657152630 991621160 341500424 -1653121860
REM
CELL 1.54180   50.00000   50.00000   50.00000   90.00000   90.00000   90.00000
LATT -1
SFAC C  
C      1  0.5030230000000  0.6094290000000  0.4912180000000 1.0
C      1  0.5638650000000  0.5343020000000  0.4989840000000 1.0
C      1  0.5145570000000  0.4778870000000  0.4591850000000 1.0
C      1  0.5540630000000  0.5958500000000  0.4787600000000 1.0
C      1  0.4403560000000  0.4394640000000  0.5803760000000 1.0
C      1  0.6137800000000  0.5430620000000  0.4648030000000 1.0
C      1  0.5331830000000  0.5494340000000  0.5353290000000 1.0
C      1  0.5225120000000  0.5864120000000  0.4846430000000 1.0
C      1  0.5702260000000  0.5468290000000  0.4679360000000 1.0
C      1  0.5069150000000  0.5134370000000  0.5665440000000 1.0
C      1  0.5334120000000  0.5918830000000  0.4524640000000 1.0
C      1  0.4756100000000  0.5152850000000  0.5749020000000 1.0
C      1  0.4851980000000  0.5461570000000  0.4838930000000 1.0
C      1  0.4910860000000  0.5566930000000  0.5448250000000 1.0
C      1  0.5883740000000  0.5728390000000  0.5050110000000 1.0
C      1  0.4261490000000  0.4937970000000  0.4801400000000 1.0
C      1  0.5852580000000  0.4464900000000  0.4724000000000 1.0
C      1  0.4665170000000  0.4961980000000  0.5321230000000 1.0
C      1  0.4902780000000  0.5019390000000  0.4136370000000 1.0
C      1  0.5098060000000  0.5378930000000  0.4464020000000 1.0
C      1  0.5061770000000  0.6033660000000  0.4421070000000 1.0
C      1  0.4676600000000  0.4711570000000  0.5098090000000 1.0
C      1  0.5554040000000  0.5656440000000  0.5430190000000 1.0
C      1  0.5484840000000  0.4270260000000  0.4700830000000 1.0
C      1  0.5597520000000  0.4152870000000  0.5254620000000 1.0
C      1  0.5394610000000  0.4124700000000  0.5526020000000 1.0
C      1  0.5700020000000  0.4539720000000  0.5875700000000 1.0
C      1  0.4200780000000  0.4541690000000  0.5601240000000 1.0
C      1  0.4950640000000  0.4627050000000  0.4934230000000 1.0
C      1  0.5957060000000  0.4724580000000  0.4857010000000 1.0
C      1  0.5921720000000  0.4952900000000  0.5704760000000 1.0
C      1  0.4600700000000  0.4605320000000  0.5905000000000 1.0
C      1  0.4751840000000  0.5926310000000  0.5522550000000 1.0
C      1  0.5137200000000  0.4486100000000  0.5853220000000 1.0
C      1  0.4338300000000  0.4980990000000  0.5375930000000 1.0
C      1  0.4721330000000  0.5370010000000  0.3816670000000 1.0
C      1  0.5934830000000  0.4639670000000  0.5680880000000 1.0
C      1  0.5537140000000  0.5161960000000  0.5434130000000 1.0
C      1  0.3827940000000  0.5103290000000  0.5182030000000 1.0
C      1  0.4588200000000  0.5539210000000  0.3996030000000 1.0
C      1  0.4764390000000  0.5465170000000  0.5869670000000 1.0
C      1  0.4120980000000  0.4287290000000  0.5305450000000 1.0
C      1  0.5727460000000  0.5310990000000  0.4169610000000 1.0
C      1  0.5964950000000  0.5047310000000  0.4321430000000 1.0
C      1  0.5727670000000  0.4497000000000  0.4471000000000 1.0
C      1  0.4565260000000  0.5881950000000  0.4378030000000 1.0
C      1  0.5624860000000  0.4250730000000  0.6032780000000 1.0
C      1  0.5366920000000  0.4305000000000  0.5103870000000 1.0
C      1  0.4842560000000  0.3999220000000  0.5246390000000 1.0
C      1  0.6108430000000  0.5302400000000  0.4903430000000 1.0
C      1  0.5283070000000  0.3842970000000  0.5077770000000 1.0
C      1  0.5639290000000  0.5678890000000  0.5715980000000 1.0
C      1  0.5392340000000  0.5239010000000  0.5685750000000 1.0
C      1  0.5175340000000  0.5059200000000  0.5967170000000 1.0
C      1  0.5370230000000  0.4564430000000  0.4163410000000 1.0
C      1  0.5907600000000  0.5365630000000  0.4438460000000 1.0
C      1  0.5158530000000  0.3938120000000  0.5364880000000 1.0
C      1  0.5305260000000  0.6120710000000  0.5264670000000 1.0
C      1  0.5057410000000  0.4250130000000  0.4422550000000 1.0
C      1  0.5368970000000  0.5533860000000  0.5761930000000 1.0
C      1  0.4853820000000  0.4628710000000  0.5726720000000 1.0
C      1  0.4632290000000  0.5790010000000  0.5264230000000 1.0
C      1  0.4504940000000  0.5339060000000  0.5089700000000 1.0
C      1  0.5001810000000  0.6116500000000  0.5420070000000 1.0
C      1  0.4600340000000  0.5505990000000  0.5440080000000 1.0
C      1  0.3719220000000  0.5108210000000  0.4921420000000 1.0
C      1  0.5009730000000  0.4354200000000  0.3910410000000 1.0
C      1  0.5542190000000  0.5118990000000  0.4466810000000 1.0
C      1  0.4221730000000  0.5034960000000  0.5782000000000 1.0
C      1  0.4492420000000  0.4666590000000  0.5527830000000 1.0
C      1  0.5969710000000  0.4568320000000  0.5407510000000 1.0
C      1  0.5254760000000  0.4985900000000  0.3951380000000 1.0
C      1  0.5080130000000  0.5587610000000  0.5916940000000 1.0
C      1  0.3882010000000  0.4856460000000  0.5375370000000 1.0
C      1  0.5836920000000  0.5012260000000  0.4609340000000 1.0
C      1  0.5438470000000  0.4345330000000  0.5782100000000 1.0
C      1  0.3966080000000  0.4962240000000  0.4417040000000 1.0
C      1  0.4347590000000  0.4268570000000  0.4492620000000 1.0
C      1  0.4815130000000  0.4054530000000  0.4398740000000 1.0
C      1  0.4839520000000  0.4699870000000  0.4228630000000 1.0
C      1  0.3817230000000  0.5266190000000  0.4715820000000 1.0
C      1  0.4791950000000  0.5157030000000  0.4817670000000 1.0
C      1  0.4697760000000  0.4104730000000  0.4664090000000 1.0
C      1  0.5036040000000  0.4500320000000  0.5467220000000 1.0
C      1  0.4847910000000  0.4084550000000  0.5635100000000 1.0
C      1  0.4613760000000  0.4712710000000  0.4557410000000 1.0
C      1  0.5343320000000  0.4994700000000  0.4703930000000 1.0
C      1  0.5056830000000  0.5809950000000  0.5294310000000 1.0
C      1  0.4170480000000  0.5119530000000  0.4560900000000 1.0
C      1  0.4038890000000  0.5439080000000  0.4757020000000 1.0
C      1  0.5683630000000  0.5831100000000  0.5237090000000 1.0
C      1  0.5106440000000  0.4191750000000  0.5158680000000 1.0
C      1  0.5865440000000  0.4330240000000  0.5234670000000 1.0
C      1  0.4584530000000  0.5110290000000  0.6105020000000 1.0
C      1  0.4410710000000  0.5256050000000  0.5916080000000 1.0
C      1  0.5375200000000  0.5654560000000  0.4386170000000 1.0
C      1  0.5997350000000  0.5471780000000  0.5107760000000 1.0
C      1  0.4571720000000  0.4901660000000  0.4838570000000 1.0
C      1  0.5799290000000  0.5326000000000  0.5292440000000 1.0
C      1  0.5050800000000  0.4695160000000  0.6066340000000 1.0
C      1  0.5403510000000  0.4600450000000  0.4674740000000 1.0
C      1  0.4144330000000  0.4262670000000  0.5000700000000 1.0
C      1  0.4314390000000  0.5100510000000  0.5069810000000 1.0
C      1  0.4848100000000  0.4846720000000  0.5514850000000 1.0
C      1  0.5501520000000  0.6018120000000  0.5109620000000 1.0
C      1  0.4926680000000  0.5205530000000  0.3888130000000 1.0
C      1  0.4252790000000  0.4539810000000  0.4451440000000 1.0
C      1  0.4888650000000  0.5818570000000  0.4284140000000 1.0
C      1  0.5204910000000  0.4754080000000  0.4985530000000 1.0
C      1  0.4441220000000  0.4698810000000  0.4261670000000 1.0
C      1  0.5930360000000  0.4839020000000  0.5238310000000 1.0
C      1  0.5697500000000  0.4867460000000  0.5901760000000 1.0
C      1  0.4452750000000  0.5914380000000  0.4672970000000 1.0
C      1  0.5374350000000  0.5436460000000  0.4639370000000 1.0
C      1  0.4326490000000  0.5405870000000  0.4584090000000 1.0
C      1  0.3996920000000  0.4971840000000  0.5650720000000 1.0
C      1  0.4471560000000  0.4489480000000  0.4977070000000 1.0
C      1  0.5723510000000  0.4235020000000  0.4938750000000 1.0
C      1  0.5488110000000  0.4844190000000  0.4104290000000 1.0
C      1  0.4174100000000  0.4572880000000  0.5031200000000 1.0
C      1  0.4564350000000  0.4176610000000  0.5021700000000 1.0
C      1  0.5838630000000  0.5785430000000  0.5865150000000 1.0
C      1  0.4951100000000  0.6238600000000  0.5125020000000 1.0
C      1  0.4765410000000  0.5840990000000  0.4752240000000 1.0
C      1  0.5926120000000  0.5075810000000  0.5445700000000 1.0
C      1  0.4002190000000  0.5322980000000  0.5247020000000 1.0
C      1  0.4716660000000  0.4499690000000  0.5366730000000 1.0
C      1  0.4362400000000  0.5577710000000  0.5061190000000 1.0
C      1  0.4900020000000  0.6112210000000  0.4646130000000 1.0
C      1  0.4200650000000  0.5258060000000  0.5451500000000 1.0
C      1  0.5631370000000  0.5049050000000  0.4850070000000 1.0
C      1  0.4386620000000  0.5395610000000  0.5626290000000 1.0
C      1  0.5219360000000  0.4270030000000  0.4140510000000 1.0
C      1  0.4086230000000  0.5505680000000  0.5032240000000 1.0
C      1  0.4540240000000  0.4819630000000  0.6130860000000 1.0
C      1  0.4984200000000  0.5312040000000  0.6074030000000 1.0
C      1  0.5324580000000  0.4028050000000  0.4807570000000 1.0
C      1  0.4681180000000  0.4413970000000  0.4129650000000 1.0
C      1  0.5478630000000  0.4308860000000  0.4362330000000 1.0
C      1  0.4131280000000  0.4827250000000  0.5162640000000 1.0
C      1  0.4786030000000  0.3933650000000  0.4924710000000 1.0
C      1  0.4732540000000  0.5764170000000  0.5746980000000 1.0
C      1  0.5066020000000  0.3838320000000  0.4846910000000 1.0
C      1  0.5459830000000  0.4565920000000  0.4993590000000 1.0
C      1  0.5745880000000  0.4605790000000  0.5080900000000 1.0
C      1  0.5232880000000  0.4678090000000  0.5377120000000 1.0
C      1  0.5773550000000  0.5754350000000  0.4785630000000 1.0
C      1  0.5562480000000  0.4782380000000  0.4433890000000 1.0
C      1  0.4884330000000  0.5182930000000  0.4429540000000 1.0
C      1  0.5275300000000  0.5075780000000  0.5027980000000 1.0
C      1  0.5103780000000  0.5578590000000  0.4206460000000 1.0
C      1  0.4444660000000  0.5855250000000  0.4986050000000 1.0
C      1  0.4882490000000  0.4913850000000  0.4596090000000 1.0
C      1  0.3972940000000  0.4547400000000  0.5399410000000 1.0
C      1  0.5170400000000  0.5556530000000  0.4864960000000 1.0
C      1  0.4970230000000  0.4395200000000  0.4685890000000 1.0
C      1  0.4551160000000  0.5243120000000  0.4389590000000 1.0
C      1  0.5061420000000  0.5292580000000  0.5395650000000 1.0
C      1  0.4607640000000  0.4963580000000  0.4248090000000 1.0
C      1  0.4636520000000  0.4436610000000  0.4708620000000 1.0
C      1  0.4531940000000  0.4918600000000  0.5744180000000 1.0
C      1  0.4875490000000  0.4313960000000  0.5002750000000 1.0
C      1  0.4861340000000  0.5740810000000  0.5036440000000 1.0
C      1  0.5366900000000  0.4909250000000  0.5311690000000 1.0
C      1  0.5333110000000  0.5380830000000  0.5062500000000 1.0
C      1  0.5759370000000  0.5006700000000  0.4083660000000 1.0
C      1  0.4435400000000  0.5760590000000  0.4141460000000 1.0
C      1  0.4627750000000  0.5563220000000  0.4611020000000 1.0
C      1  0.4359010000000  0.4216660000000  0.5516990000000 1.0
C      1  0.5649700000000  0.4983130000000  0.5160280000000 1.0
C      1  0.5435130000000  0.5360850000000  0.4252450000000 1.0
C      1  0.4568000000000  0.4650920000000  0.3945980000000 1.0
C      1  0.4754750000000  0.5252350000000  0.5263310000000 1.0
C      1  0.5092430000000  0.4231600000000  0.5627920000000 1.0
C      1  0.5201040000000  0.5291860000000  0.4047790000000 1.0
C      1  0.4577040000000  0.4209430000000  0.4298410000000 1.0
C      1  0.5481860000000  0.5036400000000  0.5931930000000 1.0
C      1  0.4881300000000  0.4607330000000  0.3842740000000 1.0
C      1  0.4644610000000  0.4183560000000  0.5415680000000 1.0
C      1  0.6034150000000  0.5020170000000  0.4873050000000 1.0
C      1  0.5135320000000  0.5725040000000  0.5617290000000 1.0
C      1  0.4718090000000  0.5524370000000  0.4295730000000 1.0
C      1  0.4900860000000  0.4990080000000  0.6145180000000 1.0
C      1  0.4324870000000  0.4174670000000  0.4774920000000 1.0
C      1  0.4096570000000  0.4729880000000  0.4593640000000 1.0
C      1  0.5096160000000  0.4582070000000  0.4355410000000 1.0
C      1  0.5066410000000  0.4828670000000  0.3826410000000 1.0
END
