TITL C-2778423-5760-1097 0.00129545824717078 125000 -605.45266850111 0 0 107 (C1) n - 1
REM
REM in /home/nfs/bkarasulu/CARBON/AIRSS/Generating-Clusters/REBO/Only-C1/SD-CG/HFTN-CG
REM
REM
REM
REM
REM
REM ./C.cell (11c1c37f851c82e70ff6c80c92926a4b)
REM
REM compiler GCC version 9.2.1 20190827 (Red Hat 9.2.1-1)
REM options -cpp -mtune=generic -march=x86-64 -g -O0 -fpre-include=/usr/include/finclude/math-vector-fortran.h
REM seed 897307442 -1809538673 1165060508 446984091 1636688160 -613480680 -643276186 652468113 -2085786288 18504378 792134900 131784391 -113544685 1245690510 -427406023 -1818764815 1906696131 693118486 2010408381 -559248113 -1013026944 -1043481997 1298959309 -1375235248 -27034131 -1524737027 -1060730192 1934019667 -386317526 530689914 -522376282 -2085766112 -894959260
REM
CELL 1.54180   50.00000   50.00000   50.00000   90.00000   90.00000   90.00000
LATT -1
SFAC C  
C      1  0.5621360000000  0.5444920000000  0.5437890000000 1.0
C      1  0.4789260000000  0.5495180000000  0.5796050000000 1.0
C      1  0.4076510000000  0.5108490000000  0.4708660000000 1.0
C      1  0.4309890000000  0.4881770000000  0.5357270000000 1.0
C      1  0.4876080000000  0.4734640000000  0.5894390000000 1.0
C      1  0.4911580000000  0.5519800000000  0.5089640000000 1.0
C      1  0.5382800000000  0.5591200000000  0.5002390000000 1.0
C      1  0.4975070000000  0.5256570000000  0.5660160000000 1.0
C      1  0.4986260000000  0.4628320000000  0.4429170000000 1.0
C      1  0.5821170000000  0.5037700000000  0.4755350000000 1.0
C      1  0.5374310000000  0.5294150000000  0.5292830000000 1.0
C      1  0.4541610000000  0.5771610000000  0.5152650000000 1.0
C      1  0.5345670000000  0.5104340000000  0.5690410000000 1.0
C      1  0.4313110000000  0.4676050000000  0.4709170000000 1.0
C      1  0.5538180000000  0.5451320000000  0.4559160000000 1.0
C      1  0.5054260000000  0.5006540000000  0.5819490000000 1.0
C      1  0.5425830000000  0.5687340000000  0.5297180000000 1.0
C      1  0.5111100000000  0.4361550000000  0.4511140000000 1.0
C      1  0.5297640000000  0.5048030000000  0.5080370000000 1.0
C      1  0.4825690000000  0.5056220000000  0.4580530000000 1.0
C      1  0.5714020000000  0.4519700000000  0.5044960000000 1.0
C      1  0.4943340000000  0.4313820000000  0.4941310000000 1.0
C      1  0.4869980000000  0.4839110000000  0.5168400000000 1.0
C      1  0.4442290000000  0.4762070000000  0.5634600000000 1.0
C      1  0.4550180000000  0.5125590000000  0.4861750000000 1.0
C      1  0.5093320000000  0.5446870000000  0.4068040000000 1.0
C      1  0.5117920000000  0.5702350000000  0.4595520000000 1.0
C      1  0.4529560000000  0.5409770000000  0.4672180000000 1.0
C      1  0.5625840000000  0.5559790000000  0.4814140000000 1.0
C      1  0.4554090000000  0.5544590000000  0.5563730000000 1.0
C      1  0.4167040000000  0.4623230000000  0.5075030000000 1.0
C      1  0.4438300000000  0.5190560000000  0.5423530000000 1.0
C      1  0.4384990000000  0.4549650000000  0.5311200000000 1.0
C      1  0.4935780000000  0.4330590000000  0.5235530000000 1.0
C      1  0.4580380000000  0.5236070000000  0.5716340000000 1.0
C      1  0.4074460000000  0.4946270000000  0.5132680000000 1.0
C      1  0.4858720000000  0.5827130000000  0.4496860000000 1.0
C      1  0.5671130000000  0.5126380000000  0.5310880000000 1.0
C      1  0.4584830000000  0.4475110000000  0.5574340000000 1.0
C      1  0.4834210000000  0.5864150000000  0.5274490000000 1.0
C      1  0.4545020000000  0.4936500000000  0.4423360000000 1.0
C      1  0.4572260000000  0.5255410000000  0.4308580000000 1.0
C      1  0.5846530000000  0.5353090000000  0.4893120000000 1.0
C      1  0.5609550000000  0.5171930000000  0.4537270000000 1.0
C      1  0.5160570000000  0.4763430000000  0.5615890000000 1.0
C      1  0.5594510000000  0.4467590000000  0.4669050000000 1.0
C      1  0.5708600000000  0.4414020000000  0.5368280000000 1.0
C      1  0.5533060000000  0.4860270000000  0.5749740000000 1.0
C      1  0.4877040000000  0.5901900000000  0.4979290000000 1.0
C      1  0.4411210000000  0.4393100000000  0.5009480000000 1.0
C      1  0.5319420000000  0.4864810000000  0.4058500000000 1.0
C      1  0.5640550000000  0.4847550000000  0.5115230000000 1.0
C      1  0.4781250000000  0.4560080000000  0.5328210000000 1.0
C      1  0.5804440000000  0.4712910000000  0.4777470000000 1.0
C      1  0.5389090000000  0.5398930000000  0.5677770000000 1.0
C      1  0.4877520000000  0.4161740000000  0.4580580000000 1.0
C      1  0.5344960000000  0.4997420000000  0.4559110000000 1.0
C      1  0.4898950000000  0.5293600000000  0.4763730000000 1.0
C      1  0.4562570000000  0.4818580000000  0.4803770000000 1.0
C      1  0.4189230000000  0.5249640000000  0.5234830000000 1.0
C      1  0.5162900000000  0.5332290000000  0.4948980000000 1.0
C      1  0.4546140000000  0.4479460000000  0.4598910000000 1.0
C      1  0.4294880000000  0.5542440000000  0.5092970000000 1.0
C      1  0.5201670000000  0.4171120000000  0.4849940000000 1.0
C      1  0.4977590000000  0.4831370000000  0.4676140000000 1.0
C      1  0.4481290000000  0.5659430000000  0.4833170000000 1.0
C      1  0.4327410000000  0.5175050000000  0.4531830000000 1.0
C      1  0.5440120000000  0.4585410000000  0.4152250000000 1.0
C      1  0.5418620000000  0.4438880000000  0.4387580000000 1.0
C      1  0.4810920000000  0.4586080000000  0.4794850000000 1.0
C      1  0.5483030000000  0.4822750000000  0.4807080000000 1.0
C      1  0.4804210000000  0.5128420000000  0.5049760000000 1.0
C      1  0.5412750000000  0.4360270000000  0.5250480000000 1.0
C      1  0.5130190000000  0.4369860000000  0.5665560000000 1.0
C      1  0.4261510000000  0.5251290000000  0.4918880000000 1.0
C      1  0.4872670000000  0.4822610000000  0.5505980000000 1.0
C      1  0.4666030000000  0.4950130000000  0.5744060000000 1.0
C      1  0.4636890000000  0.5418930000000  0.5265050000000 1.0
C      1  0.4636970000000  0.4231970000000  0.4812670000000 1.0
C      1  0.5212500000000  0.5153170000000  0.4066540000000 1.0
C      1  0.4865890000000  0.5102990000000  0.4255440000000 1.0
C      1  0.5126240000000  0.5428580000000  0.5333840000000 1.0
C      1  0.5108830000000  0.5568570000000  0.5705300000000 1.0
C      1  0.4787060000000  0.5437540000000  0.4474840000000 1.0
C      1  0.5570120000000  0.5184320000000  0.4932560000000 1.0
C      1  0.4673070000000  0.4637870000000  0.4348370000000 1.0
C      1  0.4940900000000  0.5602570000000  0.4253780000000 1.0
C      1  0.4885840000000  0.5220960000000  0.5353080000000 1.0
C      1  0.5152200000000  0.5225020000000  0.4393960000000 1.0
C      1  0.5161080000000  0.4278050000000  0.5397320000000 1.0
C      1  0.5475740000000  0.4295170000000  0.4937530000000 1.0
C      1  0.4698640000000  0.5876230000000  0.4747740000000 1.0
C      1  0.5193740000000  0.3950400000000  0.4704310000000 1.0
C      1  0.5116770000000  0.5722780000000  0.4893990000000 1.0
C      1  0.4873300000000  0.4476590000000  0.5748000000000 1.0
C      1  0.5368980000000  0.4664500000000  0.5183960000000 1.0
C      1  0.5115220000000  0.5747990000000  0.5426280000000 1.0
C      1  0.5378840000000  0.4555970000000  0.5751490000000 1.0
C      1  0.5125120000000  0.4770530000000  0.4973190000000 1.0
C      1  0.5193900000000  0.4834560000000  0.4340410000000 1.0
C      1  0.4810290000000  0.4840140000000  0.4140170000000 1.0
C      1  0.5270720000000  0.4565650000000  0.4733400000000 1.0
C      1  0.5345110000000  0.4914720000000  0.5401130000000 1.0
C      1  0.5683520000000  0.4591700000000  0.5602510000000 1.0
C      1  0.5265930000000  0.5495180000000  0.4481540000000 1.0
C      1  0.4054820000000  0.4817300000000  0.4817590000000 1.0
C      1  0.5765760000000  0.4912120000000  0.5522890000000 1.0
END
