TITL C-2778431-5191-1302 0.0031085231142146 125000 -1064.76029735684 0 0 180 (C1) n - 1
REM
REM in /home/nfs/bkarasulu/CARBON/AIRSS/Generating-Clusters/REBO/Only-C1/SD-CG/HFTN-CG
REM
REM
REM
REM
REM
REM ./C.cell (11c1c37f851c82e70ff6c80c92926a4b)
REM
REM compiler GCC version 9.2.1 20190827 (Red Hat 9.2.1-1)
REM options -cpp -mtune=generic -march=x86-64 -g -O0 -fpre-include=/usr/include/finclude/math-vector-fortran.h
REM seed 1230575751 -2090545728 -2122722118 -1008048286 -330242558 -901707194 -214315350 1875671191 -146415583 1619733333 1859899487 -381293575 821576051 -493032731 -757739387 879235611 691104947 -1099534050 496137953 -1353666368 1539218956 1825453787 -1932564401 -76542986 1895411142 1818804266 -1772198270 -453540642 -872195695 -1508163598 393346693 -2006795236 1728206833
REM
CELL 1.54180   50.00000   50.00000   50.00000   90.00000   90.00000   90.00000
LATT -1
SFAC C  
C      1  0.5037440000000  0.4337000000000  0.5257010000000 1.0
C      1  0.4750500000000  0.4156690000000  0.5582300000000 1.0
C      1  0.4919220000000  0.5718810000000  0.5286770000000 1.0
C      1  0.4411120000000  0.5555980000000  0.5672620000000 1.0
C      1  0.5009460000000  0.4332400000000  0.4492370000000 1.0
C      1  0.5811160000000  0.4136940000000  0.5002480000000 1.0
C      1  0.5663440000000  0.5585410000000  0.5104840000000 1.0
C      1  0.5405420000000  0.5426620000000  0.4438000000000 1.0
C      1  0.5755230000000  0.4957080000000  0.5690010000000 1.0
C      1  0.4657040000000  0.4533230000000  0.4317430000000 1.0
C      1  0.4514340000000  0.4572450000000  0.5752970000000 1.0
C      1  0.4841930000000  0.6110650000000  0.5280700000000 1.0
C      1  0.3934740000000  0.5138920000000  0.4866670000000 1.0
C      1  0.4874070000000  0.3966250000000  0.4738260000000 1.0
C      1  0.4865960000000  0.4580380000000  0.5363320000000 1.0
C      1  0.4989280000000  0.4480530000000  0.3934200000000 1.0
C      1  0.4372720000000  0.4807280000000  0.4777450000000 1.0
C      1  0.4977660000000  0.4929780000000  0.5205370000000 1.0
C      1  0.4735610000000  0.5151270000000  0.4036180000000 1.0
C      1  0.5864760000000  0.4079380000000  0.5275850000000 1.0
C      1  0.4930750000000  0.4818490000000  0.4714470000000 1.0
C      1  0.5264040000000  0.4147820000000  0.4357130000000 1.0
C      1  0.4961440000000  0.4450200000000  0.5903840000000 1.0
C      1  0.5383670000000  0.5738760000000  0.4189140000000 1.0
C      1  0.4582270000000  0.4073810000000  0.4609150000000 1.0
C      1  0.4582200000000  0.6015010000000  0.5241170000000 1.0
C      1  0.5893860000000  0.4405550000000  0.4917820000000 1.0
C      1  0.5581430000000  0.4320630000000  0.4515650000000 1.0
C      1  0.5566530000000  0.4739100000000  0.5290510000000 1.0
C      1  0.5449250000000  0.5692050000000  0.5566930000000 1.0
C      1  0.5105120000000  0.4786800000000  0.4329370000000 1.0
C      1  0.4708130000000  0.4371940000000  0.5762620000000 1.0
C      1  0.4027680000000  0.5344500000000  0.4756350000000 1.0
C      1  0.4235490000000  0.5227120000000  0.5131140000000 1.0
C      1  0.5134380000000  0.4498240000000  0.4221930000000 1.0
C      1  0.4827380000000  0.5406310000000  0.4210220000000 1.0
C      1  0.5097170000000  0.5172680000000  0.4433260000000 1.0
C      1  0.4886860000000  0.4704320000000  0.3795110000000 1.0
C      1  0.5820820000000  0.4462820000000  0.4654190000000 1.0
C      1  0.5537150000000  0.5231000000000  0.5417760000000 1.0
C      1  0.5185610000000  0.5697740000000  0.5638120000000 1.0
C      1  0.4875410000000  0.5754310000000  0.4969480000000 1.0
C      1  0.4505740000000  0.5575460000000  0.4650490000000 1.0
C      1  0.4988440000000  0.5452830000000  0.4725790000000 1.0
C      1  0.4588360000000  0.5286330000000  0.5563310000000 1.0
C      1  0.6059580000000  0.5288110000000  0.4511420000000 1.0
C      1  0.5133010000000  0.5433730000000  0.4234360000000 1.0
C      1  0.5445010000000  0.4402270000000  0.4215010000000 1.0
C      1  0.4678530000000  0.5178190000000  0.5288540000000 1.0
C      1  0.5392020000000  0.5966810000000  0.4789500000000 1.0
C      1  0.5966830000000  0.5175600000000  0.4754510000000 1.0
C      1  0.5241860000000  0.5953220000000  0.5270090000000 1.0
C      1  0.4211880000000  0.5739580000000  0.5260230000000 1.0
C      1  0.5428540000000  0.5125900000000  0.5970930000000 1.0
C      1  0.4665980000000  0.5061230000000  0.4542060000000 1.0
C      1  0.5276100000000  0.4904190000000  0.5082060000000 1.0
C      1  0.5604980000000  0.4661230000000  0.4098630000000 1.0
C      1  0.4508320000000  0.5133070000000  0.4273190000000 1.0
C      1  0.4759430000000  0.4345880000000  0.4686760000000 1.0
C      1  0.4254220000000  0.5294440000000  0.5524940000000 1.0
C      1  0.5465980000000  0.4028800000000  0.4610040000000 1.0
C      1  0.4752690000000  0.5372500000000  0.4534260000000 1.0
C      1  0.5209610000000  0.4333800000000  0.5716960000000 1.0
C      1  0.4097410000000  0.5490680000000  0.4469380000000 1.0
C      1  0.4141050000000  0.4912620000000  0.4560730000000 1.0
C      1  0.4325150000000  0.4275050000000  0.5412620000000 1.0
C      1  0.4383300000000  0.4637090000000  0.4204070000000 1.0
C      1  0.4648640000000  0.5507980000000  0.4920340000000 1.0
C      1  0.4139920000000  0.5153840000000  0.4423880000000 1.0
C      1  0.5614660000000  0.4966110000000  0.4026630000000 1.0
C      1  0.4693670000000  0.5332400000000  0.6095960000000 1.0
C      1  0.4795810000000  0.5245600000000  0.5789310000000 1.0
C      1  0.4266810000000  0.4192020000000  0.4658310000000 1.0
C      1  0.5148810000000  0.5044810000000  0.4148160000000 1.0
C      1  0.5681470000000  0.5155600000000  0.4260210000000 1.0
C      1  0.5642220000000  0.5653800000000  0.5378590000000 1.0
C      1  0.4343930000000  0.5397330000000  0.4288560000000 1.0
C      1  0.4850030000000  0.6143920000000  0.4601620000000 1.0
C      1  0.4853360000000  0.3975260000000  0.5018060000000 1.0
C      1  0.5609550000000  0.3967730000000  0.4875610000000 1.0
C      1  0.4968410000000  0.5157540000000  0.6201320000000 1.0
C      1  0.5223780000000  0.5782720000000  0.4428720000000 1.0
C      1  0.4440920000000  0.5821840000000  0.5486230000000 1.0
C      1  0.4205130000000  0.5635330000000  0.4753920000000 1.0
C      1  0.5050860000000  0.4574640000000  0.4835010000000 1.0
C      1  0.5568610000000  0.5204090000000  0.4824670000000 1.0
C      1  0.4802380000000  0.4767830000000  0.4434020000000 1.0
C      1  0.4802380000000  0.4955400000000  0.5486300000000 1.0
C      1  0.5106800000000  0.3949650000000  0.5209030000000 1.0
C      1  0.5220430000000  0.5676320000000  0.5153360000000 1.0
C      1  0.4633580000000  0.4884350000000  0.5738500000000 1.0
C      1  0.5007370000000  0.5953740000000  0.5516960000000 1.0
C      1  0.5163690000000  0.5356650000000  0.6682790000000 1.0
C      1  0.4286230000000  0.4450210000000  0.4435580000000 1.0
C      1  0.4794950000000  0.4333990000000  0.4091200000000 1.0
C      1  0.5890090000000  0.5373360000000  0.4989770000000 1.0
C      1  0.4248410000000  0.5817900000000  0.4992680000000 1.0
C      1  0.5587190000000  0.5805620000000  0.4665060000000 1.0
C      1  0.5388570000000  0.6102550000000  0.5072900000000 1.0
C      1  0.5867270000000  0.5364280000000  0.4315050000000 1.0
C      1  0.4925690000000  0.4692780000000  0.6103580000000 1.0
C      1  0.4345030000000  0.4524530000000  0.5303350000000 1.0
C      1  0.5352950000000  0.4831750000000  0.4505010000000 1.0
C      1  0.4447460000000  0.4880840000000  0.4072420000000 1.0
C      1  0.3813770000000  0.4855020000000  0.5016160000000 1.0
C      1  0.5992050000000  0.4886590000000  0.5237650000000 1.0
C      1  0.5200580000000  0.5153300000000  0.5749700000000 1.0
C      1  0.5985090000000  0.4646870000000  0.5061770000000 1.0
C      1  0.5349950000000  0.4407430000000  0.5188380000000 1.0
C      1  0.4645930000000  0.5993570000000  0.5634470000000 1.0
C      1  0.4524930000000  0.5233140000000  0.5035740000000 1.0
C      1  0.5650530000000  0.5296930000000  0.5929250000000 1.0
C      1  0.4833520000000  0.4414160000000  0.5004860000000 1.0
C      1  0.5178570000000  0.4917900000000  0.6071240000000 1.0
C      1  0.5611060000000  0.4914550000000  0.5008150000000 1.0
C      1  0.5055220000000  0.4120310000000  0.5499550000000 1.0
C      1  0.4618130000000  0.4094590000000  0.5110290000000 1.0
C      1  0.4576340000000  0.5601120000000  0.4260270000000 1.0
C      1  0.4934800000000  0.5370200000000  0.5047540000000 1.0
C      1  0.5128500000000  0.3963100000000  0.4608420000000 1.0
C      1  0.4781940000000  0.4815670000000  0.5006250000000 1.0
C      1  0.5088030000000  0.5069190000000  0.4685540000000 1.0
C      1  0.5483850000000  0.5118580000000  0.4519040000000 1.0
C      1  0.5709270000000  0.5490700000000  0.4723710000000 1.0
C      1  0.4472720000000  0.4528430000000  0.4704280000000 1.0
C      1  0.5253930000000  0.4627870000000  0.5895310000000 1.0
C      1  0.5759610000000  0.4527970000000  0.5463970000000 1.0
C      1  0.4424070000000  0.5321410000000  0.5922800000000 1.0
C      1  0.5371640000000  0.5156060000000  0.4007950000000 1.0
C      1  0.4554260000000  0.4114560000000  0.5384390000000 1.0
C      1  0.5831960000000  0.4731360000000  0.4577760000000 1.0
C      1  0.4444620000000  0.4275560000000  0.4935930000000 1.0
C      1  0.4990450000000  0.5417980000000  0.5352740000000 1.0
C      1  0.5438170000000  0.4583500000000  0.4677580000000 1.0
C      1  0.5040540000000  0.5417740000000  0.5672860000000 1.0
C      1  0.4653860000000  0.5820890000000  0.4479030000000 1.0
C      1  0.5896740000000  0.4796150000000  0.5505130000000 1.0
C      1  0.5073490000000  0.4664570000000  0.5540440000000 1.0
C      1  0.4034360000000  0.4640610000000  0.4648200000000 1.0
C      1  0.5639810000000  0.4778590000000  0.4377950000000 1.0
C      1  0.5409350000000  0.5606900000000  0.4961360000000 1.0
C      1  0.5401730000000  0.5463030000000  0.4039980000000 1.0
C      1  0.5452830000000  0.4846840000000  0.5790170000000 1.0
C      1  0.5345200000000  0.4522120000000  0.5485670000000 1.0
C      1  0.5167820000000  0.5181100000000  0.4955010000000 1.0
C      1  0.4977870000000  0.5921980000000  0.4435310000000 1.0
C      1  0.5340300000000  0.4622700000000  0.4981250000000 1.0
C      1  0.5036920000000  0.4898090000000  0.5698590000000 1.0
C      1  0.5686590000000  0.5603200000000  0.4409520000000 1.0
C      1  0.4111320000000  0.5483290000000  0.5302160000000 1.0
C      1  0.5149490000000  0.5140850000000  0.5406250000000 1.0
C      1  0.5821650000000  0.4261970000000  0.5473200000000 1.0
C      1  0.4996820000000  0.6179930000000  0.5049860000000 1.0
C      1  0.4790090000000  0.4966060000000  0.5995960000000 1.0
C      1  0.3988050000000  0.4588410000000  0.5142300000000 1.0
C      1  0.5773580000000  0.5273300000000  0.5633160000000 1.0
C      1  0.5446030000000  0.5253240000000  0.5138090000000 1.0
C      1  0.4590730000000  0.5005150000000  0.4836950000000 1.0
C      1  0.4139840000000  0.4727620000000  0.5416690000000 1.0
C      1  0.5404920000000  0.3851010000000  0.5077840000000 1.0
C      1  0.4598860000000  0.6040020000000  0.4736530000000 1.0
C      1  0.5075990000000  0.5956210000000  0.4872270000000 1.0
C      1  0.4699930000000  0.4899960000000  0.3873510000000 1.0
C      1  0.4153070000000  0.4825110000000  0.4980830000000 1.0
C      1  0.5263180000000  0.5573030000000  0.4682670000000 1.0
C      1  0.4261670000000  0.4759290000000  0.5710270000000 1.0
C      1  0.5074130000000  0.5265330000000  0.6461970000000 1.0
C      1  0.4136500000000  0.5029850000000  0.5400350000000 1.0
C      1  0.4134500000000  0.4417820000000  0.4885370000000 1.0
C      1  0.3914100000000  0.5116530000000  0.5192360000000 1.0
C      1  0.5233070000000  0.4322360000000  0.4742000000000 1.0
C      1  0.4470500000000  0.5992060000000  0.4979160000000 1.0
C      1  0.4654480000000  0.4194520000000  0.4332620000000 1.0
C      1  0.6008450000000  0.5182490000000  0.5214610000000 1.0
C      1  0.5849720000000  0.4923920000000  0.4786830000000 1.0
C      1  0.4353210000000  0.5053330000000  0.5825130000000 1.0
C      1  0.5412020000000  0.4938980000000  0.5487150000000 1.0
C      1  0.4600870000000  0.4596010000000  0.5172390000000 1.0
C      1  0.6022690000000  0.5314740000000  0.5459290000000 1.0
C      1  0.5280870000000  0.4156370000000  0.4998390000000 1.0
END
