TITL C-2778422-5617-394 -0.000316519743262645 125000 -617.854349998496 0 0 106 (C1) n - 1
REM
REM in /home/nfs/bkarasulu/CARBON/AIRSS/Generating-Clusters/REBO/Only-C1/SD-CG/HFTN-CG
REM
REM
REM
REM
REM
REM ./C.cell (11c1c37f851c82e70ff6c80c92926a4b)
REM
REM compiler GCC version 9.2.1 20190827 (Red Hat 9.2.1-1)
REM options -cpp -mtune=generic -march=x86-64 -g -O0 -fpre-include=/usr/include/finclude/math-vector-fortran.h
REM seed -1325382067 964499328 -305418564 -945212131 2015958212 -336271805 -830842065 -521226942 -1441549106 -31417403 1861040905 1972500493 -1026200260 -937477502 202626839 -1111427781 -586456106 851553854 -1818367639 -1169660434 1812161608 -857115597 42412908 22134247 -1441703402 446500628 785213836 1983970174 721289869 -1496400053 -1803024301 709658207 -1170787384
REM
CELL 1.54180   50.00000   50.00000   50.00000   90.00000   90.00000   90.00000
LATT -1
SFAC C  
C      1  0.4152580000000  0.4735050000000  0.5451970000000 1.0
C      1  0.4639750000000  0.4601340000000  0.5019450000000 1.0
C      1  0.4164380000000  0.5421850000000  0.4750270000000 1.0
C      1  0.5098910000000  0.5757040000000  0.4299130000000 1.0
C      1  0.4405990000000  0.5184520000000  0.4230390000000 1.0
C      1  0.4914650000000  0.5016290000000  0.5601710000000 1.0
C      1  0.4747320000000  0.5644680000000  0.5450870000000 1.0
C      1  0.5764920000000  0.5318270000000  0.5713260000000 1.0
C      1  0.4838320000000  0.4968660000000  0.4590780000000 1.0
C      1  0.5710440000000  0.5534000000000  0.5494310000000 1.0
C      1  0.4690030000000  0.4520380000000  0.4337680000000 1.0
C      1  0.5788590000000  0.5000160000000  0.4970790000000 1.0
C      1  0.5034370000000  0.5456210000000  0.4438980000000 1.0
C      1  0.4749770000000  0.4878450000000  0.4041980000000 1.0
C      1  0.5299200000000  0.4051670000000  0.5196920000000 1.0
C      1  0.4696010000000  0.5886830000000  0.5237510000000 1.0
C      1  0.4921150000000  0.5940290000000  0.4983110000000 1.0
C      1  0.4508570000000  0.5454490000000  0.4303420000000 1.0
C      1  0.4381560000000  0.4388790000000  0.4749890000000 1.0
C      1  0.5017370000000  0.4449170000000  0.5116140000000 1.0
C      1  0.4318340000000  0.4685360000000  0.4222230000000 1.0
C      1  0.5888190000000  0.4923280000000  0.5384410000000 1.0
C      1  0.5781930000000  0.5314630000000  0.4281600000000 1.0
C      1  0.5251500000000  0.4945190000000  0.4961260000000 1.0
C      1  0.5641980000000  0.4711700000000  0.4611080000000 1.0
C      1  0.4834080000000  0.4205380000000  0.4967250000000 1.0
C      1  0.5514240000000  0.5692060000000  0.5406880000000 1.0
C      1  0.4409280000000  0.4759780000000  0.5043540000000 1.0
C      1  0.4336800000000  0.4557470000000  0.4516190000000 1.0
C      1  0.5111910000000  0.5833760000000  0.4754080000000 1.0
C      1  0.5295470000000  0.4246140000000  0.4732190000000 1.0
C      1  0.4456830000000  0.5476910000000  0.4630170000000 1.0
C      1  0.4439770000000  0.5038760000000  0.4961870000000 1.0
C      1  0.4455240000000  0.5323370000000  0.5146870000000 1.0
C      1  0.5336810000000  0.4954460000000  0.4269540000000 1.0
C      1  0.5056470000000  0.5375480000000  0.5502960000000 1.0
C      1  0.5266050000000  0.4672100000000  0.5518500000000 1.0
C      1  0.4949300000000  0.4480350000000  0.6178280000000 1.0
C      1  0.5312800000000  0.4718400000000  0.5912450000000 1.0
C      1  0.5422820000000  0.5030380000000  0.5959400000000 1.0
C      1  0.4539620000000  0.5376410000000  0.5427560000000 1.0
C      1  0.4626390000000  0.5370990000000  0.4853550000000 1.0
C      1  0.4593280000000  0.5737260000000  0.4485300000000 1.0
C      1  0.4565210000000  0.4684250000000  0.5701920000000 1.0
C      1  0.6030980000000  0.4869050000000  0.5133120000000 1.0
C      1  0.5336420000000  0.5184380000000  0.4501560000000 1.0
C      1  0.4766240000000  0.5297680000000  0.5645800000000 1.0
C      1  0.5266350000000  0.5254870000000  0.4821680000000 1.0
C      1  0.4795770000000  0.4823450000000  0.5850450000000 1.0
C      1  0.4919030000000  0.4901950000000  0.5328630000000 1.0
C      1  0.5294360000000  0.5196340000000  0.5386770000000 1.0
C      1  0.5703440000000  0.5282610000000  0.5089030000000 1.0
C      1  0.4923990000000  0.5098820000000  0.4096870000000 1.0
C      1  0.5635870000000  0.5198360000000  0.5923230000000 1.0
C      1  0.4706990000000  0.5145650000000  0.5913630000000 1.0
C      1  0.4573650000000  0.5744980000000  0.4982050000000 1.0
C      1  0.5059810000000  0.4224690000000  0.4499620000000 1.0
C      1  0.5815490000000  0.5225570000000  0.5393660000000 1.0
C      1  0.4581030000000  0.4795000000000  0.4499590000000 1.0
C      1  0.5768870000000  0.5360060000000  0.4799330000000 1.0
C      1  0.4961950000000  0.5642450000000  0.5683870000000 1.0
C      1  0.5400480000000  0.4952550000000  0.5476660000000 1.0
C      1  0.5613860000000  0.4512570000000  0.4846830000000 1.0
C      1  0.5309740000000  0.3929930000000  0.5438200000000 1.0
C      1  0.5161400000000  0.5935040000000  0.4501570000000 1.0
C      1  0.4268650000000  0.5132770000000  0.4717630000000 1.0
C      1  0.4825070000000  0.4629730000000  0.4817960000000 1.0
C      1  0.5723310000000  0.4962820000000  0.4671610000000 1.0
C      1  0.5657930000000  0.5232430000000  0.4515890000000 1.0
C      1  0.4787960000000  0.4311150000000  0.4504940000000 1.0
C      1  0.5013550000000  0.5152760000000  0.4391990000000 1.0
C      1  0.5148790000000  0.4676240000000  0.4251530000000 1.0
C      1  0.5007530000000  0.4660960000000  0.5994350000000 1.0
C      1  0.4982420000000  0.5079240000000  0.5082580000000 1.0
C      1  0.4861940000000  0.4634560000000  0.4138860000000 1.0
C      1  0.4650380000000  0.4275050000000  0.4757350000000 1.0
C      1  0.4349780000000  0.4855870000000  0.5621690000000 1.0
C      1  0.5652270000000  0.4724390000000  0.5440270000000 1.0
C      1  0.5534240000000  0.4811540000000  0.4989040000000 1.0
C      1  0.4802140000000  0.5617140000000  0.4265740000000 1.0
C      1  0.4360660000000  0.5022720000000  0.4476890000000 1.0
C      1  0.5280970000000  0.4540390000000  0.4603180000000 1.0
C      1  0.5096460000000  0.5511480000000  0.4740660000000 1.0
C      1  0.5504930000000  0.4567780000000  0.5704620000000 1.0
C      1  0.5013310000000  0.5378970000000  0.5169930000000 1.0
C      1  0.5157970000000  0.4646790000000  0.4895540000000 1.0
C      1  0.5117810000000  0.4096630000000  0.4960400000000 1.0
C      1  0.4402110000000  0.5137300000000  0.5611390000000 1.0
C      1  0.5471870000000  0.4265940000000  0.5024350000000 1.0
C      1  0.5272270000000  0.5591090000000  0.5246220000000 1.0
C      1  0.5010460000000  0.5766700000000  0.5263160000000 1.0
C      1  0.4989190000000  0.4687680000000  0.4539830000000 1.0
C      1  0.4763330000000  0.5080580000000  0.4862430000000 1.0
C      1  0.4184820000000  0.4634020000000  0.5190900000000 1.0
C      1  0.4467530000000  0.4913600000000  0.4107530000000 1.0
C      1  0.5469620000000  0.4660900000000  0.4362400000000 1.0
C      1  0.5401400000000  0.5312880000000  0.5106510000000 1.0
C      1  0.4629560000000  0.4474790000000  0.5524180000000 1.0
C      1  0.4308810000000  0.5570450000000  0.4988800000000 1.0
C      1  0.4211510000000  0.4418440000000  0.4979780000000 1.0
C      1  0.5048080000000  0.4648720000000  0.5349640000000 1.0
C      1  0.4706700000000  0.5888840000000  0.4720870000000 1.0
C      1  0.4715190000000  0.4446170000000  0.5262210000000 1.0
C      1  0.5155070000000  0.4988350000000  0.5790270000000 1.0
C      1  0.5583990000000  0.4545090000000  0.5186120000000 1.0
C      1  0.4856510000000  0.5548990000000  0.4950970000000 1.0
END
