TITL C-2778424-3986-1316 0.00301269762203237 125000 -351.645704040914 0 0 62 (C1) n - 1
REM
REM in /home/nfs/bkarasulu/CARBON/AIRSS/Generating-Clusters/REBO/Only-C1/SD-CG/HFTN-CG
REM
REM
REM
REM
REM
REM ./C.cell (11c1c37f851c82e70ff6c80c92926a4b)
REM
REM compiler GCC version 9.2.1 20190827 (Red Hat 9.2.1-1)
REM options -cpp -mtune=generic -march=x86-64 -g -O0 -fpre-include=/usr/include/finclude/math-vector-fortran.h
REM seed -1965444281 -34867702 1342290465 554449572 429710048 -1739023667 -1535240380 -1154200676 -478001652 375667219 556344871 1292714975 -1680095151 -1127567582 1328018401 852718375 -1891741466 803564130 -76907136 77309465 1708041883 -958166177 -924287569 505432723 177443292 -1650557444 -1149335386 -1707736201 -106802969 -613963851 -1361775971 -90206205 -985198699
REM
CELL 1.54180   50.00000   50.00000   50.00000   90.00000   90.00000   90.00000
LATT -1
SFAC C  
C      1  0.4405870000000  0.4545100000000  0.4926990000000 1.0
C      1  0.4428320000000  0.5386500000000  0.4611190000000 1.0
C      1  0.5123640000000  0.4811750000000  0.4180070000000 1.0
C      1  0.5057380000000  0.5014450000000  0.5617620000000 1.0
C      1  0.5169110000000  0.5557820000000  0.5353910000000 1.0
C      1  0.4689980000000  0.4572960000000  0.4397700000000 1.0
C      1  0.5015360000000  0.5301970000000  0.4321980000000 1.0
C      1  0.5369270000000  0.5335400000000  0.4629930000000 1.0
C      1  0.5191790000000  0.4579210000000  0.5204080000000 1.0
C      1  0.5232680000000  0.5471520000000  0.4418970000000 1.0
C      1  0.5069190000000  0.5076480000000  0.4160340000000 1.0
C      1  0.5447550000000  0.4933770000000  0.5595660000000 1.0
C      1  0.5249870000000  0.5595960000000  0.5044010000000 1.0
C      1  0.4898640000000  0.4528770000000  0.4936700000000 1.0
C      1  0.4580280000000  0.4376450000000  0.5150340000000 1.0
C      1  0.4842710000000  0.4287800000000  0.5331170000000 1.0
C      1  0.5512160000000  0.5446380000000  0.4979790000000 1.0
C      1  0.5169220000000  0.4884480000000  0.5170200000000 1.0
C      1  0.4942950000000  0.4452390000000  0.4455650000000 1.0
C      1  0.4575520000000  0.4993600000000  0.5266760000000 1.0
C      1  0.4689620000000  0.5267110000000  0.5390790000000 1.0
C      1  0.5173790000000  0.4600170000000  0.4362830000000 1.0
C      1  0.5741360000000  0.5571040000000  0.5035460000000 1.0
C      1  0.4631600000000  0.5048680000000  0.4480250000000 1.0
C      1  0.5614730000000  0.4632620000000  0.4968800000000 1.0
C      1  0.4705440000000  0.5186180000000  0.5697720000000 1.0
C      1  0.5164950000000  0.4943320000000  0.4850060000000 1.0
C      1  0.4849430000000  0.5003100000000  0.5874520000000 1.0
C      1  0.4268300000000  0.4983470000000  0.4864530000000 1.0
C      1  0.4263440000000  0.4937430000000  0.5151780000000 1.0
C      1  0.4700040000000  0.5841980000000  0.5281380000000 1.0
C      1  0.5015260000000  0.5653610000000  0.4802760000000 1.0
C      1  0.5022700000000  0.4488850000000  0.5410870000000 1.0
C      1  0.5344110000000  0.4746010000000  0.5789650000000 1.0
C      1  0.5061170000000  0.4757880000000  0.5921870000000 1.0
C      1  0.4951340000000  0.4323510000000  0.4707410000000 1.0
C      1  0.4834000000000  0.5553110000000  0.5345410000000 1.0
C      1  0.4799920000000  0.5273550000000  0.4516030000000 1.0
C      1  0.4832380000000  0.4201890000000  0.5002270000000 1.0
C      1  0.4987190000000  0.5169440000000  0.5124840000000 1.0
C      1  0.4891490000000  0.4796960000000  0.4896460000000 1.0
C      1  0.5609330000000  0.4904330000000  0.5060630000000 1.0
C      1  0.4534080000000  0.4783400000000  0.4508570000000 1.0
C      1  0.5340120000000  0.5501620000000  0.5589570000000 1.0
C      1  0.5139450000000  0.5722790000000  0.4529030000000 1.0
C      1  0.5163910000000  0.5258530000000  0.4848290000000 1.0
C      1  0.5420540000000  0.4851780000000  0.4696380000000 1.0
C      1  0.5088580000000  0.5250270000000  0.5404250000000 1.0
C      1  0.5453400000000  0.4922970000000  0.5309780000000 1.0
C      1  0.5404560000000  0.4468220000000  0.5051550000000 1.0
C      1  0.4353020000000  0.4740890000000  0.4729870000000 1.0
C      1  0.4814840000000  0.5424960000000  0.4758660000000 1.0
C      1  0.4702450000000  0.5317540000000  0.5051890000000 1.0
C      1  0.4992300000000  0.4680470000000  0.5612010000000 1.0
C      1  0.5540280000000  0.5134360000000  0.4846730000000 1.0
C      1  0.4656570000000  0.4943790000000  0.4944790000000 1.0
C      1  0.5632490000000  0.4471190000000  0.4481230000000 1.0
C      1  0.4483520000000  0.5209900000000  0.4814790000000 1.0
C      1  0.4951570000000  0.5764510000000  0.5096270000000 1.0
C      1  0.5417320000000  0.4631970000000  0.4524400000000 1.0
C      1  0.4457350000000  0.4673540000000  0.5238970000000 1.0
C      1  0.5330550000000  0.5210300000000  0.5673610000000 1.0
END
