TITL C-2778432-5617-178 -0.00298991583965059 125000 -1157.31279684671 0 0 198 (C1) n - 1
REM
REM in /home/nfs/bkarasulu/CARBON/AIRSS/Generating-Clusters/REBO/Only-C1/SD-CG/HFTN-CG
REM
REM
REM
REM
REM
REM ./C.cell (11c1c37f851c82e70ff6c80c92926a4b)
REM
REM compiler GCC version 9.2.1 20190827 (Red Hat 9.2.1-1)
REM options -cpp -mtune=generic -march=x86-64 -g -O0 -fpre-include=/usr/include/finclude/math-vector-fortran.h
REM seed -1531573631 -708881825 -1691421744 -153183998 1323523694 1934727424 -1419942508 -1781041035 747893389 -1684054774 -1381338376 -547195701 -599674819 2008104421 1963808008 -1883011895 1301887848 -1261120929 -908916714 811699205 443012244 -1143179561 -796371657 -578894469 -558804028 -1420294020 1855152288 -588128277 1603191556 1113786284 1313849055 -1921795950 -998111533
REM
CELL 1.54180   50.00000   50.00000   50.00000   90.00000   90.00000   90.00000
LATT -1
SFAC C  
C      1  0.4435790000000  0.5627880000000  0.5542280000000 1.0
C      1  0.5846430000000  0.4521490000000  0.5391250000000 1.0
C      1  0.4563220000000  0.5556870000000  0.4906880000000 1.0
C      1  0.5110760000000  0.4671450000000  0.4381010000000 1.0
C      1  0.5107550000000  0.4344610000000  0.4610110000000 1.0
C      1  0.5000560000000  0.6041560000000  0.5205670000000 1.0
C      1  0.5035720000000  0.5251150000000  0.3954140000000 1.0
C      1  0.4553520000000  0.5095190000000  0.5053880000000 1.0
C      1  0.4996900000000  0.4477730000000  0.3774370000000 1.0
C      1  0.4320180000000  0.5192270000000  0.5809870000000 1.0
C      1  0.5330550000000  0.4614070000000  0.5873950000000 1.0
C      1  0.4401560000000  0.4860520000000  0.4497600000000 1.0
C      1  0.3974560000000  0.5314070000000  0.5265370000000 1.0
C      1  0.5432420000000  0.4794170000000  0.5601500000000 1.0
C      1  0.4901870000000  0.5538830000000  0.4964410000000 1.0
C      1  0.4573320000000  0.5326640000000  0.5291760000000 1.0
C      1  0.4664780000000  0.4697110000000  0.4061220000000 1.0
C      1  0.4833930000000  0.5959580000000  0.5663910000000 1.0
C      1  0.4853090000000  0.5088540000000  0.4270000000000 1.0
C      1  0.3830630000000  0.5151220000000  0.5003550000000 1.0
C      1  0.4551460000000  0.4186140000000  0.5797030000000 1.0
C      1  0.5112540000000  0.3859070000000  0.5109660000000 1.0
C      1  0.5356560000000  0.5045660000000  0.5049430000000 1.0
C      1  0.5576710000000  0.5944860000000  0.4960320000000 1.0
C      1  0.4720480000000  0.4381260000000  0.4328460000000 1.0
C      1  0.6078540000000  0.5611130000000  0.4996620000000 1.0
C      1  0.5172220000000  0.4059540000000  0.5569550000000 1.0
C      1  0.4630560000000  0.4726680000000  0.4922030000000 1.0
C      1  0.4933910000000  0.5252480000000  0.6065740000000 1.0
C      1  0.5896720000000  0.5464310000000  0.4577990000000 1.0
C      1  0.5842600000000  0.4292600000000  0.5133150000000 1.0
C      1  0.4355260000000  0.4837070000000  0.4102380000000 1.0
C      1  0.5416280000000  0.5504490000000  0.4111830000000 1.0
C      1  0.4213600000000  0.5549400000000  0.5321920000000 1.0
C      1  0.5284090000000  0.4766260000000  0.4877360000000 1.0
C      1  0.5609930000000  0.5271890000000  0.4142170000000 1.0
C      1  0.5216240000000  0.4962760000000  0.3949600000000 1.0
C      1  0.5750870000000  0.4674760000000  0.5667180000000 1.0
C      1  0.5492320000000  0.4176030000000  0.5603900000000 1.0
C      1  0.5250240000000  0.4853390000000  0.4573850000000 1.0
C      1  0.5047000000000  0.5073960000000  0.4703060000000 1.0
C      1  0.4620200000000  0.4002000000000  0.5152410000000 1.0
C      1  0.6053790000000  0.5396620000000  0.4803460000000 1.0
C      1  0.4942480000000  0.4770820000000  0.3870910000000 1.0
C      1  0.3730510000000  0.5022890000000  0.4727330000000 1.0
C      1  0.6077890000000  0.4684040000000  0.4973710000000 1.0
C      1  0.4577880000000  0.5145260000000  0.4716140000000 1.0
C      1  0.4880870000000  0.4427720000000  0.4061450000000 1.0
C      1  0.5006550000000  0.4863070000000  0.4179250000000 1.0
C      1  0.4862060000000  0.4044640000000  0.5474690000000 1.0
C      1  0.5679620000000  0.4918720000000  0.5245160000000 1.0
C      1  0.5601760000000  0.4799060000000  0.5956910000000 1.0
C      1  0.4417710000000  0.4338550000000  0.4311350000000 1.0
C      1  0.4263280000000  0.4708570000000  0.5630840000000 1.0
C      1  0.4752930000000  0.4354140000000  0.5879060000000 1.0
C      1  0.5262020000000  0.4092790000000  0.4937980000000 1.0
C      1  0.5204130000000  0.5612810000000  0.5976660000000 1.0
C      1  0.4418580000000  0.5170560000000  0.4123170000000 1.0
C      1  0.4106200000000  0.4580380000000  0.5124630000000 1.0
C      1  0.5681910000000  0.5537070000000  0.5663910000000 1.0
C      1  0.5747670000000  0.5494510000000  0.5203890000000 1.0
C      1  0.5834520000000  0.4404560000000  0.4573980000000 1.0
C      1  0.4916020000000  0.5577560000000  0.4493210000000 1.0
C      1  0.4850920000000  0.4388320000000  0.4830410000000 1.0
C      1  0.5649410000000  0.5464930000000  0.4901910000000 1.0
C      1  0.4708070000000  0.4994630000000  0.5658940000000 1.0
C      1  0.5634220000000  0.4701870000000  0.4200210000000 1.0
C      1  0.3868440000000  0.5013860000000  0.5645770000000 1.0
C      1  0.5358460000000  0.4816430000000  0.5302090000000 1.0
C      1  0.4679850000000  0.5948840000000  0.4828050000000 1.0
C      1  0.5582620000000  0.4106110000000  0.5066210000000 1.0
C      1  0.6079050000000  0.4903100000000  0.4802560000000 1.0
C      1  0.4149410000000  0.4306120000000  0.4715430000000 1.0
C      1  0.4593200000000  0.4263910000000  0.4971580000000 1.0
C      1  0.4425890000000  0.4487020000000  0.5138910000000 1.0
C      1  0.5582810000000  0.4635270000000  0.4531510000000 1.0
C      1  0.5431720000000  0.5539720000000  0.5444750000000 1.0
C      1  0.4799600000000  0.4751970000000  0.5955650000000 1.0
C      1  0.4640940000000  0.4851780000000  0.5233640000000 1.0
C      1  0.5589410000000  0.4486870000000  0.5187850000000 1.0
C      1  0.4432980000000  0.5146020000000  0.6059920000000 1.0
C      1  0.5113220000000  0.5784280000000  0.5747620000000 1.0
C      1  0.4106100000000  0.4602770000000  0.4572690000000 1.0
C      1  0.4147600000000  0.4980360000000  0.4337660000000 1.0
C      1  0.5543790000000  0.4453760000000  0.4041950000000 1.0
C      1  0.4764000000000  0.5554610000000  0.5249980000000 1.0
C      1  0.4540250000000  0.4511450000000  0.5427490000000 1.0
C      1  0.6015830000000  0.5134180000000  0.5268180000000 1.0
C      1  0.5109090000000  0.4744500000000  0.6084990000000 1.0
C      1  0.5662940000000  0.5805380000000  0.5255900000000 1.0
C      1  0.5727600000000  0.5708050000000  0.4675730000000 1.0
C      1  0.5434440000000  0.5773160000000  0.5692390000000 1.0
C      1  0.3936210000000  0.4580300000000  0.5401070000000 1.0
C      1  0.5109830000000  0.5269000000000  0.4976640000000 1.0
C      1  0.5082700000000  0.4316980000000  0.5030090000000 1.0
C      1  0.4962160000000  0.5714200000000  0.4200710000000 1.0
C      1  0.5218660000000  0.5262680000000  0.4220290000000 1.0
C      1  0.5070040000000  0.4918420000000  0.5803510000000 1.0
C      1  0.4822820000000  0.5502690000000  0.5936810000000 1.0
C      1  0.5616080000000  0.4170590000000  0.4458490000000 1.0
C      1  0.4262800000000  0.5209150000000  0.5376940000000 1.0
C      1  0.5976190000000  0.4862640000000  0.4532620000000 1.0
C      1  0.4303690000000  0.5590160000000  0.4538560000000 1.0
C      1  0.5923120000000  0.4961950000000  0.5594960000000 1.0
C      1  0.4359450000000  0.4723450000000  0.4766490000000 1.0
C      1  0.5492250000000  0.4971480000000  0.4092910000000 1.0
C      1  0.4128490000000  0.5692630000000  0.4765260000000 1.0
C      1  0.4589510000000  0.4122030000000  0.4687070000000 1.0
C      1  0.3889910000000  0.4839060000000  0.4491900000000 1.0
C      1  0.5364360000000  0.4319200000000  0.5322630000000 1.0
C      1  0.4981360000000  0.4450650000000  0.5771510000000 1.0
C      1  0.4605400000000  0.5272880000000  0.4401670000000 1.0
C      1  0.5371960000000  0.5676050000000  0.5172540000000 1.0
C      1  0.5088720000000  0.5785650000000  0.5240540000000 1.0
C      1  0.4511020000000  0.5810550000000  0.4278230000000 1.0
C      1  0.4191260000000  0.4271700000000  0.5032130000000 1.0
C      1  0.4584250000000  0.4062690000000  0.5542940000000 1.0
C      1  0.5498290000000  0.4207470000000  0.4755380000000 1.0
C      1  0.4716110000000  0.5059120000000  0.5993140000000 1.0
C      1  0.4595640000000  0.5556340000000  0.4213910000000 1.0
C      1  0.4245520000000  0.4567340000000  0.4277430000000 1.0
C      1  0.4637720000000  0.5620560000000  0.4605290000000 1.0
C      1  0.4839030000000  0.4509820000000  0.5405480000000 1.0
C      1  0.4592770000000  0.4678740000000  0.5709310000000 1.0
C      1  0.5607390000000  0.5315700000000  0.5862550000000 1.0
C      1  0.4070320000000  0.4990000000000  0.4729370000000 1.0
C      1  0.5296900000000  0.5351100000000  0.5931680000000 1.0
C      1  0.5421790000000  0.6107780000000  0.4708640000000 1.0
C      1  0.5750400000000  0.5305400000000  0.4406150000000 1.0
C      1  0.5352660000000  0.3971950000000  0.4466750000000 1.0
C      1  0.5892660000000  0.5821740000000  0.4931760000000 1.0
C      1  0.4652150000000  0.5837130000000  0.5402630000000 1.0
C      1  0.5415270000000  0.4269590000000  0.4207790000000 1.0
C      1  0.4324040000000  0.5382200000000  0.4913160000000 1.0
C      1  0.5036960000000  0.5172890000000  0.5298820000000 1.0
C      1  0.5258120000000  0.4310730000000  0.5788240000000 1.0
C      1  0.4946130000000  0.4881790000000  0.5315290000000 1.0
C      1  0.4216900000000  0.4410360000000  0.5469440000000 1.0
C      1  0.5931940000000  0.4640380000000  0.4347600000000 1.0
C      1  0.4213670000000  0.5318640000000  0.4351130000000 1.0
C      1  0.5107620000000  0.3968030000000  0.4476020000000 1.0
C      1  0.4350800000000  0.4183120000000  0.4547580000000 1.0
C      1  0.5624870000000  0.5207390000000  0.5339060000000 1.0
C      1  0.5354980000000  0.5404970000000  0.4782350000000 1.0
C      1  0.5222590000000  0.5639120000000  0.4591070000000 1.0
C      1  0.4881960000000  0.6163460000000  0.5421910000000 1.0
C      1  0.5128630000000  0.4358610000000  0.4284160000000 1.0
C      1  0.5962170000000  0.5143050000000  0.4941180000000 1.0
C      1  0.4347720000000  0.4136820000000  0.5308740000000 1.0
C      1  0.4689180000000  0.5679100000000  0.5767370000000 1.0
C      1  0.5652340000000  0.5908660000000  0.5519190000000 1.0
C      1  0.4793690000000  0.4910590000000  0.4713980000000 1.0
C      1  0.4871510000000  0.5323950000000  0.5557930000000 1.0
C      1  0.5319430000000  0.5244720000000  0.5450530000000 1.0
C      1  0.5625150000000  0.5133710000000  0.4913070000000 1.0
C      1  0.5131970000000  0.5190430000000  0.5718580000000 1.0
C      1  0.4797950000000  0.4593130000000  0.4585260000000 1.0
C      1  0.5201110000000  0.4576090000000  0.5218360000000 1.0
C      1  0.5464320000000  0.5002430000000  0.4420140000000 1.0
C      1  0.5991020000000  0.4792070000000  0.5260320000000 1.0
C      1  0.3803360000000  0.4850110000000  0.5427590000000 1.0
C      1  0.5880480000000  0.5297650000000  0.5540790000000 1.0
C      1  0.4636470000000  0.4769170000000  0.4374890000000 1.0
C      1  0.5969330000000  0.4428400000000  0.4878500000000 1.0
C      1  0.4240930000000  0.5738510000000  0.5069090000000 1.0
C      1  0.5013160000000  0.5281830000000  0.4474800000000 1.0
C      1  0.5472070000000  0.5089880000000  0.6082930000000 1.0
C      1  0.4967910000000  0.5842000000000  0.4822020000000 1.0
C      1  0.4979700000000  0.5629030000000  0.5497330000000 1.0
C      1  0.6076580000000  0.5471160000000  0.5263840000000 1.0
C      1  0.4838380000000  0.5528340000000  0.3982240000000 1.0
C      1  0.4999300000000  0.4720580000000  0.5581250000000 1.0
C      1  0.4269590000000  0.5208350000000  0.4640770000000 1.0
C      1  0.5489610000000  0.5836640000000  0.4557470000000 1.0
C      1  0.3995500000000  0.5444800000000  0.4956650000000 1.0
C      1  0.4538500000000  0.5335980000000  0.5632810000000 1.0
C      1  0.4702430000000  0.5228010000000  0.4016520000000 1.0
C      1  0.4434120000000  0.4949210000000  0.5462300000000 1.0
C      1  0.5290320000000  0.5749860000000  0.4145600000000 1.0
C      1  0.4956350000000  0.4273810000000  0.5310390000000 1.0
C      1  0.5630300000000  0.5044860000000  0.5721680000000 1.0
C      1  0.4947330000000  0.4692780000000  0.5039660000000 1.0
C      1  0.4539670000000  0.5845130000000  0.5091180000000 1.0
C      1  0.4842780000000  0.3852190000000  0.5125390000000 1.0
C      1  0.5589390000000  0.4728550000000  0.4988540000000 1.0
C      1  0.3986000000000  0.4888840000000  0.5153980000000 1.0
C      1  0.5284800000000  0.5782330000000  0.4892750000000 1.0
C      1  0.4533730000000  0.5939070000000  0.4553330000000 1.0
C      1  0.5360190000000  0.4492900000000  0.4706000000000 1.0
C      1  0.5367630000000  0.3978250000000  0.5301560000000 1.0
C      1  0.5145370000000  0.6030380000000  0.4612810000000 1.0
C      1  0.5154460000000  0.5065840000000  0.6164820000000 1.0
C      1  0.5691800000000  0.4889630000000  0.4704870000000 1.0
C      1  0.5421120000000  0.5306840000000  0.4491350000000 1.0
C      1  0.4221200000000  0.5067360000000  0.5008800000000 1.0
C      1  0.4846390000000  0.4143610000000  0.4515580000000 1.0
C      1  0.4137200000000  0.4993720000000  0.5725440000000 1.0
C      1  0.5136940000000  0.5957130000000  0.4344190000000 1.0
END
