TITL C-2778433-5640-427 -0.0012795346461092 125000 -895.512729580855 0 0 156 (C1) n - 1
REM
REM in /home/nfs/bkarasulu/CARBON/AIRSS/Generating-Clusters/REBO/Only-C1/SD-CG/HFTN-CG
REM
REM
REM
REM
REM
REM ./C.cell (11c1c37f851c82e70ff6c80c92926a4b)
REM
REM compiler GCC version 9.2.1 20190827 (Red Hat 9.2.1-1)
REM options -cpp -mtune=generic -march=x86-64 -g -O0 -fpre-include=/usr/include/finclude/math-vector-fortran.h
REM seed 2063770450 504603273 255257390 328124553 1244369148 -155281762 -1899926143 -605922474 -406682886 -2063489843 1193601860 367020173 -803439875 1653948872 -1857629236 -1151071632 -127274818 -2138956185 -961148404 -491399402 1557956275 -690090958 789496561 -680329231 -433265737 245605750 1749770272 1525795569 1216146535 284071367 -202890390 -123195145 350038851
REM
CELL 1.54180   50.00000   50.00000   50.00000   90.00000   90.00000   90.00000
LATT -1
SFAC C  
C      1  0.4341190000000  0.4377600000000  0.6074230000000 1.0
C      1  0.5259120000000  0.5654430000000  0.4351390000000 1.0
C      1  0.4181680000000  0.5302580000000  0.5201740000000 1.0
C      1  0.4336710000000  0.5282280000000  0.5837610000000 1.0
C      1  0.4366580000000  0.5020150000000  0.5413350000000 1.0
C      1  0.5490960000000  0.5932870000000  0.5322790000000 1.0
C      1  0.5391870000000  0.4808460000000  0.5737040000000 1.0
C      1  0.4463240000000  0.5269500000000  0.5537130000000 1.0
C      1  0.4305730000000  0.4774870000000  0.4258860000000 1.0
C      1  0.4823470000000  0.4772060000000  0.5102680000000 1.0
C      1  0.4683940000000  0.4318830000000  0.4646960000000 1.0
C      1  0.4957990000000  0.5347390000000  0.5548610000000 1.0
C      1  0.5815650000000  0.5149240000000  0.5258780000000 1.0
C      1  0.4147270000000  0.4384240000000  0.4632400000000 1.0
C      1  0.4583640000000  0.4490280000000  0.5433450000000 1.0
C      1  0.5169180000000  0.5410790000000  0.4497100000000 1.0
C      1  0.4022380000000  0.4993180000000  0.5395530000000 1.0
C      1  0.4858140000000  0.5391120000000  0.3647150000000 1.0
C      1  0.5318950000000  0.5751680000000  0.4639580000000 1.0
C      1  0.5700890000000  0.4580640000000  0.4319280000000 1.0
C      1  0.4375140000000  0.5106340000000  0.4193760000000 1.0
C      1  0.5802700000000  0.5665800000000  0.4946270000000 1.0
C      1  0.5439470000000  0.4215420000000  0.4439510000000 1.0
C      1  0.4894020000000  0.5249040000000  0.4377250000000 1.0
C      1  0.4770910000000  0.5941850000000  0.5173640000000 1.0
C      1  0.5145850000000  0.4283480000000  0.4863150000000 1.0
C      1  0.4963910000000  0.4511420000000  0.4955640000000 1.0
C      1  0.5190990000000  0.4711670000000  0.5977770000000 1.0
C      1  0.4785390000000  0.5458200000000  0.4586900000000 1.0
C      1  0.4751640000000  0.4884190000000  0.5714050000000 1.0
C      1  0.4613420000000  0.4918460000000  0.4051710000000 1.0
C      1  0.5547840000000  0.4411600000000  0.5733780000000 1.0
C      1  0.4946010000000  0.4900880000000  0.6050350000000 1.0
C      1  0.4419790000000  0.4295000000000  0.5359240000000 1.0
C      1  0.5587640000000  0.4242500000000  0.4928800000000 1.0
C      1  0.4409640000000  0.4278270000000  0.4822270000000 1.0
C      1  0.5613950000000  0.4264440000000  0.5475100000000 1.0
C      1  0.3996550000000  0.4679010000000  0.4721500000000 1.0
C      1  0.5713070000000  0.5212010000000  0.4988740000000 1.0
C      1  0.5511900000000  0.5273110000000  0.4649250000000 1.0
C      1  0.5832630000000  0.4438180000000  0.5317690000000 1.0
C      1  0.5203140000000  0.5513600000000  0.5471660000000 1.0
C      1  0.4288130000000  0.4262700000000  0.5130130000000 1.0
C      1  0.4785370000000  0.5094030000000  0.5181370000000 1.0
C      1  0.5032680000000  0.5793260000000  0.4216200000000 1.0
C      1  0.5058550000000  0.5878020000000  0.4702380000000 1.0
C      1  0.5815090000000  0.4424120000000  0.5038060000000 1.0
C      1  0.5752430000000  0.4615690000000  0.5590590000000 1.0
C      1  0.4275890000000  0.4975990000000  0.5093930000000 1.0
C      1  0.4498860000000  0.5395900000000  0.4269720000000 1.0
C      1  0.5219710000000  0.5314620000000  0.3959920000000 1.0
C      1  0.5442640000000  0.4540900000000  0.4207010000000 1.0
C      1  0.4401710000000  0.4622150000000  0.5973120000000 1.0
C      1  0.5761680000000  0.4599700000000  0.4800660000000 1.0
C      1  0.5268010000000  0.3718770000000  0.5172650000000 1.0
C      1  0.5540660000000  0.5511650000000  0.5795750000000 1.0
C      1  0.5786380000000  0.4834440000000  0.5344550000000 1.0
C      1  0.4088170000000  0.4468500000000  0.4962360000000 1.0
C      1  0.5304420000000  0.5265030000000  0.5784180000000 1.0
C      1  0.5875560000000  0.5395190000000  0.4536490000000 1.0
C      1  0.4742530000000  0.5685080000000  0.4955310000000 1.0
C      1  0.6217310000000  0.4965140000000  0.5032120000000 1.0
C      1  0.4536730000000  0.4910580000000  0.4555070000000 1.0
C      1  0.4181370000000  0.4674560000000  0.5216320000000 1.0
C      1  0.5732970000000  0.4852450000000  0.4405260000000 1.0
C      1  0.4033970000000  0.5167970000000  0.4846070000000 1.0
C      1  0.4729010000000  0.4849460000000  0.4826460000000 1.0
C      1  0.5095240000000  0.4490050000000  0.4393900000000 1.0
C      1  0.5655750000000  0.5716990000000  0.5388770000000 1.0
C      1  0.5983040000000  0.4734690000000  0.4692110000000 1.0
C      1  0.5554130000000  0.5569800000000  0.4730280000000 1.0
C      1  0.6081870000000  0.4984680000000  0.4781660000000 1.0
C      1  0.4400200000000  0.4657600000000  0.4712470000000 1.0
C      1  0.5043610000000  0.5428280000000  0.5929030000000 1.0
C      1  0.5226190000000  0.5860050000000  0.5254880000000 1.0
C      1  0.4710250000000  0.5424880000000  0.5381630000000 1.0
C      1  0.4964140000000  0.5814850000000  0.5642930000000 1.0
C      1  0.4138130000000  0.4997250000000  0.4405820000000 1.0
C      1  0.4805090000000  0.4075690000000  0.4853510000000 1.0
C      1  0.5434450000000  0.4643200000000  0.4710550000000 1.0
C      1  0.5737680000000  0.5045470000000  0.4200910000000 1.0
C      1  0.5899350000000  0.5400510000000  0.5378190000000 1.0
C      1  0.4342960000000  0.5311280000000  0.4839180000000 1.0
C      1  0.5628990000000  0.4924980000000  0.5890720000000 1.0
C      1  0.6097120000000  0.4866430000000  0.5255530000000 1.0
C      1  0.5422510000000  0.5343640000000  0.5031020000000 1.0
C      1  0.5012480000000  0.5353610000000  0.4797050000000 1.0
C      1  0.4382230000000  0.4499670000000  0.4410320000000 1.0
C      1  0.5365860000000  0.4651270000000  0.5470670000000 1.0
C      1  0.4623230000000  0.4409050000000  0.4209930000000 1.0
C      1  0.5105320000000  0.3972940000000  0.4743910000000 1.0
C      1  0.5159860000000  0.4220860000000  0.5254360000000 1.0
C      1  0.4865590000000  0.4173490000000  0.5145470000000 1.0
C      1  0.4455980000000  0.5426950000000  0.4605780000000 1.0
C      1  0.4455680000000  0.5945660000000  0.5182840000000 1.0
C      1  0.4555470000000  0.4784560000000  0.5301440000000 1.0
C      1  0.4194600000000  0.5052110000000  0.5906190000000 1.0
C      1  0.5763460000000  0.5343830000000  0.4283910000000 1.0
C      1  0.4524090000000  0.5703360000000  0.4419010000000 1.0
C      1  0.4450920000000  0.4627780000000  0.5012370000000 1.0
C      1  0.4299570000000  0.5777310000000  0.5364920000000 1.0
C      1  0.4898590000000  0.4260870000000  0.4284170000000 1.0
C      1  0.5120600000000  0.4634200000000  0.4679740000000 1.0
C      1  0.4654750000000  0.4396110000000  0.5036920000000 1.0
C      1  0.5415460000000  0.4936130000000  0.4985480000000 1.0
C      1  0.5238820000000  0.5657070000000  0.5766880000000 1.0
C      1  0.4338260000000  0.5899470000000  0.4910890000000 1.0
C      1  0.4651350000000  0.4750530000000  0.6003950000000 1.0
C      1  0.5236650000000  0.5037940000000  0.5538120000000 1.0
C      1  0.4881590000000  0.5409160000000  0.5075530000000 1.0
C      1  0.5248980000000  0.4439620000000  0.5788200000000 1.0
C      1  0.4452390000000  0.5019790000000  0.4856330000000 1.0
C      1  0.5237280000000  0.5114280000000  0.4756510000000 1.0
C      1  0.5861110000000  0.5677590000000  0.4636950000000 1.0
C      1  0.5568820000000  0.5164730000000  0.5959960000000 1.0
C      1  0.5501070000000  0.5423190000000  0.5351060000000 1.0
C      1  0.4746380000000  0.5225310000000  0.4107470000000 1.0
C      1  0.4999780000000  0.4776050000000  0.4325910000000 1.0
C      1  0.5496550000000  0.4328270000000  0.4677430000000 1.0
C      1  0.4630310000000  0.4590420000000  0.3986360000000 1.0
C      1  0.4097560000000  0.5736350000000  0.4954710000000 1.0
C      1  0.4850780000000  0.5771070000000  0.4485990000000 1.0
C      1  0.4873860000000  0.4605340000000  0.5461070000000 1.0
C      1  0.4953150000000  0.5314400000000  0.3895800000000 1.0
C      1  0.5398410000000  0.5106060000000  0.5280580000000 1.0
C      1  0.4210940000000  0.4777690000000  0.5814870000000 1.0
C      1  0.4118750000000  0.5598870000000  0.5214570000000 1.0
C      1  0.5186470000000  0.3948280000000  0.5069580000000 1.0
C      1  0.5764970000000  0.5541120000000  0.5624520000000 1.0
C      1  0.5229900000000  0.4274870000000  0.4191220000000 1.0
C      1  0.4947970000000  0.4608460000000  0.5778570000000 1.0
C      1  0.5136370000000  0.4438510000000  0.5470580000000 1.0
C      1  0.5213930000000  0.5577960000000  0.5135470000000 1.0
C      1  0.4814610000000  0.5616640000000  0.5807110000000 1.0
C      1  0.4507730000000  0.5292920000000  0.5140860000000 1.0
C      1  0.4783200000000  0.4603780000000  0.4611660000000 1.0
C      1  0.5516420000000  0.4705270000000  0.5197910000000 1.0
C      1  0.5455760000000  0.4368730000000  0.5203360000000 1.0
C      1  0.4014140000000  0.4951560000000  0.4651990000000 1.0
C      1  0.4951710000000  0.6020590000000  0.4906990000000 1.0
C      1  0.3910860000000  0.5120870000000  0.5135090000000 1.0
C      1  0.4550780000000  0.5784820000000  0.4748810000000 1.0
C      1  0.5591520000000  0.4943540000000  0.4691090000000 1.0
C      1  0.5888900000000  0.5201730000000  0.4761040000000 1.0
C      1  0.4978900000000  0.5918350000000  0.5388240000000 1.0
C      1  0.4123540000000  0.4732300000000  0.5544600000000 1.0
C      1  0.5958050000000  0.5588250000000  0.5163850000000 1.0
C      1  0.4570130000000  0.5494590000000  0.5773780000000 1.0
C      1  0.5309910000000  0.4794170000000  0.4247860000000 1.0
C      1  0.5475830000000  0.5255770000000  0.4118620000000 1.0
C      1  0.4937620000000  0.4941300000000  0.5444370000000 1.0
C      1  0.5388560000000  0.5096110000000  0.4385870000000 1.0
C      1  0.4924300000000  0.5147700000000  0.5816120000000 1.0
C      1  0.4863440000000  0.4057610000000  0.4518670000000 1.0
C      1  0.4699100000000  0.4783540000000  0.4327310000000 1.0
C      1  0.5084110000000  0.5024860000000  0.4478820000000 1.0
END
