TITL C-2778422-5617-1028 -0.033356150401152 125000 -236.31040451667 0 0 42 (C1) n - 1
REM
REM in /home/nfs/bkarasulu/CARBON/AIRSS/Generating-Clusters/REBO/Only-C1/SD-CG/HFTN-CG
REM
REM
REM
REM
REM
REM ./C.cell (11c1c37f851c82e70ff6c80c92926a4b)
REM
REM compiler GCC version 9.2.1 20190827 (Red Hat 9.2.1-1)
REM options -cpp -mtune=generic -march=x86-64 -g -O0 -fpre-include=/usr/include/finclude/math-vector-fortran.h
REM seed 616354329 -1904095312 -1170279437 -912710862 1419772308 -1110157043 -1600141578 1238367849 651537670 1815313369 602061361 359056789 1549416251 -439279788 -1009617480 -2085151171 -1118547543 401566324 -734755504 153259475 1105622276 -135358466 326125033 527783153 162475583 -403794372 -2060818514 189849526 1240321451 193408459 -501490911 2020375102 -1279419201
REM
CELL 1.54180   50.00000   50.00000   50.00000   90.00000   90.00000   90.00000
LATT -1
SFAC C  
C      1  0.5003420000000  0.5034960000000  0.5030430000000 1.0
C      1  0.4908530000000  0.5322600000000  0.4500060000000 1.0
C      1  0.5291030000000  0.4452190000000  0.5276090000000 1.0
C      1  0.4626510000000  0.5178400000000  0.4464700000000 1.0
C      1  0.5485860000000  0.5131340000000  0.5593300000000 1.0
C      1  0.4274250000000  0.5282080000000  0.4072720000000 1.0
C      1  0.4213680000000  0.4659950000000  0.5374610000000 1.0
C      1  0.5488370000000  0.4876640000000  0.4625440000000 1.0
C      1  0.4887920000000  0.5591580000000  0.4650590000000 1.0
C      1  0.5158270000000  0.4525140000000  0.5521170000000 1.0
C      1  0.4380970000000  0.4795590000000  0.5208520000000 1.0
C      1  0.4640190000000  0.4663330000000  0.5087720000000 1.0
C      1  0.4793390000000  0.5368610000000  0.5470310000000 1.0
C      1  0.4899210000000  0.5671570000000  0.4907540000000 1.0
C      1  0.4594490000000  0.5002450000000  0.4703260000000 1.0
C      1  0.5171170000000  0.4429110000000  0.4536370000000 1.0
C      1  0.4437780000000  0.4963390000000  0.4918280000000 1.0
C      1  0.5266120000000  0.5457500000000  0.5326530000000 1.0
C      1  0.4918350000000  0.5064740000000  0.4710880000000 1.0
C      1  0.5573420000000  0.4512170000000  0.5252480000000 1.0
C      1  0.5774250000000  0.4338670000000  0.5307070000000 1.0
C      1  0.5259680000000  0.5311950000000  0.4067120000000 1.0
C      1  0.5591640000000  0.4819860000000  0.4384050000000 1.0
C      1  0.5149000000000  0.4486300000000  0.4791160000000 1.0
C      1  0.5265060000000  0.5307260000000  0.5568770000000 1.0
C      1  0.4446130000000  0.5231490000000  0.4263980000000 1.0
C      1  0.5519740000000  0.4880650000000  0.4940820000000 1.0
C      1  0.4394990000000  0.5125090000000  0.5190930000000 1.0
C      1  0.5227010000000  0.4971440000000  0.4801540000000 1.0
C      1  0.4939790000000  0.4953590000000  0.5654100000000 1.0
C      1  0.5147370000000  0.5621540000000  0.5083200000000 1.0
C      1  0.5098950000000  0.5316830000000  0.4265280000000 1.0
C      1  0.4987690000000  0.5230080000000  0.5620110000000 1.0
C      1  0.4772080000000  0.5509070000000  0.5159360000000 1.0
C      1  0.5612120000000  0.4968630000000  0.5415330000000 1.0
C      1  0.4615340000000  0.4461290000000  0.4917810000000 1.0
C      1  0.5125660000000  0.4546520000000  0.5059390000000 1.0
C      1  0.5611590000000  0.4795360000000  0.5191290000000 1.0
C      1  0.4525710000000  0.5336130000000  0.5295260000000 1.0
C      1  0.5032620000000  0.5299290000000  0.5149790000000 1.0
C      1  0.4972840000000  0.4739690000000  0.5477770000000 1.0
C      1  0.4917820000000  0.4765920000000  0.5164870000000 1.0
END
