TITL C-2778433-5640-1430 0.00188224557705738 125000 -434.021924192681 0 0 76 (C1) n - 1
REM
REM in /home/nfs/bkarasulu/CARBON/AIRSS/Generating-Clusters/REBO/Only-C1/SD-CG/HFTN-CG
REM
REM
REM
REM
REM
REM ./C.cell (11c1c37f851c82e70ff6c80c92926a4b)
REM
REM compiler GCC version 9.2.1 20190827 (Red Hat 9.2.1-1)
REM options -cpp -mtune=generic -march=x86-64 -g -O0 -fpre-include=/usr/include/finclude/math-vector-fortran.h
REM seed -1748296102 -1294574626 -630550572 1485723752 -1210875337 1735552760 -957338119 1959633268 7031801 1246875749 164287894 1661921756 1883228178 -839169468 -1311865906 380980447 1646639369 1545896618 1013721207 736395772 783169086 -82674591 -1580480462 -112278614 -1384774213 1334425053 1325790500 -951579402 1624067739 195411738 -1711325671 -339138972 2088923667
REM
CELL 1.54180   50.00000   50.00000   50.00000   90.00000   90.00000   90.00000
LATT -1
SFAC C  
C      1  0.5104980000000  0.4416170000000  0.4590020000000 1.0
C      1  0.5242690000000  0.4576580000000  0.5481490000000 1.0
C      1  0.5568950000000  0.4728980000000  0.4584420000000 1.0
C      1  0.4344540000000  0.4948440000000  0.4478610000000 1.0
C      1  0.4938670000000  0.5130200000000  0.5920470000000 1.0
C      1  0.4693290000000  0.4710270000000  0.4846060000000 1.0
C      1  0.4972080000000  0.4677950000000  0.5318620000000 1.0
C      1  0.5706850000000  0.4787020000000  0.5049970000000 1.0
C      1  0.4908990000000  0.5512360000000  0.5477790000000 1.0
C      1  0.4747440000000  0.4280280000000  0.4894810000000 1.0
C      1  0.4824950000000  0.5250140000000  0.4309190000000 1.0
C      1  0.5044040000000  0.5346510000000  0.4893970000000 1.0
C      1  0.4456640000000  0.5267580000000  0.5461370000000 1.0
C      1  0.4442920000000  0.4640690000000  0.5049120000000 1.0
C      1  0.5164010000000  0.5288470000000  0.5186640000000 1.0
C      1  0.4825610000000  0.4668940000000  0.4303440000000 1.0
C      1  0.5278400000000  0.4940790000000  0.5331550000000 1.0
C      1  0.5638520000000  0.5097890000000  0.4951870000000 1.0
C      1  0.4674070000000  0.5425260000000  0.5356380000000 1.0
C      1  0.5130030000000  0.5656140000000  0.5339130000000 1.0
C      1  0.5371540000000  0.4745290000000  0.4997190000000 1.0
C      1  0.5234920000000  0.5016700000000  0.5002860000000 1.0
C      1  0.5675560000000  0.4562630000000  0.4817250000000 1.0
C      1  0.4603850000000  0.5507420000000  0.5056410000000 1.0
C      1  0.5026570000000  0.5350500000000  0.5718000000000 1.0
C      1  0.5380540000000  0.5652820000000  0.5104950000000 1.0
C      1  0.5500110000000  0.5603410000000  0.4815670000000 1.0
C      1  0.4832390000000  0.4306180000000  0.4604790000000 1.0
C      1  0.4602300000000  0.5428160000000  0.4475250000000 1.0
C      1  0.5336480000000  0.5325470000000  0.5671610000000 1.0
C      1  0.5503390000000  0.5240800000000  0.5196910000000 1.0
C      1  0.5126480000000  0.4629870000000  0.4352230000000 1.0
C      1  0.5203030000000  0.4508370000000  0.4863500000000 1.0
C      1  0.4747480000000  0.4938720000000  0.4398080000000 1.0
C      1  0.5209530000000  0.5720600000000  0.4751410000000 1.0
C      1  0.5256340000000  0.4278070000000  0.5385700000000 1.0
C      1  0.5501340000000  0.4680990000000  0.5301700000000 1.0
C      1  0.5594650000000  0.5026590000000  0.5433990000000 1.0
C      1  0.4686170000000  0.4444720000000  0.4397460000000 1.0
C      1  0.4755190000000  0.5643050000000  0.4593250000000 1.0
C      1  0.4969770000000  0.4887110000000  0.5789450000000 1.0
C      1  0.4356800000000  0.4990340000000  0.4875370000000 1.0
C      1  0.5425070000000  0.5043990000000  0.5687670000000 1.0
C      1  0.5242930000000  0.4842650000000  0.4589890000000 1.0
C      1  0.4644260000000  0.5260770000000  0.4835920000000 1.0
C      1  0.5421330000000  0.5495820000000  0.5406580000000 1.0
C      1  0.4785000000000  0.4979440000000  0.4703470000000 1.0
C      1  0.4364890000000  0.4908750000000  0.5208910000000 1.0
C      1  0.4287180000000  0.5529200000000  0.5115920000000 1.0
C      1  0.4636600000000  0.5036430000000  0.5069600000000 1.0
C      1  0.5067320000000  0.5779600000000  0.5041630000000 1.0
C      1  0.4930480000000  0.4540220000000  0.5018660000000 1.0
C      1  0.5458330000000  0.4230410000000  0.5186510000000 1.0
C      1  0.5404550000000  0.5413620000000  0.4547990000000 1.0
C      1  0.4766930000000  0.4241100000000  0.5233200000000 1.0
C      1  0.4386090000000  0.5235410000000  0.4635190000000 1.0
C      1  0.5026210000000  0.5130550000000  0.5456130000000 1.0
C      1  0.4495740000000  0.4357440000000  0.5102870000000 1.0
C      1  0.5111020000000  0.5354100000000  0.4379230000000 1.0
C      1  0.4875250000000  0.4916660000000  0.5135920000000 1.0
C      1  0.4333180000000  0.4840140000000  0.5729620000000 1.0
C      1  0.4508860000000  0.5122380000000  0.4259820000000 1.0
C      1  0.4395890000000  0.4720720000000  0.4677320000000 1.0
C      1  0.5576020000000  0.5059230000000  0.4616880000000 1.0
C      1  0.5081750000000  0.5047180000000  0.4736790000000 1.0
C      1  0.4217920000000  0.5370200000000  0.5336500000000 1.0
C      1  0.5679110000000  0.5347860000000  0.4741140000000 1.0
C      1  0.5238610000000  0.4813090000000  0.5716890000000 1.0
C      1  0.4796310000000  0.4885730000000  0.5524000000000 1.0
C      1  0.5049440000000  0.5623460000000  0.4542510000000 1.0
C      1  0.5481520000000  0.4366830000000  0.4937100000000 1.0
C      1  0.5371760000000  0.5140230000000  0.4356750000000 1.0
C      1  0.4851380000000  0.5597030000000  0.4888730000000 1.0
C      1  0.5000720000000  0.4158700000000  0.5355200000000 1.0
C      1  0.5406640000000  0.4813900000000  0.4294680000000 1.0
C      1  0.4499650000000  0.4958660000000  0.5502820000000 1.0
END
