TITL C-2778430-5657-1095 0.000584422869607974 125000 -504.767764036556 0 0 88 (C1) n - 1
REM
REM in /home/nfs/bkarasulu/CARBON/AIRSS/Generating-Clusters/REBO/Only-C1/SD-CG/HFTN-CG
REM
REM
REM
REM
REM
REM ./C.cell (11c1c37f851c82e70ff6c80c92926a4b)
REM
REM compiler GCC version 9.2.1 20190827 (Red Hat 9.2.1-1)
REM options -cpp -mtune=generic -march=x86-64 -g -O0 -fpre-include=/usr/include/finclude/math-vector-fortran.h
REM seed 1594857346 299923695 32086466 -135417547 -1495175375 529911937 1504735898 1111227758 907703001 -1869042209 782665830 -1009478784 -1086632054 2122971598 828422969 -562963149 -789369547 -1294052056 523076598 -311714821 -798720436 -1199215103 1926371534 1902445878 -1660670182 -1498931009 1867474582 1352000798 1372950708 2051467171 909187587 1885011388 -457795131
REM
CELL 1.54180   50.00000   50.00000   50.00000   90.00000   90.00000   90.00000
LATT -1
SFAC C  
C      1  0.5190690000000  0.4878690000000  0.5730550000000 1.0
C      1  0.4682120000000  0.5469770000000  0.5596750000000 1.0
C      1  0.5270250000000  0.5186040000000  0.4904370000000 1.0
C      1  0.5642970000000  0.5180100000000  0.5221010000000 1.0
C      1  0.5121020000000  0.5923280000000  0.4702960000000 1.0
C      1  0.4360820000000  0.4627490000000  0.5143650000000 1.0
C      1  0.5288190000000  0.4409460000000  0.4803370000000 1.0
C      1  0.5402200000000  0.5235930000000  0.5653060000000 1.0
C      1  0.4314570000000  0.4745890000000  0.4550100000000 1.0
C      1  0.4926480000000  0.4576710000000  0.5361800000000 1.0
C      1  0.4622330000000  0.4785870000000  0.5023120000000 1.0
C      1  0.4544540000000  0.5187560000000  0.5654890000000 1.0
C      1  0.4822490000000  0.5767090000000  0.4742720000000 1.0
C      1  0.5016550000000  0.4258650000000  0.5391960000000 1.0
C      1  0.5450330000000  0.4059420000000  0.5542800000000 1.0
C      1  0.5216440000000  0.5025070000000  0.4300000000000 1.0
C      1  0.4841010000000  0.5277580000000  0.5287830000000 1.0
C      1  0.4878970000000  0.4637150000000  0.5059640000000 1.0
C      1  0.5418050000000  0.4514900000000  0.5323370000000 1.0
C      1  0.5154490000000  0.4578230000000  0.5615410000000 1.0
C      1  0.5434290000000  0.4755110000000  0.5527450000000 1.0
C      1  0.4896240000000  0.5537440000000  0.4950350000000 1.0
C      1  0.4145380000000  0.5093470000000  0.5048430000000 1.0
C      1  0.5320520000000  0.5198840000000  0.5180780000000 1.0
C      1  0.5100920000000  0.5267600000000  0.5335400000000 1.0
C      1  0.5391450000000  0.5580410000000  0.4515910000000 1.0
C      1  0.4334680000000  0.4640220000000  0.5449810000000 1.0
C      1  0.4255700000000  0.5217740000000  0.5277490000000 1.0
C      1  0.4883420000000  0.4427020000000  0.5728870000000 1.0
C      1  0.4813690000000  0.5138810000000  0.4632410000000 1.0
C      1  0.5576890000000  0.5501110000000  0.5217570000000 1.0
C      1  0.5220540000000  0.5667380000000  0.5786740000000 1.0
C      1  0.4933590000000  0.4889660000000  0.4435520000000 1.0
C      1  0.5821650000000  0.4877310000000  0.4781550000000 1.0
C      1  0.5397600000000  0.4981800000000  0.4764460000000 1.0
C      1  0.5736020000000  0.5338190000000  0.4767430000000 1.0
C      1  0.4531930000000  0.4524480000000  0.4534520000000 1.0
C      1  0.5458610000000  0.5694520000000  0.4986710000000 1.0
C      1  0.5615720000000  0.4388170000000  0.4391000000000 1.0
C      1  0.5134140000000  0.5592300000000  0.4319990000000 1.0
C      1  0.4497590000000  0.5495780000000  0.4486830000000 1.0
C      1  0.5590560000000  0.4478570000000  0.5053730000000 1.0
C      1  0.4787420000000  0.4735840000000  0.5630450000000 1.0
C      1  0.4567880000000  0.5585590000000  0.4727670000000 1.0
C      1  0.5453980000000  0.5058180000000  0.4460590000000 1.0
C      1  0.4927850000000  0.5008280000000  0.5709650000000 1.0
C      1  0.4995670000000  0.5638860000000  0.5214640000000 1.0
C      1  0.5794970000000  0.4597850000000  0.4828520000000 1.0
C      1  0.4740190000000  0.4203040000000  0.5578250000000 1.0
C      1  0.5308540000000  0.4251180000000  0.5433660000000 1.0
C      1  0.4642290000000  0.5052890000000  0.5154170000000 1.0
C      1  0.5186210000000  0.5404630000000  0.5725820000000 1.0
C      1  0.4463840000000  0.5061290000000  0.5429300000000 1.0
C      1  0.4563930000000  0.5041000000000  0.4454210000000 1.0
C      1  0.4931830000000  0.5011490000000  0.4112350000000 1.0
C      1  0.4927440000000  0.5285590000000  0.5706970000000 1.0
C      1  0.4389410000000  0.5500480000000  0.4968170000000 1.0
C      1  0.4698990000000  0.4264780000000  0.5259190000000 1.0
C      1  0.4808660000000  0.5678230000000  0.5407480000000 1.0
C      1  0.4984400000000  0.4486380000000  0.4772150000000 1.0
C      1  0.5501620000000  0.4185800000000  0.4936080000000 1.0
C      1  0.5365230000000  0.5769820000000  0.4731790000000 1.0
C      1  0.5526510000000  0.5053780000000  0.5491080000000 1.0
C      1  0.4481390000000  0.4718130000000  0.5633250000000 1.0
C      1  0.5544330000000  0.5352900000000  0.4556390000000 1.0
C      1  0.5444430000000  0.4757740000000  0.4916760000000 1.0
C      1  0.4966060000000  0.5825130000000  0.4439210000000 1.0
C      1  0.4664810000000  0.4425660000000  0.4791170000000 1.0
C      1  0.5751130000000  0.4936330000000  0.4505490000000 1.0
C      1  0.4639820000000  0.5001120000000  0.4164720000000 1.0
C      1  0.4270750000000  0.5080610000000  0.4591420000000 1.0
C      1  0.5033460000000  0.5326800000000  0.4487890000000 1.0
C      1  0.5275050000000  0.5635840000000  0.5244790000000 1.0
C      1  0.4241640000000  0.5236250000000  0.4821660000000 1.0
C      1  0.4194110000000  0.5703850000000  0.5022930000000 1.0
C      1  0.5091720000000  0.5306530000000  0.4153240000000 1.0
C      1  0.5558780000000  0.3934890000000  0.4941360000000 1.0
C      1  0.4532520000000  0.5419420000000  0.5267470000000 1.0
C      1  0.4861340000000  0.4595600000000  0.4487480000000 1.0
C      1  0.5577860000000  0.4457370000000  0.4655720000000 1.0
C      1  0.4742360000000  0.5251910000000  0.4907340000000 1.0
C      1  0.4126680000000  0.4807790000000  0.5033170000000 1.0
C      1  0.5210250000000  0.4593860000000  0.5080440000000 1.0
C      1  0.4560600000000  0.4857240000000  0.4742500000000 1.0
C      1  0.4964620000000  0.4419120000000  0.4255640000000 1.0
C      1  0.4562950000000  0.4392110000000  0.5053120000000 1.0
C      1  0.5104000000000  0.5365260000000  0.4786020000000 1.0
C      1  0.5776840000000  0.5112780000000  0.4946330000000 1.0
END
