TITL C-2778431-5191-9 0.00072044277645812 125000 -626.430438055129 0 0 107 (C1) n - 1
REM
REM in /home/nfs/bkarasulu/CARBON/AIRSS/Generating-Clusters/REBO/Only-C1/SD-CG/HFTN-CG
REM
REM
REM
REM
REM
REM ./C.cell (11c1c37f851c82e70ff6c80c92926a4b)
REM
REM compiler GCC version 9.2.1 20190827 (Red Hat 9.2.1-1)
REM options -cpp -mtune=generic -march=x86-64 -g -O0 -fpre-include=/usr/include/finclude/math-vector-fortran.h
REM seed 2107234924 1925341285 1038119189 311043742 -606170629 1788093029 1067851500 289059515 1185207578 2091774903 -681017962 1669855812 -182336071 -377953536 501442505 -1902057678 649288796 1485193041 -401508063 -2035309271 -1658822909 2068907594 146730560 -488068610 -483952467 824150771 -1522330136 -20039583 981151266 1828420616 1089816439 1857127591 1874611837
REM
CELL 1.54180   50.00000   50.00000   50.00000   90.00000   90.00000   90.00000
LATT -1
SFAC C  
C      1  0.5380330000000  0.5088100000000  0.5816930000000 1.0
C      1  0.5283280000000  0.5540330000000  0.5585380000000 1.0
C      1  0.4363950000000  0.5289660000000  0.4491290000000 1.0
C      1  0.4954060000000  0.4664150000000  0.5745310000000 1.0
C      1  0.4859720000000  0.5420920000000  0.5054710000000 1.0
C      1  0.4171740000000  0.4767280000000  0.4476990000000 1.0
C      1  0.4961860000000  0.4133870000000  0.4930400000000 1.0
C      1  0.4509990000000  0.5225330000000  0.5593760000000 1.0
C      1  0.5460360000000  0.5234870000000  0.5158770000000 1.0
C      1  0.4731740000000  0.5706400000000  0.4598020000000 1.0
C      1  0.4544040000000  0.4865180000000  0.4788350000000 1.0
C      1  0.5663240000000  0.4764230000000  0.4875680000000 1.0
C      1  0.4306320000000  0.4983930000000  0.4631760000000 1.0
C      1  0.4784880000000  0.5479850000000  0.4176930000000 1.0
C      1  0.5669110000000  0.4979660000000  0.4539590000000 1.0
C      1  0.4684210000000  0.5069700000000  0.5113830000000 1.0
C      1  0.5235410000000  0.4779480000000  0.5816050000000 1.0
C      1  0.4791350000000  0.4230000000000  0.5443850000000 1.0
C      1  0.5022860000000  0.5558810000000  0.5485410000000 1.0
C      1  0.5380090000000  0.5783030000000  0.4918360000000 1.0
C      1  0.5327430000000  0.4475320000000  0.4668350000000 1.0
C      1  0.5435220000000  0.4269370000000  0.5136460000000 1.0
C      1  0.4437470000000  0.5436420000000  0.5385670000000 1.0
C      1  0.5402360000000  0.5418200000000  0.4330780000000 1.0
C      1  0.5524020000000  0.5685580000000  0.5145520000000 1.0
C      1  0.4915670000000  0.5730510000000  0.4811430000000 1.0
C      1  0.4522770000000  0.4627820000000  0.4915250000000 1.0
C      1  0.5023240000000  0.4320730000000  0.4652350000000 1.0
C      1  0.4722050000000  0.4449050000000  0.4983450000000 1.0
C      1  0.5288030000000  0.4312930000000  0.5640510000000 1.0
C      1  0.5169300000000  0.5405910000000  0.4564330000000 1.0
C      1  0.5528160000000  0.5556810000000  0.5390470000000 1.0
C      1  0.5208670000000  0.5228560000000  0.5047760000000 1.0
C      1  0.4819400000000  0.5196130000000  0.4329120000000 1.0
C      1  0.4236980000000  0.5397990000000  0.4907280000000 1.0
C      1  0.4877820000000  0.5681940000000  0.4350630000000 1.0
C      1  0.5745260000000  0.4483730000000  0.5463890000000 1.0
C      1  0.4601430000000  0.5663030000000  0.5294210000000 1.0
C      1  0.4957280000000  0.4340790000000  0.5722610000000 1.0
C      1  0.5575050000000  0.4648420000000  0.4504010000000 1.0
C      1  0.4854570000000  0.5175920000000  0.5924820000000 1.0
C      1  0.4586720000000  0.4732950000000  0.4127230000000 1.0
C      1  0.4852180000000  0.4972710000000  0.4766900000000 1.0
C      1  0.4479830000000  0.5041080000000  0.5332010000000 1.0
C      1  0.4641480000000  0.4772420000000  0.5750190000000 1.0
C      1  0.4293990000000  0.4678620000000  0.4194480000000 1.0
C      1  0.5673150000000  0.4674900000000  0.5664990000000 1.0
C      1  0.4866080000000  0.4371420000000  0.4385160000000 1.0
C      1  0.5073350000000  0.5139850000000  0.5767690000000 1.0
C      1  0.5893320000000  0.5397760000000  0.5405100000000 1.0
C      1  0.4991950000000  0.5036550000000  0.5063360000000 1.0
C      1  0.5031350000000  0.4435490000000  0.4158030000000 1.0
C      1  0.4568350000000  0.5289480000000  0.4038630000000 1.0
C      1  0.5529130000000  0.4304190000000  0.5400490000000 1.0
C      1  0.4330330000000  0.5305970000000  0.4183320000000 1.0
C      1  0.4323700000000  0.4475530000000  0.5561250000000 1.0
C      1  0.4580080000000  0.5597430000000  0.4981850000000 1.0
C      1  0.4854020000000  0.5773740000000  0.5386770000000 1.0
C      1  0.5153540000000  0.4690240000000  0.4177920000000 1.0
C      1  0.4658050000000  0.5185670000000  0.4584640000000 1.0
C      1  0.4434800000000  0.5562700000000  0.4681970000000 1.0
C      1  0.5104420000000  0.4297530000000  0.5358050000000 1.0
C      1  0.5130310000000  0.4936430000000  0.4624030000000 1.0
C      1  0.3892750000000  0.4988290000000  0.5146210000000 1.0
C      1  0.5533780000000  0.5314000000000  0.5630150000000 1.0
C      1  0.5360300000000  0.4745420000000  0.5233990000000 1.0
C      1  0.4568830000000  0.4759970000000  0.5428240000000 1.0
C      1  0.4724820000000  0.4194090000000  0.5131360000000 1.0
C      1  0.5575990000000  0.4967960000000  0.5294020000000 1.0
C      1  0.4942440000000  0.5332380000000  0.5327500000000 1.0
C      1  0.5023900000000  0.4528700000000  0.4921540000000 1.0
C      1  0.4998360000000  0.5963200000000  0.5224270000000 1.0
C      1  0.5866470000000  0.4655980000000  0.4659250000000 1.0
C      1  0.5066500000000  0.4594020000000  0.5248450000000 1.0
C      1  0.5110270000000  0.5881960000000  0.4972490000000 1.0
C      1  0.5440500000000  0.5685640000000  0.4651070000000 1.0
C      1  0.5247470000000  0.4886240000000  0.5503640000000 1.0
C      1  0.4244370000000  0.4733310000000  0.5407650000000 1.0
C      1  0.5787670000000  0.4919850000000  0.5080460000000 1.0
C      1  0.4314110000000  0.4471620000000  0.4460720000000 1.0
C      1  0.4633550000000  0.4442100000000  0.5657980000000 1.0
C      1  0.5438620000000  0.4557170000000  0.5797390000000 1.0
C      1  0.4728350000000  0.4990020000000  0.4073770000000 1.0
C      1  0.5857860000000  0.5459590000000  0.4827010000000 1.0
C      1  0.5659540000000  0.5496950000000  0.4626570000000 1.0
C      1  0.5635660000000  0.5264120000000  0.4427740000000 1.0
C      1  0.5416570000000  0.4908580000000  0.4758410000000 1.0
C      1  0.5360200000000  0.4529360000000  0.4987340000000 1.0
C      1  0.5104230000000  0.5456260000000  0.4845270000000 1.0
C      1  0.5053660000000  0.4955550000000  0.4119880000000 1.0
C      1  0.4107580000000  0.5188770000000  0.4778500000000 1.0
C      1  0.4259440000000  0.5336490000000  0.5183290000000 1.0
C      1  0.4879800000000  0.4757360000000  0.5430730000000 1.0
C      1  0.4150550000000  0.5020080000000  0.5249060000000 1.0
C      1  0.5262900000000  0.4706430000000  0.4451730000000 1.0
C      1  0.4615310000000  0.5271870000000  0.4885730000000 1.0
C      1  0.4992820000000  0.5076610000000  0.5461090000000 1.0
C      1  0.5187000000000  0.4105510000000  0.5112110000000 1.0
C      1  0.5947230000000  0.5173130000000  0.4946340000000 1.0
C      1  0.4615100000000  0.5076000000000  0.5810530000000 1.0
C      1  0.5210010000000  0.5692960000000  0.4398220000000 1.0
C      1  0.4608420000000  0.4488920000000  0.4348480000000 1.0
C      1  0.5757800000000  0.5305300000000  0.5180960000000 1.0
C      1  0.5622740000000  0.4985090000000  0.5600050000000 1.0
C      1  0.5959210000000  0.4967820000000  0.4702870000000 1.0
C      1  0.5117260000000  0.5144810000000  0.4393450000000 1.0
C      1  0.4139160000000  0.4277890000000  0.5620160000000 1.0
END
