TITL C-2778435-5768-1157 0.00650321773168944 125000 -726.42173977 0 0 123 (C1) n - 1
REM
REM in /home/nfs/bkarasulu/CARBON/AIRSS/Generating-Clusters/REBO/Only-C1/SD-CG/HFTN-CG
REM
REM
REM
REM
REM
REM ./C.cell (11c1c37f851c82e70ff6c80c92926a4b)
REM
REM compiler GCC version 9.2.1 20190827 (Red Hat 9.2.1-1)
REM options -cpp -mtune=generic -march=x86-64 -g -O0 -fpre-include=/usr/include/finclude/math-vector-fortran.h
REM seed 1834489305 1285002421 1471249255 -669411636 257276989 -1916350902 2062140963 1330228083 -1124107132 -1298222038 -1269847900 432471780 -115821547 404108764 -27411885 1997187407 1737154774 1588013097 -831342804 -721543496 1802650279 -330967043 -859171361 -2052982479 1311774637 -857504183 979913825 257316965 1182155299 593215486 -1580218062 -938497328 1974676712
REM
CELL 1.54180   50.00000   50.00000   50.00000   90.00000   90.00000   90.00000
LATT -1
SFAC C  
C      1  0.4240290000000  0.4769690000000  0.5643020000000 1.0
C      1  0.4200080000000  0.4670510000000  0.5108970000000 1.0
C      1  0.5123310000000  0.5328570000000  0.4219890000000 1.0
C      1  0.5136420000000  0.5885330000000  0.5254180000000 1.0
C      1  0.4726060000000  0.4942310000000  0.5827440000000 1.0
C      1  0.5891700000000  0.4633560000000  0.4755790000000 1.0
C      1  0.4466010000000  0.5170770000000  0.4387780000000 1.0
C      1  0.4637720000000  0.5700670000000  0.4441060000000 1.0
C      1  0.5040310000000  0.4223720000000  0.5444740000000 1.0
C      1  0.5585320000000  0.5660370000000  0.5460580000000 1.0
C      1  0.5450020000000  0.5821800000000  0.5258970000000 1.0
C      1  0.4499210000000  0.4331570000000  0.4419380000000 1.0
C      1  0.4897000000000  0.4025920000000  0.5293730000000 1.0
C      1  0.4835960000000  0.5437640000000  0.4662410000000 1.0
C      1  0.4025270000000  0.4897260000000  0.4978330000000 1.0
C      1  0.4429830000000  0.4803690000000  0.5796250000000 1.0
C      1  0.4615320000000  0.5637900000000  0.5461120000000 1.0
C      1  0.5659570000000  0.5327810000000  0.5468030000000 1.0
C      1  0.4443900000000  0.5041970000000  0.5420860000000 1.0
C      1  0.5320940000000  0.4321210000000  0.5337230000000 1.0
C      1  0.5633790000000  0.5517370000000  0.4725990000000 1.0
C      1  0.5111420000000  0.5713550000000  0.4747360000000 1.0
C      1  0.4812370000000  0.4201790000000  0.4406130000000 1.0
C      1  0.4895580000000  0.4041200000000  0.5001520000000 1.0
C      1  0.4614020000000  0.4962530000000  0.4802010000000 1.0
C      1  0.5551500000000  0.5742000000000  0.5737810000000 1.0
C      1  0.4840680000000  0.4645670000000  0.4130610000000 1.0
C      1  0.5459310000000  0.5207610000000  0.5262680000000 1.0
C      1  0.5051550000000  0.4849340000000  0.5775380000000 1.0
C      1  0.5275760000000  0.4619570000000  0.5858910000000 1.0
C      1  0.4244140000000  0.5298840000000  0.5436970000000 1.0
C      1  0.6131590000000  0.4796130000000  0.5028510000000 1.0
C      1  0.4923060000000  0.4936220000000  0.4659460000000 1.0
C      1  0.4694150000000  0.4382540000000  0.4174470000000 1.0
C      1  0.5034800000000  0.4461780000000  0.5920490000000 1.0
C      1  0.5221050000000  0.5088660000000  0.5717770000000 1.0
C      1  0.5082370000000  0.4504940000000  0.4324850000000 1.0
C      1  0.5995800000000  0.5207260000000  0.4784280000000 1.0
C      1  0.4492290000000  0.5820090000000  0.5227180000000 1.0
C      1  0.4701720000000  0.5251680000000  0.5758390000000 1.0
C      1  0.5352470000000  0.5464850000000  0.4274180000000 1.0
C      1  0.5735640000000  0.4801540000000  0.5400860000000 1.0
C      1  0.5577540000000  0.5514900000000  0.5037410000000 1.0
C      1  0.5599790000000  0.4512060000000  0.4705870000000 1.0
C      1  0.5488310000000  0.4539540000000  0.5713570000000 1.0
C      1  0.5526460000000  0.4933430000000  0.4519700000000 1.0
C      1  0.4649120000000  0.4589550000000  0.5082310000000 1.0
C      1  0.4483220000000  0.5705630000000  0.4969110000000 1.0
C      1  0.3971120000000  0.5100450000000  0.5222710000000 1.0
C      1  0.5288510000000  0.4625280000000  0.5320240000000 1.0
C      1  0.4403610000000  0.4885960000000  0.4334870000000 1.0
C      1  0.5135100000000  0.4137750000000  0.4866890000000 1.0
C      1  0.5037320000000  0.4713990000000  0.5279510000000 1.0
C      1  0.5270490000000  0.5426100000000  0.5109860000000 1.0
C      1  0.5586560000000  0.4313860000000  0.4946380000000 1.0
C      1  0.4775830000000  0.5149040000000  0.4139000000000 1.0
C      1  0.5493300000000  0.4784660000000  0.5238720000000 1.0
C      1  0.5844500000000  0.5071520000000  0.5342320000000 1.0
C      1  0.5112020000000  0.4748200000000  0.4009650000000 1.0
C      1  0.4710770000000  0.4379370000000  0.4749250000000 1.0
C      1  0.4270040000000  0.5664970000000  0.4786330000000 1.0
C      1  0.5098390000000  0.5398330000000  0.4869960000000 1.0
C      1  0.5627160000000  0.5179020000000  0.4634250000000 1.0
C      1  0.5550220000000  0.5825000000000  0.4975280000000 1.0
C      1  0.5252170000000  0.4793480000000  0.4381190000000 1.0
C      1  0.4941110000000  0.5385930000000  0.5827250000000 1.0
C      1  0.6042180000000  0.4909600000000  0.4734860000000 1.0
C      1  0.4714870000000  0.5186740000000  0.4562220000000 1.0
C      1  0.4389200000000  0.4423850000000  0.5129020000000 1.0
C      1  0.4340510000000  0.4478890000000  0.4640770000000 1.0
C      1  0.5996530000000  0.5080010000000  0.5092330000000 1.0
C      1  0.5473240000000  0.4909380000000  0.4998660000000 1.0
C      1  0.4082940000000  0.4807050000000  0.5362890000000 1.0
C      1  0.4527750000000  0.5399240000000  0.5578810000000 1.0
C      1  0.4869720000000  0.4727870000000  0.5522160000000 1.0
C      1  0.5392750000000  0.4492450000000  0.4464120000000 1.0
C      1  0.5121420000000  0.4235890000000  0.4539020000000 1.0
C      1  0.5982140000000  0.4529700000000  0.5042000000000 1.0
C      1  0.4228750000000  0.4771760000000  0.4531660000000 1.0
C      1  0.4352580000000  0.5617600000000  0.4511840000000 1.0
C      1  0.5770120000000  0.4382820000000  0.5155120000000 1.0
C      1  0.4835260000000  0.5448540000000  0.5166430000000 1.0
C      1  0.4020340000000  0.5078810000000  0.5558710000000 1.0
C      1  0.4083010000000  0.5249110000000  0.4656160000000 1.0
C      1  0.4932830000000  0.5872090000000  0.4977130000000 1.0
C      1  0.4885250000000  0.5137950000000  0.4919670000000 1.0
C      1  0.5159660000000  0.5042670000000  0.4166970000000 1.0
C      1  0.4262100000000  0.5351740000000  0.4447190000000 1.0
C      1  0.5091890000000  0.5574910000000  0.5314930000000 1.0
C      1  0.4089940000000  0.5451130000000  0.4874270000000 1.0
C      1  0.4881960000000  0.4410550000000  0.5631480000000 1.0
C      1  0.4752620000000  0.4607600000000  0.5882950000000 1.0
C      1  0.5613700000000  0.4842060000000  0.4217270000000 1.0
C      1  0.5518200000000  0.5252220000000  0.5747440000000 1.0
C      1  0.5578850000000  0.5190880000000  0.4946980000000 1.0
C      1  0.5116950000000  0.5454790000000  0.5598360000000 1.0
C      1  0.5483600000000  0.5538000000000  0.5908210000000 1.0
C      1  0.4746360000000  0.5871120000000  0.4717510000000 1.0
C      1  0.4363710000000  0.4254040000000  0.4895290000000 1.0
C      1  0.4709590000000  0.5536920000000  0.4933070000000 1.0
C      1  0.4666220000000  0.4894870000000  0.4178770000000 1.0
C      1  0.5587410000000  0.5494580000000  0.4393970000000 1.0
C      1  0.4724440000000  0.3855810000000  0.5419430000000 1.0
C      1  0.5088540000000  0.4714520000000  0.4763920000000 1.0
C      1  0.4809750000000  0.5864360000000  0.5296280000000 1.0
C      1  0.4089760000000  0.5380420000000  0.5145230000000 1.0
C      1  0.5880010000000  0.5383810000000  0.4535030000000 1.0
C      1  0.5386850000000  0.5867450000000  0.4758490000000 1.0
C      1  0.4640730000000  0.4114730000000  0.4873700000000 1.0
C      1  0.5234870000000  0.5329180000000  0.5958330000000 1.0
C      1  0.4082840000000  0.4961310000000  0.4708000000000 1.0
C      1  0.5383280000000  0.4759410000000  0.4757360000000 1.0
C      1  0.4978510000000  0.5675070000000  0.4463770000000 1.0
C      1  0.4914930000000  0.4654660000000  0.5043910000000 1.0
C      1  0.4945710000000  0.5164020000000  0.5230630000000 1.0
C      1  0.4958060000000  0.4453700000000  0.4699160000000 1.0
C      1  0.4615460000000  0.4875150000000  0.5449540000000 1.0
C      1  0.5416370000000  0.4866600000000  0.4026280000000 1.0
C      1  0.5343380000000  0.4219500000000  0.5039360000000 1.0
C      1  0.5183330000000  0.5181600000000  0.5413160000000 1.0
C      1  0.4812940000000  0.5460820000000  0.4263980000000 1.0
C      1  0.5635140000000  0.4467090000000  0.5433550000000 1.0
C      1  0.4439010000000  0.4717960000000  0.4865490000000 1.0
END
