TITL C-2778435-5768-800 0.00190301328129693 125000 -778.374517910628 0 0 132 (C1) n - 1
REM
REM in /home/nfs/bkarasulu/CARBON/AIRSS/Generating-Clusters/REBO/Only-C1/SD-CG/HFTN-CG
REM
REM
REM
REM
REM
REM ./C.cell (11c1c37f851c82e70ff6c80c92926a4b)
REM
REM compiler GCC version 9.2.1 20190827 (Red Hat 9.2.1-1)
REM options -cpp -mtune=generic -march=x86-64 -g -O0 -fpre-include=/usr/include/finclude/math-vector-fortran.h
REM seed -1330271125 2138317173 -566604522 -512173231 2134380791 2034823158 1755379721 1349552457 753062141 -1166792982 -416746528 -243204195 740343086 788984850 2124411042 850610178 -2099216947 1197955902 2028243486 1794581038 -2125693042 488120075 1842245753 -1121199397 1049405647 -26445822 2139481106 1861849196 -1944173855 -158580258 -881267738 1103669042 99075437
REM
CELL 1.54180   50.00000   50.00000   50.00000   90.00000   90.00000   90.00000
LATT -1
SFAC C  
C      1  0.5053440000000  0.5824490000000  0.5297160000000 1.0
C      1  0.4320040000000  0.5629070000000  0.5514820000000 1.0
C      1  0.4784990000000  0.5345170000000  0.5748900000000 1.0
C      1  0.4774010000000  0.5789390000000  0.4566530000000 1.0
C      1  0.5227300000000  0.5671580000000  0.5157290000000 1.0
C      1  0.5988810000000  0.5150210000000  0.5050090000000 1.0
C      1  0.5765620000000  0.5220110000000  0.4696060000000 1.0
C      1  0.4492430000000  0.5067780000000  0.4102480000000 1.0
C      1  0.5012740000000  0.5119130000000  0.5808920000000 1.0
C      1  0.5162530000000  0.6021210000000  0.4761450000000 1.0
C      1  0.4276540000000  0.4328570000000  0.5043290000000 1.0
C      1  0.4391390000000  0.5748100000000  0.4872370000000 1.0
C      1  0.5466010000000  0.4397590000000  0.5496690000000 1.0
C      1  0.4967530000000  0.4628400000000  0.5328420000000 1.0
C      1  0.5075610000000  0.5512490000000  0.5805790000000 1.0
C      1  0.5822740000000  0.5623180000000  0.5092570000000 1.0
C      1  0.5206460000000  0.5041520000000  0.4822490000000 1.0
C      1  0.4405690000000  0.4500840000000  0.4528250000000 1.0
C      1  0.5102820000000  0.5167200000000  0.4184240000000 1.0
C      1  0.4965130000000  0.4366250000000  0.4231950000000 1.0
C      1  0.4563080000000  0.4230590000000  0.5651540000000 1.0
C      1  0.5591890000000  0.5824470000000  0.5172130000000 1.0
C      1  0.4548930000000  0.5620370000000  0.4630560000000 1.0
C      1  0.4695400000000  0.5795160000000  0.4957620000000 1.0
C      1  0.4442790000000  0.5365390000000  0.4977750000000 1.0
C      1  0.4698240000000  0.5013220000000  0.4800240000000 1.0
C      1  0.5573510000000  0.5630530000000  0.4439520000000 1.0
C      1  0.5256940000000  0.4564730000000  0.5199540000000 1.0
C      1  0.5727550000000  0.4528670000000  0.4345840000000 1.0
C      1  0.4728440000000  0.4589280000000  0.5116570000000 1.0
C      1  0.5239400000000  0.5278310000000  0.5971330000000 1.0
C      1  0.4599750000000  0.4763440000000  0.5383060000000 1.0
C      1  0.4926820000000  0.4766980000000  0.3917850000000 1.0
C      1  0.4680150000000  0.5157310000000  0.6016900000000 1.0
C      1  0.5172180000000  0.4172680000000  0.4351510000000 1.0
C      1  0.5777800000000  0.5561450000000  0.5400440000000 1.0
C      1  0.5672390000000  0.4838410000000  0.5294150000000 1.0
C      1  0.4057330000000  0.4447070000000  0.5195990000000 1.0
C      1  0.4742480000000  0.4461290000000  0.4737900000000 1.0
C      1  0.5321490000000  0.4458660000000  0.4384940000000 1.0
C      1  0.4807690000000  0.5528210000000  0.4985320000000 1.0
C      1  0.4521070000000  0.4218840000000  0.5145240000000 1.0
C      1  0.4931100000000  0.3954480000000  0.4952580000000 1.0
C      1  0.4954490000000  0.4339730000000  0.5055500000000 1.0
C      1  0.4716750000000  0.4424200000000  0.4400310000000 1.0
C      1  0.4651420000000  0.5362050000000  0.5231450000000 1.0
C      1  0.5231230000000  0.5378020000000  0.5218820000000 1.0
C      1  0.5902390000000  0.5410580000000  0.4932610000000 1.0
C      1  0.5340970000000  0.5767330000000  0.4642800000000 1.0
C      1  0.5403140000000  0.5207540000000  0.4148870000000 1.0
C      1  0.5094010000000  0.4459190000000  0.5785690000000 1.0
C      1  0.4574230000000  0.4722190000000  0.4866650000000 1.0
C      1  0.4879480000000  0.5980710000000  0.4792680000000 1.0
C      1  0.4644200000000  0.5245240000000  0.4351030000000 1.0
C      1  0.5681370000000  0.5059310000000  0.4201120000000 1.0
C      1  0.5873740000000  0.5087020000000  0.5302720000000 1.0
C      1  0.4260510000000  0.5239450000000  0.4243140000000 1.0
C      1  0.4492640000000  0.5464170000000  0.4135150000000 1.0
C      1  0.5324380000000  0.4232680000000  0.5161550000000 1.0
C      1  0.5795910000000  0.5289840000000  0.5490160000000 1.0
C      1  0.5380270000000  0.5192080000000  0.4600690000000 1.0
C      1  0.5497710000000  0.5724860000000  0.5461570000000 1.0
C      1  0.5074730000000  0.5563560000000  0.4279950000000 1.0
C      1  0.4464120000000  0.4477610000000  0.5740330000000 1.0
C      1  0.4871630000000  0.4878890000000  0.5973960000000 1.0
C      1  0.3799090000000  0.4369030000000  0.5160570000000 1.0
C      1  0.5054750000000  0.5767570000000  0.4471860000000 1.0
C      1  0.5376080000000  0.4230270000000  0.4618080000000 1.0
C      1  0.4124940000000  0.4943540000000  0.5209560000000 1.0
C      1  0.5694490000000  0.4588310000000  0.5105190000000 1.0
C      1  0.5297400000000  0.4748060000000  0.4346150000000 1.0
C      1  0.4391610000000  0.4819440000000  0.4497700000000 1.0
C      1  0.5142360000000  0.3979710000000  0.5084870000000 1.0
C      1  0.5658020000000  0.4407790000000  0.4586310000000 1.0
C      1  0.5140680000000  0.4715400000000  0.5903060000000 1.0
C      1  0.5472910000000  0.5069820000000  0.5138510000000 1.0
C      1  0.4323410000000  0.4922270000000  0.4982680000000 1.0
C      1  0.4596690000000  0.5321310000000  0.5519390000000 1.0
C      1  0.6005380000000  0.4943460000000  0.4854260000000 1.0
C      1  0.4438690000000  0.5554910000000  0.5806760000000 1.0
C      1  0.4854730000000  0.4818830000000  0.5579710000000 1.0
C      1  0.5284410000000  0.4593260000000  0.4758490000000 1.0
C      1  0.4298590000000  0.5093460000000  0.4511350000000 1.0
C      1  0.5645890000000  0.4724400000000  0.4151980000000 1.0
C      1  0.4531960000000  0.5279970000000  0.4669510000000 1.0
C      1  0.5559730000000  0.5219530000000  0.5628610000000 1.0
C      1  0.4961480000000  0.4962950000000  0.4647420000000 1.0
C      1  0.4666680000000  0.4956500000000  0.3922850000000 1.0
C      1  0.4927020000000  0.5726220000000  0.5584910000000 1.0
C      1  0.4160750000000  0.5488810000000  0.5317890000000 1.0
C      1  0.4559180000000  0.4977880000000  0.5172370000000 1.0
C      1  0.5017750000000  0.5414410000000  0.4741350000000 1.0
C      1  0.4478740000000  0.5364580000000  0.6005090000000 1.0
C      1  0.5340950000000  0.5182850000000  0.5424430000000 1.0
C      1  0.5109920000000  0.4613800000000  0.4087690000000 1.0
C      1  0.5622430000000  0.4622750000000  0.4809290000000 1.0
C      1  0.4631230000000  0.5711440000000  0.5600060000000 1.0
C      1  0.5007810000000  0.5217050000000  0.4464120000000 1.0
C      1  0.5338490000000  0.5423650000000  0.4375620000000 1.0
C      1  0.5079040000000  0.5237480000000  0.5013210000000 1.0
C      1  0.5185080000000  0.4326780000000  0.5546750000000 1.0
C      1  0.4827840000000  0.5473080000000  0.4192410000000 1.0
C      1  0.4358130000000  0.4652160000000  0.5518720000000 1.0
C      1  0.4711150000000  0.4188090000000  0.4901790000000 1.0
C      1  0.5326400000000  0.4805420000000  0.5001840000000 1.0
C      1  0.5209380000000  0.4311430000000  0.4872460000000 1.0
C      1  0.4287890000000  0.4384720000000  0.4759500000000 1.0
C      1  0.4389580000000  0.4973180000000  0.5779250000000 1.0
C      1  0.5724340000000  0.5326470000000  0.4410850000000 1.0
C      1  0.4997500000000  0.4649740000000  0.4612170000000 1.0
C      1  0.4962560000000  0.5075840000000  0.3957350000000 1.0
C      1  0.5509760000000  0.5286280000000  0.4905450000000 1.0
C      1  0.5269210000000  0.5690190000000  0.5603900000000 1.0
C      1  0.5730110000000  0.4880790000000  0.4693740000000 1.0
C      1  0.4811820000000  0.5137750000000  0.5075160000000 1.0
C      1  0.5545530000000  0.4706670000000  0.5579040000000 1.0
C      1  0.5510490000000  0.4947550000000  0.4455630000000 1.0
C      1  0.4222650000000  0.5556880000000  0.5041900000000 1.0
C      1  0.5305210000000  0.5541090000000  0.4863050000000 1.0
C      1  0.4126510000000  0.4682770000000  0.5354120000000 1.0
C      1  0.4363850000000  0.5166690000000  0.5577090000000 1.0
C      1  0.4699870000000  0.4750500000000  0.4467370000000 1.0
C      1  0.5433920000000  0.4643150000000  0.3988360000000 1.0
C      1  0.4613220000000  0.4757300000000  0.5807580000000 1.0
C      1  0.5232770000000  0.4720530000000  0.5496710000000 1.0
C      1  0.5395300000000  0.4834470000000  0.5843350000000 1.0
C      1  0.5607250000000  0.4349680000000  0.5238360000000 1.0
C      1  0.5130730000000  0.5011220000000  0.5546300000000 1.0
C      1  0.4155330000000  0.5193010000000  0.5371440000000 1.0
C      1  0.4676400000000  0.4191110000000  0.5393030000000 1.0
C      1  0.5462550000000  0.5114790000000  0.5876710000000 1.0
C      1  0.4976860000000  0.4231890000000  0.5362710000000 1.0
END
