TITL C-2778430-5657-749 0.0023091311456817 125000 -962.334022627183 0 0 166 (C1) n - 1
REM
REM in /home/nfs/bkarasulu/CARBON/AIRSS/Generating-Clusters/REBO/Only-C1/SD-CG/HFTN-CG
REM
REM
REM
REM
REM
REM ./C.cell (11c1c37f851c82e70ff6c80c92926a4b)
REM
REM compiler GCC version 9.2.1 20190827 (Red Hat 9.2.1-1)
REM options -cpp -mtune=generic -march=x86-64 -g -O0 -fpre-include=/usr/include/finclude/math-vector-fortran.h
REM seed 533642760 959232713 141887954 -1169267132 -1660656949 -499220393 -1385305829 432869841 -624557907 324020831 602248545 578395365 -1840873316 -1459239182 -1158174194 -1594274180 -939809602 -914645565 166858968 -1379954505 -636357522 -1326105911 374570175 557352578 -845463452 554857289 -334094173 -412993530 -1220583539 841988519 -432019226 1429899920 -1136202381
REM
CELL 1.54180   50.00000   50.00000   50.00000   90.00000   90.00000   90.00000
LATT -1
SFAC C  
C      1  0.5201620000000  0.5373880000000  0.4521410000000 1.0
C      1  0.5127680000000  0.5180570000000  0.5852300000000 1.0
C      1  0.5219120000000  0.4736700000000  0.4038520000000 1.0
C      1  0.5140510000000  0.5190820000000  0.5057980000000 1.0
C      1  0.4984370000000  0.4899360000000  0.3897700000000 1.0
C      1  0.5561760000000  0.5209090000000  0.4573470000000 1.0
C      1  0.5003090000000  0.5278120000000  0.4274370000000 1.0
C      1  0.3975020000000  0.4775000000000  0.4810240000000 1.0
C      1  0.5932390000000  0.4573350000000  0.5492960000000 1.0
C      1  0.4159960000000  0.5386060000000  0.4706060000000 1.0
C      1  0.4453520000000  0.5154630000000  0.4883420000000 1.0
C      1  0.5693120000000  0.5789980000000  0.4825240000000 1.0
C      1  0.5278990000000  0.5374970000000  0.4825360000000 1.0
C      1  0.5581940000000  0.5514000000000  0.4463290000000 1.0
C      1  0.5355490000000  0.4117320000000  0.4594770000000 1.0
C      1  0.5510450000000  0.4488490000000  0.5811980000000 1.0
C      1  0.5078380000000  0.4609420000000  0.4282390000000 1.0
C      1  0.4559820000000  0.5269400000000  0.5414790000000 1.0
C      1  0.4064430000000  0.4847050000000  0.5348170000000 1.0
C      1  0.5821170000000  0.5092750000000  0.4500580000000 1.0
C      1  0.4896550000000  0.4953920000000  0.5960650000000 1.0
C      1  0.5468770000000  0.5878220000000  0.5446320000000 1.0
C      1  0.4871980000000  0.5161240000000  0.5429170000000 1.0
C      1  0.5631700000000  0.4708030000000  0.4297180000000 1.0
C      1  0.5301620000000  0.3939410000000  0.5069430000000 1.0
C      1  0.4118720000000  0.4470010000000  0.4835580000000 1.0
C      1  0.4864720000000  0.4061850000000  0.5565600000000 1.0
C      1  0.5273860000000  0.5923780000000  0.5109860000000 1.0
C      1  0.4182730000000  0.5587540000000  0.4900830000000 1.0
C      1  0.5075010000000  0.4988740000000  0.5605080000000 1.0
C      1  0.4699380000000  0.4218410000000  0.5768590000000 1.0
C      1  0.4442610000000  0.5372150000000  0.5113070000000 1.0
C      1  0.5113480000000  0.4867780000000  0.4500980000000 1.0
C      1  0.4891210000000  0.5292310000000  0.4756920000000 1.0
C      1  0.5151430000000  0.4281720000000  0.5209900000000 1.0
C      1  0.5654240000000  0.4897000000000  0.4805180000000 1.0
C      1  0.5597360000000  0.4737650000000  0.5955720000000 1.0
C      1  0.5179560000000  0.5624860000000  0.4139280000000 1.0
C      1  0.5874290000000  0.5418040000000  0.5260390000000 1.0
C      1  0.4402720000000  0.4840730000000  0.5751630000000 1.0
C      1  0.4543760000000  0.5457100000000  0.5907980000000 1.0
C      1  0.5056950000000  0.5382000000000  0.5301220000000 1.0
C      1  0.4308290000000  0.4561630000000  0.4349030000000 1.0
C      1  0.4519240000000  0.4011370000000  0.5039700000000 1.0
C      1  0.5520470000000  0.5140560000000  0.5217520000000 1.0
C      1  0.5515830000000  0.5912880000000  0.4625590000000 1.0
C      1  0.6162650000000  0.5036060000000  0.5225510000000 1.0
C      1  0.4885570000000  0.5959700000000  0.5189700000000 1.0
C      1  0.4357080000000  0.4825090000000  0.4913400000000 1.0
C      1  0.5016440000000  0.4693140000000  0.5337150000000 1.0
C      1  0.4816320000000  0.5657790000000  0.5870880000000 1.0
C      1  0.5982310000000  0.4781120000000  0.5235370000000 1.0
C      1  0.5263190000000  0.6050230000000  0.4430230000000 1.0
C      1  0.4404810000000  0.4357580000000  0.4779610000000 1.0
C      1  0.4324170000000  0.5110640000000  0.4345700000000 1.0
C      1  0.5808820000000  0.5487910000000  0.4717290000000 1.0
C      1  0.5680110000000  0.4867870000000  0.5265920000000 1.0
C      1  0.5453730000000  0.5349910000000  0.5480570000000 1.0
C      1  0.5550440000000  0.4664140000000  0.4620920000000 1.0
C      1  0.5485340000000  0.5189750000000  0.4054780000000 1.0
C      1  0.4856060000000  0.4308590000000  0.5332530000000 1.0
C      1  0.5331840000000  0.4971760000000  0.5450050000000 1.0
C      1  0.4931850000000  0.5972010000000  0.4440500000000 1.0
C      1  0.4694370000000  0.4696900000000  0.5866820000000 1.0
C      1  0.5063450000000  0.5791320000000  0.5699210000000 1.0
C      1  0.5136490000000  0.5951350000000  0.5420290000000 1.0
C      1  0.4601640000000  0.4086590000000  0.4716880000000 1.0
C      1  0.4717170000000  0.4698830000000  0.3961690000000 1.0
C      1  0.4791970000000  0.4613370000000  0.4556660000000 1.0
C      1  0.4753710000000  0.3997850000000  0.5249010000000 1.0
C      1  0.4666540000000  0.4887430000000  0.5457630000000 1.0
C      1  0.5972430000000  0.4948600000000  0.4748530000000 1.0
C      1  0.4211980000000  0.4604860000000  0.5346820000000 1.0
C      1  0.4012100000000  0.4929730000000  0.4510170000000 1.0
C      1  0.5243140000000  0.4498850000000  0.5430730000000 1.0
C      1  0.5611660000000  0.5905490000000  0.5137620000000 1.0
C      1  0.4809220000000  0.6045200000000  0.4749180000000 1.0
C      1  0.4595010000000  0.5955120000000  0.5001640000000 1.0
C      1  0.5024770000000  0.4508410000000  0.4664300000000 1.0
C      1  0.4471750000000  0.5695600000000  0.5181820000000 1.0
C      1  0.4306160000000  0.5390910000000  0.4450110000000 1.0
C      1  0.5975060000000  0.5271400000000  0.4825380000000 1.0
C      1  0.4343900000000  0.4888980000000  0.4599060000000 1.0
C      1  0.5675630000000  0.4340950000000  0.5295570000000 1.0
C      1  0.4794050000000  0.5640390000000  0.5144740000000 1.0
C      1  0.4865210000000  0.5694870000000  0.4253520000000 1.0
C      1  0.5414190000000  0.5414550000000  0.4182250000000 1.0
C      1  0.5079080000000  0.4213190000000  0.4698540000000 1.0
C      1  0.4510170000000  0.4356590000000  0.5620360000000 1.0
C      1  0.5448680000000  0.4894060000000  0.4156980000000 1.0
C      1  0.4747120000000  0.4591930000000  0.4220070000000 1.0
C      1  0.4557670000000  0.5057330000000  0.4119910000000 1.0
C      1  0.4863690000000  0.4973850000000  0.4209070000000 1.0
C      1  0.5511480000000  0.4622740000000  0.5390340000000 1.0
C      1  0.4853820000000  0.4411800000000  0.5921170000000 1.0
C      1  0.5323120000000  0.5593690000000  0.5329300000000 1.0
C      1  0.4136090000000  0.5009390000000  0.5087510000000 1.0
C      1  0.5063480000000  0.6076040000000  0.4932600000000 1.0
C      1  0.5702510000000  0.5588100000000  0.5100120000000 1.0
C      1  0.4674340000000  0.5815280000000  0.5615920000000 1.0
C      1  0.4678450000000  0.4373450000000  0.4982020000000 1.0
C      1  0.4418970000000  0.5005660000000  0.5264490000000 1.0
C      1  0.5368170000000  0.4251590000000  0.4970610000000 1.0
C      1  0.5323820000000  0.4514480000000  0.4783350000000 1.0
C      1  0.5589830000000  0.4032390000000  0.5221100000000 1.0
C      1  0.4642610000000  0.4558060000000  0.5375530000000 1.0
C      1  0.5137930000000  0.4217690000000  0.5603890000000 1.0
C      1  0.4067230000000  0.4249660000000  0.5051360000000 1.0
C      1  0.5813560000000  0.5079320000000  0.5652500000000 1.0
C      1  0.5682980000000  0.4538460000000  0.5040020000000 1.0
C      1  0.4654210000000  0.5070230000000  0.5748470000000 1.0
C      1  0.4206620000000  0.5784900000000  0.5349140000000 1.0
C      1  0.5341620000000  0.5374760000000  0.5765860000000 1.0
C      1  0.4169830000000  0.5284920000000  0.5497150000000 1.0
C      1  0.4675320000000  0.5299710000000  0.4329680000000 1.0
C      1  0.4137150000000  0.5482500000000  0.5221210000000 1.0
C      1  0.4315800000000  0.4566650000000  0.5604940000000 1.0
C      1  0.5968000000000  0.4682370000000  0.4928840000000 1.0
C      1  0.5211320000000  0.4116380000000  0.4334170000000 1.0
C      1  0.5510880000000  0.5167970000000  0.4909670000000 1.0
C      1  0.5375370000000  0.5616630000000  0.5000140000000 1.0
C      1  0.4262710000000  0.4068490000000  0.5109720000000 1.0
C      1  0.5323440000000  0.5077110000000  0.4402310000000 1.0
C      1  0.4545740000000  0.5583420000000  0.4296230000000 1.0
C      1  0.5812520000000  0.4518730000000  0.4453120000000 1.0
C      1  0.4354570000000  0.5798250000000  0.4816740000000 1.0
C      1  0.4068270000000  0.4600890000000  0.4527560000000 1.0
C      1  0.5419350000000  0.5780090000000  0.4326000000000 1.0
C      1  0.4367060000000  0.4798960000000  0.4210310000000 1.0
C      1  0.4852030000000  0.4846710000000  0.4930400000000 1.0
C      1  0.5815600000000  0.4949910000000  0.5931090000000 1.0
C      1  0.4676240000000  0.5005170000000  0.5069280000000 1.0
C      1  0.4874140000000  0.4110510000000  0.4886570000000 1.0
C      1  0.4622060000000  0.5177350000000  0.4623140000000 1.0
C      1  0.4978000000000  0.4695130000000  0.5675070000000 1.0
C      1  0.5420320000000  0.4743430000000  0.4989730000000 1.0
C      1  0.5068270000000  0.5218690000000  0.3973420000000 1.0
C      1  0.4439270000000  0.4587560000000  0.5103530000000 1.0
C      1  0.4482000000000  0.4377370000000  0.4471010000000 1.0
C      1  0.4400880000000  0.5740370000000  0.5572890000000 1.0
C      1  0.4961290000000  0.4984960000000  0.4712070000000 1.0
C      1  0.4049470000000  0.5111850000000  0.4791280000000 1.0
C      1  0.4474330000000  0.5733980000000  0.4555380000000 1.0
C      1  0.5763440000000  0.5302190000000  0.5489170000000 1.0
C      1  0.6056260000000  0.5273830000000  0.5105490000000 1.0
C      1  0.4845840000000  0.5545490000000  0.4865180000000 1.0
C      1  0.4886720000000  0.4601320000000  0.5063600000000 1.0
C      1  0.5176060000000  0.4457570000000  0.5819680000000 1.0
C      1  0.5077910000000  0.5661920000000  0.4518080000000 1.0
C      1  0.4162100000000  0.5004970000000  0.5570910000000 1.0
C      1  0.5018880000000  0.3902820000000  0.5078940000000 1.0
C      1  0.5562640000000  0.4848710000000  0.5641270000000 1.0
C      1  0.4900410000000  0.5633470000000  0.5447120000000 1.0
C      1  0.5302460000000  0.5642940000000  0.5836060000000 1.0
C      1  0.4658800000000  0.4890550000000  0.4468090000000 1.0
C      1  0.5727140000000  0.4394720000000  0.5630590000000 1.0
C      1  0.5201610000000  0.5889700000000  0.4719770000000 1.0
C      1  0.4396110000000  0.5442180000000  0.5647770000000 1.0
C      1  0.4988440000000  0.4292210000000  0.4317770000000 1.0
C      1  0.4731210000000  0.5740960000000  0.4694990000000 1.0
C      1  0.5216590000000  0.4893080000000  0.5147980000000 1.0
C      1  0.5834250000000  0.4420000000000  0.4758890000000 1.0
C      1  0.5366810000000  0.4120020000000  0.5413700000000 1.0
C      1  0.4839810000000  0.5323790000000  0.5883690000000 1.0
C      1  0.5596290000000  0.4214910000000  0.4744540000000 1.0
C      1  0.4740140000000  0.4231280000000  0.4436710000000 1.0
END
