TITL C-2778431-5191-428 0.000392751107391694 125000 -340.809606126398 0 0 61 (C1) n - 1
REM
REM in /home/nfs/bkarasulu/CARBON/AIRSS/Generating-Clusters/REBO/Only-C1/SD-CG/HFTN-CG
REM
REM
REM
REM
REM
REM ./C.cell (11c1c37f851c82e70ff6c80c92926a4b)
REM
REM compiler GCC version 9.2.1 20190827 (Red Hat 9.2.1-1)
REM options -cpp -mtune=generic -march=x86-64 -g -O0 -fpre-include=/usr/include/finclude/math-vector-fortran.h
REM seed 1304187245 -1173093220 -503781224 1074840894 108435733 -1193141504 -1792881416 1956957767 1746487470 1996806470 8756134 -1352919429 -1382088097 -1893081694 13392183 1389294868 1328117046 697503742 97867540 1498345672 70030275 -760584563 2118352294 -1117087372 1816373299 -662552368 121427669 -1181432052 6531228 100459160 -495606566 -1039316272 1973608553
REM
CELL 1.54180   50.00000   50.00000   50.00000   90.00000   90.00000   90.00000
LATT -1
SFAC C  
C      1  0.4226860000000  0.5393840000000  0.5047450000000 1.0
C      1  0.4844660000000  0.5314500000000  0.4382730000000 1.0
C      1  0.4741460000000  0.4227620000000  0.5441910000000 1.0
C      1  0.4922230000000  0.4630970000000  0.4566620000000 1.0
C      1  0.5033860000000  0.4592430000000  0.5285070000000 1.0
C      1  0.4464330000000  0.5118670000000  0.5570000000000 1.0
C      1  0.4798840000000  0.5159170000000  0.5514970000000 1.0
C      1  0.4278090000000  0.4953150000000  0.5258370000000 1.0
C      1  0.4251930000000  0.4449310000000  0.5391540000000 1.0
C      1  0.5187320000000  0.5579600000000  0.5130770000000 1.0
C      1  0.5293540000000  0.5101860000000  0.5480300000000 1.0
C      1  0.5412320000000  0.4515870000000  0.4642000000000 1.0
C      1  0.6039940000000  0.5184270000000  0.5375900000000 1.0
C      1  0.5211580000000  0.4580900000000  0.4418340000000 1.0
C      1  0.4571430000000  0.5378400000000  0.5405740000000 1.0
C      1  0.5130190000000  0.5386590000000  0.4320850000000 1.0
C      1  0.4339010000000  0.5143130000000  0.5071240000000 1.0
C      1  0.4903330000000  0.5982030000000  0.5295690000000 1.0
C      1  0.5173980000000  0.5051250000000  0.4814570000000 1.0
C      1  0.4630030000000  0.5168740000000  0.4610410000000 1.0
C      1  0.5710710000000  0.4508760000000  0.5475670000000 1.0
C      1  0.5204980000000  0.4198100000000  0.5526740000000 1.0
C      1  0.5340560000000  0.4996760000000  0.4565760000000 1.0
C      1  0.5525910000000  0.4658080000000  0.5336510000000 1.0
C      1  0.5697910000000  0.5348360000000  0.4567370000000 1.0
C      1  0.4969770000000  0.4796520000000  0.4829590000000 1.0
C      1  0.4927680000000  0.5368080000000  0.5073640000000 1.0
C      1  0.5534600000000  0.4952810000000  0.5325210000000 1.0
C      1  0.5068660000000  0.5030080000000  0.5625410000000 1.0
C      1  0.5532480000000  0.5568740000000  0.4626910000000 1.0
C      1  0.5378920000000  0.4502470000000  0.4909250000000 1.0
C      1  0.4976150000000  0.5301820000000  0.4759880000000 1.0
C      1  0.5054130000000  0.5636100000000  0.4759310000000 1.0
C      1  0.4974250000000  0.4356230000000  0.4377470000000 1.0
C      1  0.4870000000000  0.4891970000000  0.5308560000000 1.0
C      1  0.5131140000000  0.4885800000000  0.4340120000000 1.0
C      1  0.4590550000000  0.4823170000000  0.5492210000000 1.0
C      1  0.5334790000000  0.5083720000000  0.5082950000000 1.0
C      1  0.5587620000000  0.5099130000000  0.4536530000000 1.0
C      1  0.4708510000000  0.5486930000000  0.4635090000000 1.0
C      1  0.4745110000000  0.5674910000000  0.4895220000000 1.0
C      1  0.4490420000000  0.4762670000000  0.4794490000000 1.0
C      1  0.5808880000000  0.5078440000000  0.5352730000000 1.0
C      1  0.5318370000000  0.4557560000000  0.5176700000000 1.0
C      1  0.5270750000000  0.5324490000000  0.5273800000000 1.0
C      1  0.4558560000000  0.4601500000000  0.5024450000000 1.0
C      1  0.4624080000000  0.4734410000000  0.4537740000000 1.0
C      1  0.5369160000000  0.5654820000000  0.4872990000000 1.0
C      1  0.4862340000000  0.4809160000000  0.5696740000000 1.0
C      1  0.4841980000000  0.4598800000000  0.5041190000000 1.0
C      1  0.5247710000000  0.5560200000000  0.4506430000000 1.0
C      1  0.4890090000000  0.4136440000000  0.4277300000000 1.0
C      1  0.4406990000000  0.4656680000000  0.5289890000000 1.0
C      1  0.4942110000000  0.5777130000000  0.5136880000000 1.0
C      1  0.4654540000000  0.5507940000000  0.5176640000000 1.0
C      1  0.4840100000000  0.5041900000000  0.5031640000000 1.0
C      1  0.5255290000000  0.5163390000000  0.4213320000000 1.0
C      1  0.4553140000000  0.5052160000000  0.4878830000000 1.0
C      1  0.4818610000000  0.4976950000000  0.4398770000000 1.0
C      1  0.4980630000000  0.4369440000000  0.5498330000000 1.0
C      1  0.4946890000000  0.4555070000000  0.5747280000000 1.0
END
