TITL C-2778427-5640-26 -0.00176317578091564 125000 -867.056888708637 0 0 149 (C1) n - 1
REM
REM in /home/nfs/bkarasulu/CARBON/AIRSS/Generating-Clusters/REBO/Only-C1/SD-CG/HFTN-CG
REM
REM
REM
REM
REM
REM ./C.cell (11c1c37f851c82e70ff6c80c92926a4b)
REM
REM compiler GCC version 9.2.1 20190827 (Red Hat 9.2.1-1)
REM options -cpp -mtune=generic -march=x86-64 -g -O0 -fpre-include=/usr/include/finclude/math-vector-fortran.h
REM seed -1472406977 373332683 1999101108 948709795 1775106270 302397477 -1219051404 -261634354 1015543064 685113081 -2026721967 -931212299 1254675457 1963237251 1229341581 5945758 1936000924 -318703946 748437995 -117633494 1903697604 -1463168372 35217301 2026908460 1783379482 379635402 -780537952 -1279186188 -1000457579 -942780199 -319387697 -83124559 1437074222
REM
CELL 1.54180   50.00000   50.00000   50.00000   90.00000   90.00000   90.00000
LATT -1
SFAC C  
C      1  0.5666040000000  0.5130370000000  0.4314370000000 1.0
C      1  0.4310350000000  0.4940750000000  0.4673440000000 1.0
C      1  0.6135940000000  0.5070090000000  0.5155150000000 1.0
C      1  0.4630280000000  0.4656960000000  0.5236080000000 1.0
C      1  0.5501880000000  0.5317100000000  0.5073550000000 1.0
C      1  0.5606040000000  0.4687820000000  0.4940670000000 1.0
C      1  0.5601430000000  0.4793080000000  0.5717810000000 1.0
C      1  0.4928180000000  0.5157100000000  0.5438910000000 1.0
C      1  0.4204300000000  0.5190390000000  0.4499290000000 1.0
C      1  0.5710690000000  0.5425450000000  0.4711870000000 1.0
C      1  0.4854580000000  0.4000260000000  0.5043170000000 1.0
C      1  0.5025700000000  0.5905930000000  0.5420110000000 1.0
C      1  0.5510930000000  0.5374680000000  0.5787370000000 1.0
C      1  0.4677190000000  0.4853690000000  0.3937550000000 1.0
C      1  0.4779190000000  0.4242470000000  0.4389060000000 1.0
C      1  0.5521460000000  0.4632050000000  0.4613640000000 1.0
C      1  0.5526630000000  0.4967250000000  0.4674230000000 1.0
C      1  0.4371190000000  0.4478420000000  0.4499610000000 1.0
C      1  0.5070300000000  0.3822620000000  0.4848220000000 1.0
C      1  0.4718470000000  0.4974190000000  0.4750680000000 1.0
C      1  0.4998170000000  0.5502340000000  0.4567570000000 1.0
C      1  0.4684390000000  0.5808450000000  0.4339380000000 1.0
C      1  0.5728040000000  0.5415710000000  0.4416690000000 1.0
C      1  0.5280650000000  0.4461010000000  0.4463190000000 1.0
C      1  0.5381720000000  0.4176490000000  0.4568870000000 1.0
C      1  0.5345070000000  0.3913320000000  0.4759500000000 1.0
C      1  0.4635300000000  0.4845830000000  0.5744750000000 1.0
C      1  0.4684130000000  0.5250580000000  0.4880450000000 1.0
C      1  0.5066400000000  0.5146070000000  0.6059520000000 1.0
C      1  0.5013310000000  0.4329210000000  0.4592700000000 1.0
C      1  0.5706860000000  0.5486990000000  0.5385810000000 1.0
C      1  0.4566660000000  0.5621480000000  0.5484230000000 1.0
C      1  0.4940870000000  0.4541680000000  0.5242770000000 1.0
C      1  0.4323600000000  0.4645660000000  0.5894170000000 1.0
C      1  0.5608890000000  0.5652110000000  0.4312290000000 1.0
C      1  0.4243260000000  0.5186410000000  0.5159440000000 1.0
C      1  0.5684360000000  0.4498250000000  0.5455830000000 1.0
C      1  0.5156000000000  0.4609220000000  0.5455320000000 1.0
C      1  0.4182720000000  0.4592610000000  0.5008030000000 1.0
C      1  0.4867370000000  0.4678470000000  0.5904500000000 1.0
C      1  0.4045740000000  0.4907810000000  0.4447280000000 1.0
C      1  0.4764830000000  0.5237120000000  0.5703770000000 1.0
C      1  0.4107620000000  0.5230870000000  0.5427600000000 1.0
C      1  0.4734130000000  0.5078650000000  0.5177760000000 1.0
C      1  0.4460970000000  0.5695900000000  0.5168410000000 1.0
C      1  0.4501030000000  0.5382770000000  0.5631340000000 1.0
C      1  0.5668280000000  0.4841670000000  0.4137080000000 1.0
C      1  0.5523090000000  0.5845800000000  0.4759100000000 1.0
C      1  0.4509080000000  0.5303530000000  0.5154040000000 1.0
C      1  0.4977020000000  0.5991160000000  0.4965690000000 1.0
C      1  0.5041390000000  0.4162910000000  0.4824940000000 1.0
C      1  0.5953170000000  0.5045810000000  0.4941560000000 1.0
C      1  0.5750180000000  0.4424610000000  0.5069270000000 1.0
C      1  0.5276130000000  0.4841360000000  0.5103840000000 1.0
C      1  0.5310580000000  0.5488520000000  0.5530380000000 1.0
C      1  0.5122470000000  0.4634790000000  0.4864630000000 1.0
C      1  0.5815020000000  0.4874210000000  0.5492090000000 1.0
C      1  0.5102720000000  0.5437710000000  0.4249650000000 1.0
C      1  0.4834380000000  0.4570560000000  0.4692420000000 1.0
C      1  0.5301350000000  0.5478250000000  0.5216140000000 1.0
C      1  0.5687880000000  0.5118230000000  0.5770310000000 1.0
C      1  0.5968700000000  0.4605480000000  0.5350540000000 1.0
C      1  0.4070300000000  0.5271030000000  0.4913630000000 1.0
C      1  0.5756740000000  0.5614680000000  0.5151070000000 1.0
C      1  0.5079850000000  0.5134120000000  0.4097220000000 1.0
C      1  0.6042980000000  0.4481870000000  0.5061290000000 1.0
C      1  0.5061300000000  0.5144120000000  0.4959440000000 1.0
C      1  0.4769940000000  0.5238520000000  0.4190240000000 1.0
C      1  0.6115800000000  0.4905000000000  0.5369950000000 1.0
C      1  0.4836380000000  0.4757340000000  0.4432570000000 1.0
C      1  0.4691710000000  0.4149060000000  0.5374170000000 1.0
C      1  0.5439650000000  0.5799200000000  0.4488970000000 1.0
C      1  0.5196120000000  0.5109760000000  0.5577770000000 1.0
C      1  0.4475450000000  0.4417210000000  0.5752920000000 1.0
C      1  0.6020880000000  0.4867290000000  0.4727820000000 1.0
C      1  0.4273040000000  0.5221440000000  0.5644410000000 1.0
C      1  0.5429510000000  0.4616910000000  0.5292230000000 1.0
C      1  0.4990070000000  0.4222530000000  0.5731360000000 1.0
C      1  0.4929500000000  0.4830770000000  0.4120250000000 1.0
C      1  0.5192350000000  0.4675890000000  0.4270870000000 1.0
C      1  0.5351200000000  0.5885430000000  0.5521690000000 1.0
C      1  0.5177310000000  0.5398400000000  0.4811260000000 1.0
C      1  0.4790900000000  0.5572760000000  0.4234660000000 1.0
C      1  0.4304830000000  0.5665080000000  0.4682240000000 1.0
C      1  0.5572060000000  0.5671760000000  0.5632410000000 1.0
C      1  0.5359460000000  0.4942650000000  0.4139420000000 1.0
C      1  0.5294860000000  0.4195460000000  0.5324670000000 1.0
C      1  0.5210740000000  0.5286630000000  0.5857530000000 1.0
C      1  0.3945150000000  0.5022620000000  0.4813790000000 1.0
C      1  0.4588510000000  0.5980640000000  0.5048150000000 1.0
C      1  0.4244210000000  0.5561930000000  0.4942620000000 1.0
C      1  0.5407560000000  0.5042500000000  0.5337090000000 1.0
C      1  0.4034840000000  0.4677340000000  0.5770860000000 1.0
C      1  0.5292670000000  0.4835020000000  0.5655580000000 1.0
C      1  0.4694050000000  0.5749230000000  0.4821780000000 1.0
C      1  0.5008070000000  0.5473850000000  0.5666750000000 1.0
C      1  0.4377450000000  0.5239080000000  0.4231160000000 1.0
C      1  0.5022700000000  0.5351120000000  0.5196210000000 1.0
C      1  0.5570980000000  0.4248330000000  0.5251950000000 1.0
C      1  0.5304720000000  0.5960200000000  0.4945740000000 1.0
C      1  0.4326120000000  0.4949030000000  0.5738660000000 1.0
C      1  0.4606240000000  0.5081420000000  0.4444550000000 1.0
C      1  0.5638850000000  0.5026880000000  0.4979230000000 1.0
C      1  0.5430480000000  0.5281150000000  0.4682460000000 1.0
C      1  0.6133260000000  0.4623090000000  0.4828890000000 1.0
C      1  0.5140870000000  0.4586660000000  0.5793420000000 1.0
C      1  0.4788990000000  0.4378140000000  0.5831850000000 1.0
C      1  0.4846480000000  0.6084160000000  0.5244320000000 1.0
C      1  0.5700770000000  0.5655400000000  0.4876230000000 1.0
C      1  0.5121950000000  0.5776760000000  0.4458330000000 1.0
C      1  0.5807860000000  0.4888590000000  0.4507390000000 1.0
C      1  0.4283550000000  0.4916780000000  0.4997480000000 1.0
C      1  0.5362120000000  0.4469450000000  0.4992360000000 1.0
C      1  0.4844040000000  0.5698510000000  0.5542650000000 1.0
C      1  0.5046050000000  0.4263330000000  0.5148650000000 1.0
C      1  0.4191880000000  0.4581400000000  0.5524270000000 1.0
C      1  0.5433800000000  0.4203200000000  0.4880170000000 1.0
C      1  0.4637760000000  0.4403880000000  0.5463490000000 1.0
C      1  0.4761710000000  0.5533290000000  0.5149550000000 1.0
C      1  0.4260670000000  0.4286420000000  0.5521840000000 1.0
C      1  0.4567080000000  0.4769250000000  0.4939320000000 1.0
C      1  0.5273220000000  0.5797500000000  0.5212450000000 1.0
C      1  0.3998820000000  0.4723050000000  0.4796820000000 1.0
C      1  0.4511910000000  0.4760380000000  0.4487180000000 1.0
C      1  0.4372300000000  0.4128640000000  0.4142080000000 1.0
C      1  0.4694610000000  0.5471220000000  0.4673200000000 1.0
C      1  0.4736710000000  0.6073210000000  0.4749600000000 1.0
C      1  0.4077770000000  0.4602650000000  0.4520620000000 1.0
C      1  0.4836600000000  0.5015960000000  0.5943120000000 1.0
C      1  0.5681550000000  0.5181860000000  0.5434930000000 1.0
C      1  0.5733560000000  0.4609140000000  0.4348360000000 1.0
C      1  0.4513220000000  0.4270450000000  0.4332380000000 1.0
C      1  0.4527550000000  0.4493920000000  0.4783730000000 1.0
C      1  0.4954900000000  0.4864820000000  0.5136860000000 1.0
C      1  0.4302900000000  0.4157240000000  0.5281660000000 1.0
C      1  0.5460660000000  0.4480420000000  0.5713050000000 1.0
C      1  0.4556100000000  0.4052390000000  0.5089160000000 1.0
C      1  0.4453270000000  0.4756630000000  0.5477840000000 1.0
C      1  0.5115250000000  0.4954530000000  0.4451690000000 1.0
C      1  0.4368710000000  0.4322430000000  0.4997740000000 1.0
C      1  0.5175630000000  0.6052280000000  0.4644720000000 1.0
C      1  0.4429170000000  0.5434480000000  0.4499060000000 1.0
C      1  0.4999010000000  0.5652530000000  0.4937180000000 1.0
C      1  0.5342970000000  0.5176310000000  0.4391080000000 1.0
C      1  0.4886060000000  0.6016710000000  0.4466850000000 1.0
C      1  0.4542830000000  0.5099630000000  0.3990880000000 1.0
C      1  0.5245110000000  0.4249750000000  0.5605060000000 1.0
C      1  0.5024470000000  0.4916460000000  0.4746460000000 1.0
C      1  0.4426410000000  0.5831540000000  0.4461700000000 1.0
END
