TITL C-2778431-5191-27 -0.00118900013942292 125000 -240.516917816765 0 0 42 (C1) n - 1
REM
REM in /home/nfs/bkarasulu/CARBON/AIRSS/Generating-Clusters/REBO/Only-C1/SD-CG/HFTN-CG
REM
REM
REM
REM
REM
REM ./C.cell (11c1c37f851c82e70ff6c80c92926a4b)
REM
REM compiler GCC version 9.2.1 20190827 (Red Hat 9.2.1-1)
REM options -cpp -mtune=generic -march=x86-64 -g -O0 -fpre-include=/usr/include/finclude/math-vector-fortran.h
REM seed 552757369 -1403835656 -26324918 -1938948234 -1542479369 -245103318 -816600138 49073376 1325840498 -654919784 -1894792983 512362282 12425240 1657869428 267756060 -1075084769 -1570203974 1009767560 1339761540 -69809937 531014930 1792787679 -775476467 741830189 487394381 -2083500343 406793714 -2083881971 1366541553 2049603738 -391182324 -143927939 -571433531
REM
CELL 1.54180   50.00000   50.00000   50.00000   90.00000   90.00000   90.00000
LATT -1
SFAC C  
C      1  0.4898470000000  0.4523430000000  0.5381610000000 1.0
C      1  0.4918480000000  0.5366380000000  0.4415690000000 1.0
C      1  0.5372910000000  0.4371440000000  0.4871980000000 1.0
C      1  0.5398780000000  0.4966610000000  0.5021340000000 1.0
C      1  0.4378380000000  0.4967580000000  0.4762130000000 1.0
C      1  0.5616860000000  0.4784350000000  0.5051840000000 1.0
C      1  0.5373270000000  0.5164450000000  0.5474830000000 1.0
C      1  0.4854280000000  0.4918750000000  0.5008480000000 1.0
C      1  0.4895460000000  0.4330480000000  0.5180520000000 1.0
C      1  0.4495980000000  0.5523530000000  0.5337420000000 1.0
C      1  0.5263500000000  0.5419550000000  0.5413320000000 1.0
C      1  0.5158770000000  0.4971040000000  0.5518220000000 1.0
C      1  0.4814040000000  0.5542920000000  0.4968450000000 1.0
C      1  0.5339990000000  0.5599980000000  0.4715680000000 1.0
C      1  0.4915480000000  0.5135020000000  0.5521250000000 1.0
C      1  0.5328590000000  0.4996800000000  0.4549850000000 1.0
C      1  0.5038690000000  0.5645360000000  0.4828940000000 1.0
C      1  0.5427670000000  0.5131080000000  0.4781730000000 1.0
C      1  0.5153950000000  0.4687020000000  0.5384330000000 1.0
C      1  0.4566370000000  0.4796980000000  0.4873190000000 1.0
C      1  0.4193620000000  0.5109720000000  0.4642000000000 1.0
C      1  0.4969580000000  0.5408660000000  0.5418420000000 1.0
C      1  0.4881030000000  0.4964410000000  0.4695690000000 1.0
C      1  0.5157370000000  0.4564550000000  0.4692430000000 1.0
C      1  0.4718290000000  0.4308620000000  0.4919540000000 1.0
C      1  0.5144090000000  0.4888160000000  0.5127700000000 1.0
C      1  0.4302380000000  0.5417920000000  0.5170810000000 1.0
C      1  0.4770200000000  0.5534950000000  0.5256300000000 1.0
C      1  0.5107310000000  0.4820210000000  0.4592790000000 1.0
C      1  0.5391130000000  0.4494030000000  0.5375260000000 1.0
C      1  0.5085260000000  0.5570720000000  0.4516390000000 1.0
C      1  0.4772330000000  0.5211070000000  0.4606820000000 1.0
C      1  0.4374620000000  0.5336240000000  0.4917150000000 1.0
C      1  0.4666460000000  0.4682700000000  0.5420340000000 1.0
C      1  0.4547290000000  0.4517640000000  0.4855710000000 1.0
C      1  0.5450090000000  0.4337300000000  0.5189670000000 1.0
C      1  0.4636440000000  0.5369270000000  0.4811680000000 1.0
C      1  0.5642610000000  0.4549060000000  0.4912760000000 1.0
C      1  0.4636810000000  0.4898130000000  0.5251270000000 1.0
C      1  0.5525850000000  0.5401560000000  0.4793530000000 1.0
C      1  0.5046550000000  0.4311180000000  0.4877550000000 1.0
C      1  0.5770790000000  0.5461140000000  0.4895400000000 1.0
END
