TITL C-2778437-8639-812 0.000505955041230388 125000 -432.399392710119 0 0 75 (C1) n - 1
REM
REM in /home/nfs/bkarasulu/CARBON/AIRSS/Generating-Clusters/REBO/Only-C1/SD-CG/HFTN-CG
REM
REM
REM
REM
REM
REM ./C.cell (11c1c37f851c82e70ff6c80c92926a4b)
REM
REM compiler GCC version 9.2.1 20190827 (Red Hat 9.2.1-1)
REM options -cpp -mtune=generic -march=x86-64 -g -O0 -fpre-include=/usr/include/finclude/math-vector-fortran.h
REM seed 1298607004 1877179267 -877174655 930112189 1189289895 273412299 1000759186 -864992389 2108657023 -278119447 -561317007 -971522363 -1355784670 1970139233 1248019550 574807534 442339751 -297419329 -1908182345 221430009 416605324 -541011197 -628147171 1491193443 837942160 13856231 -1831727107 1855115684 91520103 -313739592 1480630061 -1988168681 39685897
REM
CELL 1.54180   50.00000   50.00000   50.00000   90.00000   90.00000   90.00000
LATT -1
SFAC C  
C      1  0.5154300000000  0.5184770000000  0.4918600000000 1.0
C      1  0.5658120000000  0.5170860000000  0.5197890000000 1.0
C      1  0.5159460000000  0.4296890000000  0.5094600000000 1.0
C      1  0.5075160000000  0.4769760000000  0.4917150000000 1.0
C      1  0.5254520000000  0.5185470000000  0.5606780000000 1.0
C      1  0.5440260000000  0.4337870000000  0.5118270000000 1.0
C      1  0.5142450000000  0.5583970000000  0.4909940000000 1.0
C      1  0.4842280000000  0.4980310000000  0.4805210000000 1.0
C      1  0.4957230000000  0.5303810000000  0.5713620000000 1.0
C      1  0.5119240000000  0.5772090000000  0.5388630000000 1.0
C      1  0.4488490000000  0.4714650000000  0.5461110000000 1.0
C      1  0.5190110000000  0.4340310000000  0.5490550000000 1.0
C      1  0.4661680000000  0.5528140000000  0.5311020000000 1.0
C      1  0.4607040000000  0.4974000000000  0.5648970000000 1.0
C      1  0.5433170000000  0.5620100000000  0.5376900000000 1.0
C      1  0.5062850000000  0.4741480000000  0.5406950000000 1.0
C      1  0.5541720000000  0.5431400000000  0.4621520000000 1.0
C      1  0.4420710000000  0.5344220000000  0.4702780000000 1.0
C      1  0.5352910000000  0.4715110000000  0.4462960000000 1.0
C      1  0.5334900000000  0.4433920000000  0.4634960000000 1.0
C      1  0.4687060000000  0.5239980000000  0.5680980000000 1.0
C      1  0.5495410000000  0.4470070000000  0.5407900000000 1.0
C      1  0.4925150000000  0.5314420000000  0.4237010000000 1.0
C      1  0.4657950000000  0.4679730000000  0.5752560000000 1.0
C      1  0.5668430000000  0.5470170000000  0.5315040000000 1.0
C      1  0.4773190000000  0.5276210000000  0.5172380000000 1.0
C      1  0.5432180000000  0.5173860000000  0.4247890000000 1.0
C      1  0.5666980000000  0.4961320000000  0.5423540000000 1.0
C      1  0.4295130000000  0.5273890000000  0.4977430000000 1.0
C      1  0.5050330000000  0.4353220000000  0.4629390000000 1.0
C      1  0.4868950000000  0.4516020000000  0.4426710000000 1.0
C      1  0.5527370000000  0.4983110000000  0.4445680000000 1.0
C      1  0.5062650000000  0.4593700000000  0.5159510000000 1.0
C      1  0.5196520000000  0.5517980000000  0.5600920000000 1.0
C      1  0.4977460000000  0.5629380000000  0.4614260000000 1.0
C      1  0.4783100000000  0.5104290000000  0.4332110000000 1.0
C      1  0.5523280000000  0.4460220000000  0.4871680000000 1.0
C      1  0.5183450000000  0.5502860000000  0.5201500000000 1.0
C      1  0.5368160000000  0.5425700000000  0.4380450000000 1.0
C      1  0.4636320000000  0.4972210000000  0.5195720000000 1.0
C      1  0.4348290000000  0.5025390000000  0.5081380000000 1.0
C      1  0.5737800000000  0.4694340000000  0.5381530000000 1.0
C      1  0.5108010000000  0.4697750000000  0.4285830000000 1.0
C      1  0.5435170000000  0.4962980000000  0.5584130000000 1.0
C      1  0.4944830000000  0.4274040000000  0.4879380000000 1.0
C      1  0.5622340000000  0.4753210000000  0.4898670000000 1.0
C      1  0.5305930000000  0.4717550000000  0.5542370000000 1.0
C      1  0.4234940000000  0.4803520000000  0.4969860000000 1.0
C      1  0.4567450000000  0.4580830000000  0.4574940000000 1.0
C      1  0.4987800000000  0.4875470000000  0.4076140000000 1.0
C      1  0.4250100000000  0.4430320000000  0.5112030000000 1.0
C      1  0.4666120000000  0.5534620000000  0.4722360000000 1.0
C      1  0.4946460000000  0.4323710000000  0.5430490000000 1.0
C      1  0.4906790000000  0.4971360000000  0.5384410000000 1.0
C      1  0.5582080000000  0.5643920000000  0.4783770000000 1.0
C      1  0.4537320000000  0.5458140000000  0.5557360000000 1.0
C      1  0.5717680000000  0.5025860000000  0.4910190000000 1.0
C      1  0.5093790000000  0.5496820000000  0.4376280000000 1.0
C      1  0.5634990000000  0.5155470000000  0.4668060000000 1.0
C      1  0.4884230000000  0.5364300000000  0.4896990000000 1.0
C      1  0.4410590000000  0.4804270000000  0.4383710000000 1.0
C      1  0.4684820000000  0.5147490000000  0.4626520000000 1.0
C      1  0.4773200000000  0.4369970000000  0.5157230000000 1.0
C      1  0.4590500000000  0.4637340000000  0.5144680000000 1.0
C      1  0.5365410000000  0.5159890000000  0.5038560000000 1.0
C      1  0.5065570000000  0.5251710000000  0.5332950000000 1.0
C      1  0.4380100000000  0.5066530000000  0.4510410000000 1.0
C      1  0.4791520000000  0.4682650000000  0.4778340000000 1.0
C      1  0.4422310000000  0.4555760000000  0.4858130000000 1.0
C      1  0.4848550000000  0.5761470000000  0.4905110000000 1.0
C      1  0.4322130000000  0.5579010000000  0.5668520000000 1.0
C      1  0.4720030000000  0.4779590000000  0.4266000000000 1.0
C      1  0.5338440000000  0.4801920000000  0.4781190000000 1.0
C      1  0.4829510000000  0.5752290000000  0.5223560000000 1.0
C      1  0.4269550000000  0.4513040000000  0.5347840000000 1.0
END
