TITL C-2778432-5617-289 0.000887431518971234 125000 -621.216864544415 0 0 108 (C1) n - 1
REM
REM in /home/nfs/bkarasulu/CARBON/AIRSS/Generating-Clusters/REBO/Only-C1/SD-CG/HFTN-CG
REM
REM
REM
REM
REM
REM ./C.cell (11c1c37f851c82e70ff6c80c92926a4b)
REM
REM compiler GCC version 9.2.1 20190827 (Red Hat 9.2.1-1)
REM options -cpp -mtune=generic -march=x86-64 -g -O0 -fpre-include=/usr/include/finclude/math-vector-fortran.h
REM seed -1509752661 -684981231 -2085329213 1298660531 -1906234546 1867799559 -529192067 1675638203 -1552588749 -433747203 -1562462256 -1896609390 -363072784 1977478495 1770860799 -1588092641 -2115775429 -2034085993 2055093981 -2029405221 95091310 -213354608 -562522578 654887529 1005087053 -1834372059 -1471075970 19027166 -471181150 662144318 1802050071 886657632 -506353929
REM
CELL 1.54180   50.00000   50.00000   50.00000   90.00000   90.00000   90.00000
LATT -1
SFAC C  
C      1  0.5041270000000  0.5101310000000  0.5554330000000 1.0
C      1  0.4999500000000  0.4605910000000  0.5359840000000 1.0
C      1  0.4743200000000  0.4145840000000  0.5236900000000 1.0
C      1  0.5326930000000  0.4349080000000  0.4389370000000 1.0
C      1  0.5545560000000  0.5292170000000  0.5065550000000 1.0
C      1  0.4356730000000  0.5023920000000  0.5495520000000 1.0
C      1  0.4243590000000  0.4679610000000  0.5073290000000 1.0
C      1  0.4727470000000  0.5394210000000  0.4873430000000 1.0
C      1  0.5040730000000  0.4147960000000  0.5114700000000 1.0
C      1  0.5372240000000  0.5199140000000  0.4718720000000 1.0
C      1  0.5553520000000  0.5195290000000  0.5610360000000 1.0
C      1  0.4977010000000  0.4544960000000  0.4823160000000 1.0
C      1  0.4588620000000  0.4249270000000  0.4829340000000 1.0
C      1  0.5322850000000  0.5726060000000  0.4796380000000 1.0
C      1  0.5511280000000  0.5495360000000  0.4793100000000 1.0
C      1  0.5256890000000  0.5793410000000  0.5522840000000 1.0
C      1  0.4510750000000  0.4450000000000  0.4578620000000 1.0
C      1  0.4785900000000  0.4997750000000  0.5530100000000 1.0
C      1  0.4448140000000  0.5423920000000  0.4676810000000 1.0
C      1  0.4871130000000  0.4255020000000  0.4874790000000 1.0
C      1  0.4687470000000  0.5118480000000  0.4590020000000 1.0
C      1  0.5205570000000  0.5106530000000  0.4224180000000 1.0
C      1  0.5445630000000  0.4605990000000  0.4686530000000 1.0
C      1  0.4461670000000  0.4489750000000  0.5489480000000 1.0
C      1  0.4741530000000  0.5791670000000  0.5575150000000 1.0
C      1  0.5453920000000  0.4850810000000  0.5271860000000 1.0
C      1  0.5214050000000  0.5319390000000  0.4992770000000 1.0
C      1  0.5577740000000  0.4896640000000  0.5564840000000 1.0
C      1  0.5064390000000  0.5471610000000  0.4298830000000 1.0
C      1  0.4580870000000  0.4691960000000  0.5115310000000 1.0
C      1  0.4028660000000  0.4927640000000  0.5126230000000 1.0
C      1  0.4831600000000  0.4477050000000  0.4545100000000 1.0
C      1  0.5453540000000  0.5323180000000  0.5370780000000 1.0
C      1  0.4769430000000  0.4456810000000  0.5204250000000 1.0
C      1  0.4767120000000  0.4600920000000  0.5572420000000 1.0
C      1  0.5093210000000  0.5015090000000  0.4935550000000 1.0
C      1  0.4599560000000  0.4834250000000  0.4638750000000 1.0
C      1  0.5621250000000  0.4989870000000  0.5081610000000 1.0
C      1  0.5030380000000  0.5624590000000  0.5642060000000 1.0
C      1  0.5844660000000  0.4627260000000  0.4672610000000 1.0
C      1  0.4552950000000  0.5701390000000  0.5381390000000 1.0
C      1  0.5723860000000  0.4326220000000  0.4740050000000 1.0
C      1  0.4848680000000  0.4785850000000  0.4946550000000 1.0
C      1  0.4949110000000  0.5249850000000  0.4114630000000 1.0
C      1  0.5467840000000  0.4408900000000  0.5366030000000 1.0
C      1  0.4553030000000  0.5385910000000  0.5626860000000 1.0
C      1  0.4452670000000  0.5681490000000  0.4876460000000 1.0
C      1  0.5819750000000  0.4526900000000  0.4998320000000 1.0
C      1  0.4060890000000  0.5062220000000  0.5418970000000 1.0
C      1  0.4249060000000  0.4984380000000  0.4505860000000 1.0
C      1  0.5462080000000  0.5050100000000  0.4168720000000 1.0
C      1  0.5543230000000  0.5354870000000  0.4484530000000 1.0
C      1  0.4326770000000  0.4418110000000  0.5252590000000 1.0
C      1  0.5289910000000  0.5924830000000  0.5290550000000 1.0
C      1  0.5855740000000  0.4763960000000  0.4361800000000 1.0
C      1  0.4675110000000  0.4951890000000  0.5264620000000 1.0
C      1  0.4411390000000  0.4718120000000  0.4390600000000 1.0
C      1  0.5056520000000  0.5536020000000  0.5145290000000 1.0
C      1  0.4056740000000  0.5463900000000  0.5141840000000 1.0
C      1  0.5279850000000  0.4763410000000  0.5794400000000 1.0
C      1  0.4298890000000  0.5073140000000  0.4999190000000 1.0
C      1  0.4028750000000  0.5349090000000  0.5418320000000 1.0
C      1  0.5120340000000  0.5364130000000  0.5843490000000 1.0
C      1  0.4488470000000  0.4766850000000  0.5658920000000 1.0
C      1  0.5635650000000  0.4890610000000  0.4664980000000 1.0
C      1  0.5777330000000  0.4417720000000  0.5274500000000 1.0
C      1  0.4795110000000  0.5118660000000  0.5001750000000 1.0
C      1  0.4716770000000  0.5802020000000  0.4890390000000 1.0
C      1  0.4298640000000  0.5641470000000  0.5117480000000 1.0
C      1  0.4627920000000  0.5428090000000  0.5190350000000 1.0
C      1  0.5287590000000  0.4303890000000  0.5159830000000 1.0
C      1  0.5012800000000  0.5860900000000  0.4783130000000 1.0
C      1  0.5013320000000  0.5123690000000  0.4488610000000 1.0
C      1  0.5409160000000  0.4593320000000  0.5574580000000 1.0
C      1  0.4555440000000  0.5078480000000  0.5759810000000 1.0
C      1  0.4250780000000  0.5191610000000  0.4703900000000 1.0
C      1  0.5696970000000  0.5068430000000  0.4407760000000 1.0
C      1  0.4879590000000  0.5733220000000  0.5136160000000 1.0
C      1  0.5068850000000  0.4418790000000  0.4318780000000 1.0
C      1  0.4892960000000  0.5436900000000  0.4578420000000 1.0
C      1  0.4463450000000  0.5171090000000  0.5218920000000 1.0
C      1  0.4465810000000  0.4217590000000  0.5099290000000 1.0
C      1  0.5925130000000  0.4186370000000  0.5332190000000 1.0
C      1  0.4297590000000  0.5507350000000  0.5458040000000 1.0
C      1  0.5574120000000  0.4567180000000  0.4385220000000 1.0
C      1  0.5232030000000  0.4694010000000  0.5214860000000 1.0
C      1  0.5523700000000  0.4226510000000  0.4587800000000 1.0
C      1  0.5154530000000  0.5343130000000  0.5387160000000 1.0
C      1  0.4830460000000  0.5424050000000  0.5453340000000 1.0
C      1  0.4599820000000  0.5378970000000  0.4395890000000 1.0
C      1  0.5795500000000  0.4655580000000  0.5496000000000 1.0
C      1  0.5233070000000  0.5928120000000  0.5021080000000 1.0
C      1  0.5338190000000  0.5498570000000  0.4297750000000 1.0
C      1  0.4912540000000  0.4671700000000  0.4208630000000 1.0
C      1  0.6303420000000  0.5070550000000  0.4816140000000 1.0
C      1  0.5180980000000  0.5026440000000  0.5801310000000 1.0
C      1  0.4009710000000  0.5220210000000  0.4943200000000 1.0
C      1  0.5847130000000  0.4851530000000  0.5001670000000 1.0
C      1  0.4916030000000  0.4809110000000  0.4518540000000 1.0
C      1  0.4785450000000  0.5390330000000  0.5849070000000 1.0
C      1  0.4690090000000  0.5133710000000  0.4190820000000 1.0
C      1  0.6081590000000  0.4964070000000  0.4906340000000 1.0
C      1  0.5261590000000  0.4535220000000  0.4923960000000 1.0
C      1  0.5450690000000  0.5315000000000  0.5838600000000 1.0
C      1  0.5317980000000  0.4896010000000  0.4760840000000 1.0
C      1  0.4359020000000  0.4670360000000  0.4783820000000 1.0
C      1  0.5604660000000  0.4788450000000  0.4139360000000 1.0
C      1  0.4659690000000  0.4849800000000  0.4214300000000 1.0
END
