TITL C-2778433-5640-330 0.00220571884116953 125000 -197.041987403677 0 0 35 (C1) n - 1
REM
REM in /home/nfs/bkarasulu/CARBON/AIRSS/Generating-Clusters/REBO/Only-C1/SD-CG/HFTN-CG
REM
REM
REM
REM
REM
REM ./C.cell (11c1c37f851c82e70ff6c80c92926a4b)
REM
REM compiler GCC version 9.2.1 20190827 (Red Hat 9.2.1-1)
REM options -cpp -mtune=generic -march=x86-64 -g -O0 -fpre-include=/usr/include/finclude/math-vector-fortran.h
REM seed -1967727211 1334108994 133475561 -527849574 2126149415 -1446733978 -603267788 1415616622 947432349 342577630 303749258 -388045126 -1094418044 -1070119999 -1462872613 -2036505049 1471049538 -1513340012 1496100425 -1960537571 -1485298151 -385585120 118543700 -529800228 751532832 -1994851899 -967056605 1015240955 375181502 -276452147 -132592839 -621102133 -638342993
REM
CELL 1.54180   50.00000   50.00000   50.00000   90.00000   90.00000   90.00000
LATT -1
SFAC C  
C      1  0.5208860000000  0.4401950000000  0.4884820000000 1.0
C      1  0.4973620000000  0.4809800000000  0.5247760000000 1.0
C      1  0.4663730000000  0.5327730000000  0.5325450000000 1.0
C      1  0.4579330000000  0.5159870000000  0.5067880000000 1.0
C      1  0.5115080000000  0.5034060000000  0.5424760000000 1.0
C      1  0.5537090000000  0.4892160000000  0.4793240000000 1.0
C      1  0.4920480000000  0.5232680000000  0.4383650000000 1.0
C      1  0.5393830000000  0.4634010000000  0.5322640000000 1.0
C      1  0.5481910000000  0.5172770000000  0.4847510000000 1.0
C      1  0.5029040000000  0.5411890000000  0.4894680000000 1.0
C      1  0.5406380000000  0.5502630000000  0.5198520000000 1.0
C      1  0.5066550000000  0.4501590000000  0.5120740000000 1.0
C      1  0.4546780000000  0.4928070000000  0.4521470000000 1.0
C      1  0.4758800000000  0.4592520000000  0.5104910000000 1.0
C      1  0.5475170000000  0.4560440000000  0.4742450000000 1.0
C      1  0.4547850000000  0.4690770000000  0.4945620000000 1.0
C      1  0.5183750000000  0.5290010000000  0.4445890000000 1.0
C      1  0.5440160000000  0.5057610000000  0.5325940000000 1.0
C      1  0.4978450000000  0.5307370000000  0.5378240000000 1.0
C      1  0.4585920000000  0.4679260000000  0.4657490000000 1.0
C      1  0.5522280000000  0.5250340000000  0.5129110000000 1.0
C      1  0.4316680000000  0.5401860000000  0.5750260000000 1.0
C      1  0.4965020000000  0.4924450000000  0.4950330000000 1.0
C      1  0.4724890000000  0.5143310000000  0.4568230000000 1.0
C      1  0.4801730000000  0.4519450000000  0.4560040000000 1.0
C      1  0.4750330000000  0.5516810000000  0.5058220000000 1.0
C      1  0.5419570000000  0.4702260000000  0.5039720000000 1.0
C      1  0.5157620000000  0.4787430000000  0.4801490000000 1.0
C      1  0.4809280000000  0.5173970000000  0.4861380000000 1.0
C      1  0.5268830000000  0.4748120000000  0.5509100000000 1.0
C      1  0.4428780000000  0.4932340000000  0.5046680000000 1.0
C      1  0.5075680000000  0.4544270000000  0.4629130000000 1.0
C      1  0.4476680000000  0.5367690000000  0.5554410000000 1.0
C      1  0.5266630000000  0.5319380000000  0.4715980000000 1.0
C      1  0.5123240000000  0.5481150000000  0.5192260000000 1.0
END
