TITL C-2778431-5191-1382 -0.00242747750541824 125000 -730.57355782963 0 0 124 (C1) n - 1
REM
REM in /home/nfs/bkarasulu/CARBON/AIRSS/Generating-Clusters/REBO/Only-C1/SD-CG/HFTN-CG
REM
REM
REM
REM
REM
REM ./C.cell (11c1c37f851c82e70ff6c80c92926a4b)
REM
REM compiler GCC version 9.2.1 20190827 (Red Hat 9.2.1-1)
REM options -cpp -mtune=generic -march=x86-64 -g -O0 -fpre-include=/usr/include/finclude/math-vector-fortran.h
REM seed -1352633778 1834438817 -1898827213 417804483 789652046 -1381550125 -1728890870 -1570810621 -1600804887 -2114683893 -821598006 485746300 -908753682 692337276 -973326918 -630442716 449746674 -1593882697 -1366964135 1542506825 -535491828 -1574543691 1833328129 667542860 -828522660 -133519300 -2089354289 1949348665 2015853807 689172097 468849465 -13551241 1249242008
REM
CELL 1.54180   50.00000   50.00000   50.00000   90.00000   90.00000   90.00000
LATT -1
SFAC C  
C      1  0.4646060000000  0.4158930000000  0.4657960000000 1.0
C      1  0.5371910000000  0.4744480000000  0.4981760000000 1.0
C      1  0.5058910000000  0.4592390000000  0.5974870000000 1.0
C      1  0.4514510000000  0.4588630000000  0.4387810000000 1.0
C      1  0.5006260000000  0.5615340000000  0.4626750000000 1.0
C      1  0.4873380000000  0.4300930000000  0.5374400000000 1.0
C      1  0.5512880000000  0.5807890000000  0.4916830000000 1.0
C      1  0.5300680000000  0.5557690000000  0.4688320000000 1.0
C      1  0.5098480000000  0.5124190000000  0.4469150000000 1.0
C      1  0.4619240000000  0.4801490000000  0.4200620000000 1.0
C      1  0.4888930000000  0.5048080000000  0.5939780000000 1.0
C      1  0.4560740000000  0.4873120000000  0.5559810000000 1.0
C      1  0.4582180000000  0.4378940000000  0.4839850000000 1.0
C      1  0.5879780000000  0.5054090000000  0.5367720000000 1.0
C      1  0.4886620000000  0.4919230000000  0.5646380000000 1.0
C      1  0.5435970000000  0.4391750000000  0.5309580000000 1.0
C      1  0.4537770000000  0.5824290000000  0.4662860000000 1.0
C      1  0.5670950000000  0.4399720000000  0.5119840000000 1.0
C      1  0.5220070000000  0.4650480000000  0.5241290000000 1.0
C      1  0.5265640000000  0.5345330000000  0.5716930000000 1.0
C      1  0.5875670000000  0.4465020000000  0.4558980000000 1.0
C      1  0.4725980000000  0.4581490000000  0.5499320000000 1.0
C      1  0.5266070000000  0.5803340000000  0.5105380000000 1.0
C      1  0.4818940000000  0.5751260000000  0.4815510000000 1.0
C      1  0.5766920000000  0.4698340000000  0.4485780000000 1.0
C      1  0.5294760000000  0.5509140000000  0.4234820000000 1.0
C      1  0.4755430000000  0.4411730000000  0.4481510000000 1.0
C      1  0.5398560000000  0.4545680000000  0.5601550000000 1.0
C      1  0.4483200000000  0.5204840000000  0.5613830000000 1.0
C      1  0.4628680000000  0.5083530000000  0.6046420000000 1.0
C      1  0.5721750000000  0.5215170000000  0.5540630000000 1.0
C      1  0.4808900000000  0.5866150000000  0.5349060000000 1.0
C      1  0.4254610000000  0.5432530000000  0.5231550000000 1.0
C      1  0.4243530000000  0.4669940000000  0.4845600000000 1.0
C      1  0.4983170000000  0.5622210000000  0.4319050000000 1.0
C      1  0.5597390000000  0.4778650000000  0.5591330000000 1.0
C      1  0.5511340000000  0.5151510000000  0.4759340000000 1.0
C      1  0.5443200000000  0.5070580000000  0.5672060000000 1.0
C      1  0.5095710000000  0.4075060000000  0.4753410000000 1.0
C      1  0.5759380000000  0.5434840000000  0.5103490000000 1.0
C      1  0.4428400000000  0.4874600000000  0.5151510000000 1.0
C      1  0.4707750000000  0.5434650000000  0.4270370000000 1.0
C      1  0.5676690000000  0.4192580000000  0.4922000000000 1.0
C      1  0.5219540000000  0.5668670000000  0.5621720000000 1.0
C      1  0.5679910000000  0.5482650000000  0.5408560000000 1.0
C      1  0.4697310000000  0.4850810000000  0.3946080000000 1.0
C      1  0.5789280000000  0.5449750000000  0.4594560000000 1.0
C      1  0.4002790000000  0.5088780000000  0.4902730000000 1.0
C      1  0.4291380000000  0.4716790000000  0.4524870000000 1.0
C      1  0.4457810000000  0.4591750000000  0.5294850000000 1.0
C      1  0.4976930000000  0.4605210000000  0.4656110000000 1.0
C      1  0.5181740000000  0.4298280000000  0.5517830000000 1.0
C      1  0.4703920000000  0.5672430000000  0.5591140000000 1.0
C      1  0.4707740000000  0.5156080000000  0.4838830000000 1.0
C      1  0.5441550000000  0.4714040000000  0.4475830000000 1.0
C      1  0.4477700000000  0.5597490000000  0.4460960000000 1.0
C      1  0.5710040000000  0.4248510000000  0.4639160000000 1.0
C      1  0.4466870000000  0.5467530000000  0.5464360000000 1.0
C      1  0.5072610000000  0.4388600000000  0.5146530000000 1.0
C      1  0.5325120000000  0.4447020000000  0.4355530000000 1.0
C      1  0.4259450000000  0.5156040000000  0.5082740000000 1.0
C      1  0.4895460000000  0.5183370000000  0.5336560000000 1.0
C      1  0.5248530000000  0.5063920000000  0.5045190000000 1.0
C      1  0.5227240000000  0.5492330000000  0.5171990000000 1.0
C      1  0.5990060000000  0.5574500000000  0.4439190000000 1.0
C      1  0.4875950000000  0.6146100000000  0.4838870000000 1.0
C      1  0.4661350000000  0.4110180000000  0.5277930000000 1.0
C      1  0.5032850000000  0.4930020000000  0.4884870000000 1.0
C      1  0.5375740000000  0.5033800000000  0.4485680000000 1.0
C      1  0.4502270000000  0.4888580000000  0.4814560000000 1.0
C      1  0.5927190000000  0.4864220000000  0.4912600000000 1.0
C      1  0.5602440000000  0.3939710000000  0.4995580000000 1.0
C      1  0.5793610000000  0.4787350000000  0.5386280000000 1.0
C      1  0.4346700000000  0.4437750000000  0.5011420000000 1.0
C      1  0.4685110000000  0.5523880000000  0.4990220000000 1.0
C      1  0.4634370000000  0.4948350000000  0.4507010000000 1.0
C      1  0.4409530000000  0.4254640000000  0.5275350000000 1.0
C      1  0.5034750000000  0.4340590000000  0.4343460000000 1.0
C      1  0.4820740000000  0.4698670000000  0.5127960000000 1.0
C      1  0.4835810000000  0.5533710000000  0.5858000000000 1.0
C      1  0.5711190000000  0.5004710000000  0.4522030000000 1.0
C      1  0.4772870000000  0.4898540000000  0.3699710000000 1.0
C      1  0.5375010000000  0.5367730000000  0.5413680000000 1.0
C      1  0.4066360000000  0.4778810000000  0.5291950000000 1.0
C      1  0.5286670000000  0.4578560000000  0.4730880000000 1.0
C      1  0.5480150000000  0.5510450000000  0.4466440000000 1.0
C      1  0.5016110000000  0.4864910000000  0.5343070000000 1.0
C      1  0.5488040000000  0.4198180000000  0.4462330000000 1.0
C      1  0.4241650000000  0.4998620000000  0.4457980000000 1.0
C      1  0.4740340000000  0.3932060000000  0.5069710000000 1.0
C      1  0.4188140000000  0.5651260000000  0.5082890000000 1.0
C      1  0.5907460000000  0.5161310000000  0.4733910000000 1.0
C      1  0.5033840000000  0.5311430000000  0.5908590000000 1.0
C      1  0.5041280000000  0.4817710000000  0.6084760000000 1.0
C      1  0.5820980000000  0.4638810000000  0.5139460000000 1.0
C      1  0.5618050000000  0.4939310000000  0.4972340000000 1.0
C      1  0.4959490000000  0.5356200000000  0.5072690000000 1.0
C      1  0.4038370000000  0.4817020000000  0.5012110000000 1.0
C      1  0.4824050000000  0.3980880000000  0.4798200000000 1.0
C      1  0.4972230000000  0.5295310000000  0.4735030000000 1.0
C      1  0.5330550000000  0.5360940000000  0.4900170000000 1.0
C      1  0.4223080000000  0.4821630000000  0.5518930000000 1.0
C      1  0.4395380000000  0.5795280000000  0.4944000000000 1.0
C      1  0.5694610000000  0.5602060000000  0.4866490000000 1.0
C      1  0.5006080000000  0.4540250000000  0.5663290000000 1.0
C      1  0.5159610000000  0.4315450000000  0.4891300000000 1.0
C      1  0.4051300000000  0.5164420000000  0.4634150000000 1.0
C      1  0.4919190000000  0.4912960000000  0.4602890000000 1.0
C      1  0.4236240000000  0.5068230000000  0.5684250000000 1.0
C      1  0.4837580000000  0.5359220000000  0.5565710000000 1.0
C      1  0.5189170000000  0.4096240000000  0.4480130000000 1.0
C      1  0.4305300000000  0.5364630000000  0.4603090000000 1.0
C      1  0.4445600000000  0.5335750000000  0.4876850000000 1.0
C      1  0.4969280000000  0.5925530000000  0.5055160000000 1.0
C      1  0.5021500000000  0.5303210000000  0.4231890000000 1.0
C      1  0.4560540000000  0.5689690000000  0.5223060000000 1.0
C      1  0.5932680000000  0.5164150000000  0.5073840000000 1.0
C      1  0.4497180000000  0.5210490000000  0.4374910000000 1.0
C      1  0.5125770000000  0.5807200000000  0.5402110000000 1.0
C      1  0.5213060000000  0.4819030000000  0.5684020000000 1.0
C      1  0.4703860000000  0.6100780000000  0.4659510000000 1.0
C      1  0.4722800000000  0.5015550000000  0.5121650000000 1.0
C      1  0.5541400000000  0.5182520000000  0.5185210000000 1.0
C      1  0.4797600000000  0.4541050000000  0.4899520000000 1.0
END
