TITL C-2778423-5760-229 -0.000526377051371514 125000 -736.011796901605 0 0 125 (C1) n - 1
REM
REM in /home/nfs/bkarasulu/CARBON/AIRSS/Generating-Clusters/REBO/Only-C1/SD-CG/HFTN-CG
REM
REM
REM
REM
REM
REM ./C.cell (11c1c37f851c82e70ff6c80c92926a4b)
REM
REM compiler GCC version 9.2.1 20190827 (Red Hat 9.2.1-1)
REM options -cpp -mtune=generic -march=x86-64 -g -O0 -fpre-include=/usr/include/finclude/math-vector-fortran.h
REM seed 1181258913 -19839967 1388508861 -1117497645 183411015 -1461080456 1439491502 -426518361 -1785912448 -518406338 -1631960239 327306832 1164074049 929005144 2057932407 904805194 -534584896 -165632628 -63251169 645256735 -1740752716 828210624 1341116100 -1235878514 -1145958280 -775624537 -836777884 -401497217 -875781897 1144918085 1117466771 -1368868093 -65038803
REM
CELL 1.54180   50.00000   50.00000   50.00000   90.00000   90.00000   90.00000
LATT -1
SFAC C  
C      1  0.5998460000000  0.4976240000000  0.4935550000000 1.0
C      1  0.4751810000000  0.4630250000000  0.4181210000000 1.0
C      1  0.5523380000000  0.5342590000000  0.5682950000000 1.0
C      1  0.5700010000000  0.4829340000000  0.5270640000000 1.0
C      1  0.4864960000000  0.4861190000000  0.4598890000000 1.0
C      1  0.5065550000000  0.5472360000000  0.4147620000000 1.0
C      1  0.4702580000000  0.4239770000000  0.4556790000000 1.0
C      1  0.5275320000000  0.5428890000000  0.4674260000000 1.0
C      1  0.4608280000000  0.5802260000000  0.5001680000000 1.0
C      1  0.5201160000000  0.5016100000000  0.5023200000000 1.0
C      1  0.4146490000000  0.5255720000000  0.5379590000000 1.0
C      1  0.4385210000000  0.5722220000000  0.4568270000000 1.0
C      1  0.5216190000000  0.5705310000000  0.5524100000000 1.0
C      1  0.5351880000000  0.5432510000000  0.5422850000000 1.0
C      1  0.5212170000000  0.4981660000000  0.5734720000000 1.0
C      1  0.4191050000000  0.5543290000000  0.4972750000000 1.0
C      1  0.4454190000000  0.4470590000000  0.4525840000000 1.0
C      1  0.5406280000000  0.5619950000000  0.4513190000000 1.0
C      1  0.5224660000000  0.4886730000000  0.4110100000000 1.0
C      1  0.4612630000000  0.4292670000000  0.5347390000000 1.0
C      1  0.5591610000000  0.4452960000000  0.5333420000000 1.0
C      1  0.4634840000000  0.4656120000000  0.5183780000000 1.0
C      1  0.4855910000000  0.5567430000000  0.4558130000000 1.0
C      1  0.5942480000000  0.4913860000000  0.5454290000000 1.0
C      1  0.4521370000000  0.4172560000000  0.4830950000000 1.0
C      1  0.5363040000000  0.4452420000000  0.5123870000000 1.0
C      1  0.5991330000000  0.4706390000000  0.4899800000000 1.0
C      1  0.5535180000000  0.4906250000000  0.4165130000000 1.0
C      1  0.5403060000000  0.5050530000000  0.4679830000000 1.0
C      1  0.3952720000000  0.5072080000000  0.4892320000000 1.0
C      1  0.5299120000000  0.4588780000000  0.4211070000000 1.0
C      1  0.5547190000000  0.4536640000000  0.5592690000000 1.0
C      1  0.5039080000000  0.5664730000000  0.4362390000000 1.0
C      1  0.5608100000000  0.5566540000000  0.4962370000000 1.0
C      1  0.5189170000000  0.5149070000000  0.5959170000000 1.0
C      1  0.4228830000000  0.4603500000000  0.4745490000000 1.0
C      1  0.5326420000000  0.4388310000000  0.5701140000000 1.0
C      1  0.3988500000000  0.5004680000000  0.5209650000000 1.0
C      1  0.5360400000000  0.4825780000000  0.5257740000000 1.0
C      1  0.5475560000000  0.4202530000000  0.4523570000000 1.0
C      1  0.4678860000000  0.4187850000000  0.5067110000000 1.0
C      1  0.5073490000000  0.5312140000000  0.4913490000000 1.0
C      1  0.5293320000000  0.4270360000000  0.4870820000000 1.0
C      1  0.5323310000000  0.5478200000000  0.5084560000000 1.0
C      1  0.4445240000000  0.4933970000000  0.5655520000000 1.0
C      1  0.5628210000000  0.4225540000000  0.4820570000000 1.0
C      1  0.4428020000000  0.4809110000000  0.5384730000000 1.0
C      1  0.4884590000000  0.4884440000000  0.4103440000000 1.0
C      1  0.4807010000000  0.4611210000000  0.5676720000000 1.0
C      1  0.4481280000000  0.4643980000000  0.4275020000000 1.0
C      1  0.4391170000000  0.5212030000000  0.5589270000000 1.0
C      1  0.5687810000000  0.5571490000000  0.4499250000000 1.0
C      1  0.5135260000000  0.5159900000000  0.4240310000000 1.0
C      1  0.5543690000000  0.4508610000000  0.4556640000000 1.0
C      1  0.4152300000000  0.4458530000000  0.5102620000000 1.0
C      1  0.4356210000000  0.5739690000000  0.4852330000000 1.0
C      1  0.5082150000000  0.4095860000000  0.5285660000000 1.0
C      1  0.4742880000000  0.4946370000000  0.6048610000000 1.0
C      1  0.4613030000000  0.4905260000000  0.4973230000000 1.0
C      1  0.4839540000000  0.4465770000000  0.5069240000000 1.0
C      1  0.4677400000000  0.5676500000000  0.5446100000000 1.0
C      1  0.4632150000000  0.4810140000000  0.5826670000000 1.0
C      1  0.5375080000000  0.5360080000000  0.5928540000000 1.0
C      1  0.4877180000000  0.4406140000000  0.4316710000000 1.0
C      1  0.4433450000000  0.5159670000000  0.4944500000000 1.0
C      1  0.5165450000000  0.4490450000000  0.4682540000000 1.0
C      1  0.4039340000000  0.4754530000000  0.4979170000000 1.0
C      1  0.5829090000000  0.5235760000000  0.4968350000000 1.0
C      1  0.4584240000000  0.5343640000000  0.4280630000000 1.0
C      1  0.4959540000000  0.5747380000000  0.5586300000000 1.0
C      1  0.4860080000000  0.5703170000000  0.4816110000000 1.0
C      1  0.4838610000000  0.5893430000000  0.5236160000000 1.0
C      1  0.5621920000000  0.5687620000000  0.5247640000000 1.0
C      1  0.4958920000000  0.5100540000000  0.6114600000000 1.0
C      1  0.4363160000000  0.4495600000000  0.5315350000000 1.0
C      1  0.5649100000000  0.4697830000000  0.4378560000000 1.0
C      1  0.4188480000000  0.5529050000000  0.5253800000000 1.0
C      1  0.4835220000000  0.5258860000000  0.4597360000000 1.0
C      1  0.5959240000000  0.5225290000000  0.5482130000000 1.0
C      1  0.5790020000000  0.5478840000000  0.4745630000000 1.0
C      1  0.5511130000000  0.5150500000000  0.4953910000000 1.0
C      1  0.5807660000000  0.5401820000000  0.5264950000000 1.0
C      1  0.5506810000000  0.4602960000000  0.4856210000000 1.0
C      1  0.5236840000000  0.5877130000000  0.4513330000000 1.0
C      1  0.4264430000000  0.4288440000000  0.4857990000000 1.0
C      1  0.4380160000000  0.5480600000000  0.4417700000000 1.0
C      1  0.5060610000000  0.4091460000000  0.5000130000000 1.0
C      1  0.5807620000000  0.4495040000000  0.4860180000000 1.0
C      1  0.5590230000000  0.5149800000000  0.5276480000000 1.0
C      1  0.5239110000000  0.4421030000000  0.5956630000000 1.0
C      1  0.4656500000000  0.5051110000000  0.4432020000000 1.0
C      1  0.4316680000000  0.5025650000000  0.5212850000000 1.0
C      1  0.4170090000000  0.5052090000000  0.4366610000000 1.0
C      1  0.5692000000000  0.4826380000000  0.5669580000000 1.0
C      1  0.5139470000000  0.5205980000000  0.5309490000000 1.0
C      1  0.5148700000000  0.5987920000000  0.5131130000000 1.0
C      1  0.4363110000000  0.5690710000000  0.5389900000000 1.0
C      1  0.4733020000000  0.5278800000000  0.4899700000000 1.0
C      1  0.5191000000000  0.4208140000000  0.5514950000000 1.0
C      1  0.5130110000000  0.5170360000000  0.4544060000000 1.0
C      1  0.4869480000000  0.4571960000000  0.4781360000000 1.0
C      1  0.4184260000000  0.5295550000000  0.4510940000000 1.0
C      1  0.5439180000000  0.4978470000000  0.5533100000000 1.0
C      1  0.4978810000000  0.4098580000000  0.4696090000000 1.0
C      1  0.4637260000000  0.5343570000000  0.5501400000000 1.0
C      1  0.5131320000000  0.5699170000000  0.4985500000000 1.0
C      1  0.4166680000000  0.5273580000000  0.4808440000000 1.0
C      1  0.4978740000000  0.5471190000000  0.5285470000000 1.0
C      1  0.5214500000000  0.4080330000000  0.4527900000000 1.0
C      1  0.5750480000000  0.5165440000000  0.5693040000000 1.0
C      1  0.5146920000000  0.4446590000000  0.4384470000000 1.0
C      1  0.5607780000000  0.5000990000000  0.4465530000000 1.0
C      1  0.4833340000000  0.5222370000000  0.4117950000000 1.0
C      1  0.4787050000000  0.5526140000000  0.5091640000000 1.0
C      1  0.4838470000000  0.5125440000000  0.5426700000000 1.0
C      1  0.5044710000000  0.4800480000000  0.5320580000000 1.0
C      1  0.4869120000000  0.4974370000000  0.5122700000000 1.0
C      1  0.4962510000000  0.4880510000000  0.5612450000000 1.0
C      1  0.5171720000000  0.4825450000000  0.4741200000000 1.0
C      1  0.4839980000000  0.4418430000000  0.5472380000000 1.0
C      1  0.5091150000000  0.4494170000000  0.5254510000000 1.0
C      1  0.5189140000000  0.5964890000000  0.4790110000000 1.0
C      1  0.5387470000000  0.5837420000000  0.5318290000000 1.0
C      1  0.4556250000000  0.4676250000000  0.4767920000000 1.0
C      1  0.4407210000000  0.4907090000000  0.4328100000000 1.0
END
