TITL C-2778437-8639-1283 0.000660994407112366 125000 -722.311485408898 0 0 123 (C1) n - 1
REM
REM in /home/nfs/bkarasulu/CARBON/AIRSS/Generating-Clusters/REBO/Only-C1/SD-CG/HFTN-CG
REM
REM
REM
REM
REM
REM ./C.cell (11c1c37f851c82e70ff6c80c92926a4b)
REM
REM compiler GCC version 9.2.1 20190827 (Red Hat 9.2.1-1)
REM options -cpp -mtune=generic -march=x86-64 -g -O0 -fpre-include=/usr/include/finclude/math-vector-fortran.h
REM seed -421227237 967544477 -1328272929 348774912 1781229926 -1775212216 -23494684 677990036 1064473812 464889858 -279474121 921073833 -1770481097 1803376059 683827777 1799672537 1830869049 -1961204769 948687242 597006104 -1643861306 1503896668 -2050188632 1397883678 1880080808 1833313811 1520297792 1955263289 -901500070 377691930 -363718717 -769003675 -1105013489
REM
CELL 1.54180   50.00000   50.00000   50.00000   90.00000   90.00000   90.00000
LATT -1
SFAC C  
C      1  0.5399120000000  0.4269860000000  0.4722430000000 1.0
C      1  0.5217400000000  0.5194180000000  0.5571230000000 1.0
C      1  0.5433510000000  0.4996500000000  0.4707460000000 1.0
C      1  0.4888640000000  0.4800130000000  0.5074380000000 1.0
C      1  0.4635090000000  0.5076400000000  0.5834130000000 1.0
C      1  0.4815530000000  0.4981830000000  0.5314540000000 1.0
C      1  0.4892700000000  0.5043750000000  0.4011420000000 1.0
C      1  0.4942190000000  0.5561170000000  0.4535720000000 1.0
C      1  0.5065740000000  0.5526970000000  0.5195220000000 1.0
C      1  0.4495870000000  0.5696820000000  0.4697660000000 1.0
C      1  0.5482410000000  0.5778600000000  0.4995730000000 1.0
C      1  0.5730200000000  0.5438900000000  0.4796540000000 1.0
C      1  0.4405400000000  0.4386990000000  0.4703370000000 1.0
C      1  0.4394100000000  0.5210010000000  0.5672430000000 1.0
C      1  0.4960480000000  0.5144770000000  0.5872920000000 1.0
C      1  0.4507540000000  0.4376910000000  0.4406670000000 1.0
C      1  0.4992460000000  0.5678810000000  0.4833860000000 1.0
C      1  0.5673430000000  0.4460630000000  0.4777800000000 1.0
C      1  0.5354780000000  0.5701050000000  0.5453120000000 1.0
C      1  0.5428040000000  0.5250410000000  0.5072750000000 1.0
C      1  0.5342280000000  0.4539600000000  0.5281410000000 1.0
C      1  0.5087770000000  0.4201350000000  0.5178460000000 1.0
C      1  0.4962650000000  0.5633160000000  0.5488850000000 1.0
C      1  0.5734720000000  0.5216090000000  0.5610430000000 1.0
C      1  0.5711570000000  0.5381350000000  0.5319740000000 1.0
C      1  0.4796330000000  0.5556360000000  0.3810100000000 1.0
C      1  0.4820200000000  0.4224360000000  0.5562160000000 1.0
C      1  0.5311220000000  0.5186120000000  0.4180720000000 1.0
C      1  0.4614310000000  0.4662110000000  0.5189750000000 1.0
C      1  0.4508720000000  0.5443280000000  0.4269630000000 1.0
C      1  0.4211620000000  0.5038590000000  0.5527050000000 1.0
C      1  0.4906300000000  0.4488010000000  0.4752100000000 1.0
C      1  0.5462820000000  0.5395320000000  0.4702850000000 1.0
C      1  0.4717150000000  0.4817430000000  0.5543550000000 1.0
C      1  0.4822150000000  0.4386480000000  0.4164170000000 1.0
C      1  0.4481830000000  0.5393610000000  0.4954950000000 1.0
C      1  0.4641200000000  0.4600380000000  0.4756310000000 1.0
C      1  0.4199600000000  0.4823340000000  0.4931930000000 1.0
C      1  0.5711520000000  0.4941470000000  0.5521440000000 1.0
C      1  0.5279100000000  0.4660650000000  0.5564410000000 1.0
C      1  0.5301920000000  0.5107610000000  0.5278560000000 1.0
C      1  0.5212880000000  0.4168150000000  0.5432980000000 1.0
C      1  0.4960710000000  0.4647040000000  0.5805640000000 1.0
C      1  0.5291810000000  0.4406830000000  0.4459880000000 1.0
C      1  0.5219140000000  0.4619720000000  0.4788220000000 1.0
C      1  0.4142290000000  0.4528510000000  0.4791790000000 1.0
C      1  0.4256770000000  0.5502810000000  0.4788520000000 1.0
C      1  0.5136890000000  0.4711820000000  0.4484800000000 1.0
C      1  0.5106400000000  0.4587310000000  0.5083240000000 1.0
C      1  0.4754600000000  0.4180310000000  0.4401650000000 1.0
C      1  0.4912000000000  0.5272380000000  0.5325840000000 1.0
C      1  0.4432590000000  0.5503840000000  0.5565540000000 1.0
C      1  0.4921390000000  0.4922640000000  0.4504110000000 1.0
C      1  0.4676330000000  0.5765440000000  0.4913330000000 1.0
C      1  0.4487250000000  0.4878270000000  0.4810240000000 1.0
C      1  0.5265150000000  0.5253560000000  0.5960670000000 1.0
C      1  0.4792860000000  0.5300890000000  0.5628980000000 1.0
C      1  0.5061190000000  0.4472830000000  0.4039130000000 1.0
C      1  0.4855590000000  0.4194300000000  0.4677730000000 1.0
C      1  0.5918830000000  0.4980600000000  0.4836730000000 1.0
C      1  0.5306740000000  0.5844350000000  0.5212890000000 1.0
C      1  0.4730190000000  0.5335610000000  0.4788960000000 1.0
C      1  0.4825310000000  0.4402320000000  0.5133810000000 1.0
C      1  0.5489630000000  0.4408480000000  0.5790370000000 1.0
C      1  0.5552940000000  0.4569040000000  0.4508920000000 1.0
C      1  0.5218320000000  0.4669950000000  0.4159120000000 1.0
C      1  0.5730020000000  0.5149690000000  0.5069750000000 1.0
C      1  0.4492540000000  0.4573810000000  0.5620820000000 1.0
C      1  0.4602440000000  0.5164160000000  0.4101140000000 1.0
C      1  0.4982920000000  0.4392250000000  0.5710950000000 1.0
C      1  0.5446800000000  0.4963850000000  0.5957120000000 1.0
C      1  0.4616460000000  0.4614880000000  0.4236840000000 1.0
C      1  0.5883260000000  0.4651610000000  0.4922680000000 1.0
C      1  0.5200610000000  0.5097790000000  0.4783380000000 1.0
C      1  0.4954340000000  0.5199010000000  0.4995500000000 1.0
C      1  0.5518950000000  0.4851060000000  0.4480000000000 1.0
C      1  0.5490700000000  0.4640190000000  0.4994830000000 1.0
C      1  0.5250420000000  0.5657670000000  0.4499060000000 1.0
C      1  0.5432230000000  0.4700830000000  0.5866520000000 1.0
C      1  0.4444300000000  0.4304930000000  0.5202620000000 1.0
C      1  0.4821030000000  0.4948370000000  0.4807210000000 1.0
C      1  0.4285130000000  0.4602150000000  0.5156980000000 1.0
C      1  0.4565200000000  0.4314290000000  0.5471580000000 1.0
C      1  0.4042640000000  0.5309010000000  0.4827000000000 1.0
C      1  0.5424650000000  0.5393760000000  0.4372000000000 1.0
C      1  0.4039110000000  0.5152860000000  0.5296210000000 1.0
C      1  0.5127500000000  0.4913690000000  0.5721530000000 1.0
C      1  0.4508810000000  0.5140080000000  0.4649100000000 1.0
C      1  0.5372470000000  0.5784330000000  0.4720700000000 1.0
C      1  0.5586150000000  0.5237610000000  0.5849820000000 1.0
C      1  0.4143450000000  0.5090520000000  0.4316090000000 1.0
C      1  0.5247700000000  0.4176940000000  0.4941990000000 1.0
C      1  0.5695430000000  0.5579160000000  0.5046030000000 1.0
C      1  0.5637230000000  0.4369440000000  0.5309370000000 1.0
C      1  0.4228380000000  0.5402380000000  0.5364390000000 1.0
C      1  0.4044980000000  0.5081420000000  0.5012020000000 1.0
C      1  0.5900220000000  0.5222930000000  0.4666620000000 1.0
C      1  0.4495560000000  0.4978240000000  0.5252960000000 1.0
C      1  0.5463210000000  0.4263180000000  0.5541970000000 1.0
C      1  0.4405710000000  0.5246820000000  0.5171160000000 1.0
C      1  0.5873840000000  0.4502480000000  0.5230170000000 1.0
C      1  0.4730320000000  0.4893450000000  0.4262970000000 1.0
C      1  0.5704030000000  0.4847720000000  0.5134230000000 1.0
C      1  0.5442750000000  0.4895630000000  0.5430850000000 1.0
C      1  0.4620400000000  0.4238990000000  0.4922430000000 1.0
C      1  0.5110020000000  0.5222970000000  0.3987450000000 1.0
C      1  0.5376060000000  0.4916770000000  0.4239150000000 1.0
C      1  0.5134970000000  0.5475650000000  0.5737300000000 1.0
C      1  0.4822420000000  0.5594590000000  0.5799280000000 1.0
C      1  0.4319470000000  0.4756400000000  0.5442650000000 1.0
C      1  0.5433450000000  0.5439380000000  0.5475230000000 1.0
C      1  0.5052870000000  0.5457820000000  0.3837050000000 1.0
C      1  0.5242050000000  0.5466890000000  0.4925680000000 1.0
C      1  0.4676670000000  0.5830130000000  0.5212090000000 1.0
C      1  0.4646140000000  0.5620870000000  0.4463470000000 1.0
C      1  0.4630450000000  0.5681900000000  0.5463940000000 1.0
C      1  0.5911660000000  0.4760220000000  0.5395970000000 1.0
C      1  0.5742870000000  0.5308340000000  0.4419600000000 1.0
C      1  0.4584730000000  0.5465110000000  0.3950520000000 1.0
C      1  0.4999040000000  0.5853630000000  0.5127070000000 1.0
C      1  0.4977180000000  0.5243350000000  0.4590360000000 1.0
C      1  0.4367610000000  0.5211650000000  0.4420770000000 1.0
C      1  0.4653070000000  0.4748860000000  0.5864780000000 1.0
END
