TITL C-2778427-5640-1001 6.18622300854657e-07 125000 -69.5694295440484 0 0 13 (C1) n - 1
REM
REM in /home/nfs/bkarasulu/CARBON/AIRSS/Generating-Clusters/REBO/Only-C1/SD-CG/HFTN-CG
REM
REM
REM
REM
REM
REM ./C.cell (11c1c37f851c82e70ff6c80c92926a4b)
REM
REM compiler GCC version 9.2.1 20190827 (Red Hat 9.2.1-1)
REM options -cpp -mtune=generic -march=x86-64 -g -O0 -fpre-include=/usr/include/finclude/math-vector-fortran.h
REM seed -1212023199 -344463880 1140278487 38126979 -1680359037 -505336219 91766580 119054861 -1817249339 810003413 121366550 -708502457 -487664034 1972419479 -1296882346 -1825198789 -1264849978 183415826 927779703 -1201922238 -1253395813 -947386481 811954814 -405185285 1352253221 1384839535 494749562 -276507155 976867522 1269975557 1376714164 -1058695680 880503183
REM
CELL 1.54180   50.00000   50.00000   50.00000   90.00000   90.00000   90.00000
LATT -1
SFAC C  
C      1  0.5134880000000  0.4514970000000  0.4621650000000 1.0
C      1  0.5241660000000  0.5246220000000  0.4958880000000 1.0
C      1  0.5057400000000  0.5336510000000  0.5148960000000 1.0
C      1  0.5313610000000  0.4127550000000  0.4407610000000 1.0
C      1  0.5454170000000  0.5401520000000  0.4887750000000 1.0
C      1  0.4358470000000  0.5678970000000  0.5870020000000 1.0
C      1  0.5098110000000  0.4263080000000  0.4505490000000 1.0
C      1  0.4847290000000  0.4156780000000  0.4491860000000 1.0
C      1  0.4881970000000  0.5422460000000  0.5329950000000 1.0
C      1  0.4531110000000  0.5594380000000  0.5691920000000 1.0
C      1  0.4706540000000  0.5508420000000  0.5510930000000 1.0
C      1  0.5169890000000  0.4754700000000  0.4732210000000 1.0
C      1  0.5204890000000  0.4994440000000  0.4842760000000 1.0
END
