TITL C-2778426-5645-431 -0.00392235411565645 125000 -428.636485506927 0 0 76 (C1) n - 1
REM
REM in /home/nfs/bkarasulu/CARBON/AIRSS/Generating-Clusters/REBO/Only-C1/SD-CG/HFTN-CG
REM
REM
REM
REM
REM
REM ./C.cell (11c1c37f851c82e70ff6c80c92926a4b)
REM
REM compiler GCC version 9.2.1 20190827 (Red Hat 9.2.1-1)
REM options -cpp -mtune=generic -march=x86-64 -g -O0 -fpre-include=/usr/include/finclude/math-vector-fortran.h
REM seed -2057868652 -630408551 567912541 -1931744807 897054962 -1201994827 -195812291 1517388012 534939961 -1002333423 -40664707 -1812791755 -1477395580 -1084977448 -51482487 389729250 -861872452 887070808 -1981595439 714442139 1326672987 -1206705209 1624532674 -633459787 87157404 -1061988554 -1744805679 -1068159006 -717167205 -872523638 50769582 -475244162 2079732776
REM
CELL 1.54180   50.00000   50.00000   50.00000   90.00000   90.00000   90.00000
LATT -1
SFAC C  
C      1  0.4912180000000  0.5569050000000  0.4642700000000 1.0
C      1  0.4685180000000  0.5621610000000  0.5326820000000 1.0
C      1  0.5214450000000  0.5657530000000  0.4950290000000 1.0
C      1  0.5391500000000  0.5626430000000  0.4500860000000 1.0
C      1  0.4660550000000  0.5050630000000  0.5242730000000 1.0
C      1  0.4736810000000  0.5022860000000  0.4618940000000 1.0
C      1  0.4760560000000  0.6122350000000  0.5123650000000 1.0
C      1  0.5458310000000  0.4511960000000  0.4437770000000 1.0
C      1  0.4297610000000  0.5384320000000  0.4946180000000 1.0
C      1  0.5309230000000  0.4347410000000  0.5304230000000 1.0
C      1  0.4698270000000  0.5862160000000  0.5086700000000 1.0
C      1  0.5316540000000  0.5456040000000  0.4240680000000 1.0
C      1  0.4999610000000  0.4262660000000  0.4399720000000 1.0
C      1  0.4692220000000  0.4449340000000  0.4793520000000 1.0
C      1  0.5149780000000  0.4589730000000  0.5487830000000 1.0
C      1  0.5116870000000  0.5350600000000  0.5362890000000 1.0
C      1  0.5351990000000  0.4740290000000  0.5283370000000 1.0
C      1  0.5676750000000  0.5289100000000  0.4914830000000 1.0
C      1  0.5247860000000  0.4695240000000  0.4990070000000 1.0
C      1  0.5626900000000  0.4997680000000  0.4874360000000 1.0
C      1  0.4525390000000  0.4994420000000  0.3862210000000 1.0
C      1  0.5417350000000  0.5408370000000  0.5442060000000 1.0
C      1  0.5062840000000  0.5380470000000  0.5053390000000 1.0
C      1  0.4572950000000  0.4552600000000  0.5250760000000 1.0
C      1  0.5171020000000  0.5702050000000  0.4670640000000 1.0
C      1  0.4635690000000  0.5178230000000  0.5560130000000 1.0
C      1  0.5071270000000  0.4780540000000  0.5726500000000 1.0
C      1  0.4780480000000  0.5214070000000  0.4995500000000 1.0
C      1  0.4864150000000  0.4478420000000  0.5373560000000 1.0
C      1  0.4220840000000  0.4689690000000  0.5379860000000 1.0
C      1  0.5174790000000  0.4302970000000  0.4994990000000 1.0
C      1  0.5148900000000  0.5059820000000  0.5752290000000 1.0
C      1  0.4442070000000  0.4905990000000  0.4584560000000 1.0
C      1  0.4867020000000  0.5497810000000  0.5499690000000 1.0
C      1  0.5663160000000  0.4700500000000  0.5035270000000 1.0
C      1  0.4555060000000  0.4712650000000  0.5060080000000 1.0
C      1  0.4935600000000  0.5266550000000  0.4691720000000 1.0
C      1  0.5469910000000  0.4444540000000  0.4943600000000 1.0
C      1  0.5584800000000  0.4351270000000  0.4678000000000 1.0
C      1  0.5419770000000  0.5133270000000  0.5632860000000 1.0
C      1  0.5311790000000  0.4955800000000  0.4845050000000 1.0
C      1  0.4757490000000  0.4781370000000  0.4795540000000 1.0
C      1  0.4706300000000  0.5691620000000  0.4792950000000 1.0
C      1  0.4801590000000  0.4737940000000  0.5809760000000 1.0
C      1  0.4703810000000  0.4941990000000  0.4046870000000 1.0
C      1  0.5689350000000  0.5330130000000  0.5253020000000 1.0
C      1  0.4852530000000  0.4331460000000  0.5070700000000 1.0
C      1  0.4543550000000  0.5246570000000  0.4767120000000 1.0
C      1  0.5067470000000  0.4835130000000  0.4423240000000 1.0
C      1  0.4330330000000  0.5194370000000  0.5405900000000 1.0
C      1  0.5585950000000  0.4418640000000  0.5325300000000 1.0
C      1  0.4876090000000  0.4809540000000  0.5292210000000 1.0
C      1  0.4182910000000  0.4797800000000  0.4855140000000 1.0
C      1  0.5760060000000  0.4583310000000  0.4543420000000 1.0
C      1  0.4061390000000  0.4970720000000  0.5072890000000 1.0
C      1  0.5426760000000  0.5033740000000  0.5308330000000 1.0
C      1  0.4417260000000  0.4878000000000  0.5422780000000 1.0
C      1  0.4948670000000  0.4651830000000  0.5023960000000 1.0
C      1  0.4406300000000  0.4613390000000  0.4708170000000 1.0
C      1  0.5713450000000  0.5062640000000  0.5464090000000 1.0
C      1  0.5393190000000  0.5233220000000  0.4452000000000 1.0
C      1  0.4169220000000  0.5218480000000  0.5171920000000 1.0
C      1  0.5328330000000  0.5174490000000  0.5073000000000 1.0
C      1  0.4885120000000  0.4888710000000  0.4234520000000 1.0
C      1  0.5446700000000  0.5489340000000  0.5069960000000 1.0
C      1  0.5164250000000  0.4552810000000  0.4467370000000 1.0
C      1  0.4230860000000  0.5118040000000  0.4742260000000 1.0
C      1  0.4502340000000  0.5587480000000  0.5040120000000 1.0
C      1  0.4930220000000  0.5246250000000  0.5699100000000 1.0
C      1  0.4596580000000  0.4867550000000  0.5695160000000 1.0
C      1  0.5585540000000  0.5410100000000  0.4638750000000 1.0
C      1  0.5036090000000  0.5042760000000  0.5371430000000 1.0
C      1  0.5005360000000  0.4367120000000  0.4706490000000 1.0
C      1  0.5825790000000  0.4771140000000  0.4744450000000 1.0
C      1  0.5691730000000  0.4740770000000  0.5354270000000 1.0
C      1  0.5179390000000  0.5064530000000  0.4596970000000 1.0
END
