TITL C-2778427-5640-1009 -0.0024796015304434 125000 -966.245069983869 0 0 166 (C1) n - 1
REM
REM in /home/nfs/bkarasulu/CARBON/AIRSS/Generating-Clusters/REBO/Only-C1/SD-CG/HFTN-CG
REM
REM
REM
REM
REM
REM ./C.cell (11c1c37f851c82e70ff6c80c92926a4b)
REM
REM compiler GCC version 9.2.1 20190827 (Red Hat 9.2.1-1)
REM options -cpp -mtune=generic -march=x86-64 -g -O0 -fpre-include=/usr/include/finclude/math-vector-fortran.h
REM seed -528584881 598234561 -1456148730 1497477369 -1339668338 -287909665 464696931 -1084389599 1425850783 -587830819 -1842031116 933911247 -859590209 723698089 -210411032 1350518594 472416387 -58387980 1864994213 1109267021 1952521960 2032062703 1535260932 924011483 -1669971551 123247170 -758309149 -1732227350 -1274683874 1189059936 18459583 1154734770 -1840340896
REM
CELL 1.54180   50.00000   50.00000   50.00000   90.00000   90.00000   90.00000
LATT -1
SFAC C  
C      1  0.5042140000000  0.4904490000000  0.5824680000000 1.0
C      1  0.4817570000000  0.5084870000000  0.4460070000000 1.0
C      1  0.5297270000000  0.4565240000000  0.4908810000000 1.0
C      1  0.4999850000000  0.5017410000000  0.4709490000000 1.0
C      1  0.5290500000000  0.5942340000000  0.4632280000000 1.0
C      1  0.5284490000000  0.5287500000000  0.5238840000000 1.0
C      1  0.4689250000000  0.4351460000000  0.5119460000000 1.0
C      1  0.5304380000000  0.4756110000000  0.4406590000000 1.0
C      1  0.5098580000000  0.5022470000000  0.3912080000000 1.0
C      1  0.5505310000000  0.5997490000000  0.4787860000000 1.0
C      1  0.4841840000000  0.4717800000000  0.5154340000000 1.0
C      1  0.5575430000000  0.4132530000000  0.4968370000000 1.0
C      1  0.5536920000000  0.5001040000000  0.4758400000000 1.0
C      1  0.5356670000000  0.5495670000000  0.4041260000000 1.0
C      1  0.4143220000000  0.5738770000000  0.5219440000000 1.0
C      1  0.4406600000000  0.4636550000000  0.4323270000000 1.0
C      1  0.5095940000000  0.4114170000000  0.4876750000000 1.0
C      1  0.3938990000000  0.5437020000000  0.4788960000000 1.0
C      1  0.5778990000000  0.5113260000000  0.5804180000000 1.0
C      1  0.6021740000000  0.5154290000000  0.5135610000000 1.0
C      1  0.4583820000000  0.4810600000000  0.4125830000000 1.0
C      1  0.5422490000000  0.4830310000000  0.4982280000000 1.0
C      1  0.5571220000000  0.5742050000000  0.5293670000000 1.0
C      1  0.4830560000000  0.5851760000000  0.5481900000000 1.0
C      1  0.4697440000000  0.5483850000000  0.5858580000000 1.0
C      1  0.4805990000000  0.4738910000000  0.4658650000000 1.0
C      1  0.4596010000000  0.4083900000000  0.4927610000000 1.0
C      1  0.4380960000000  0.5539930000000  0.5121040000000 1.0
C      1  0.5503840000000  0.4497760000000  0.5743190000000 1.0
C      1  0.5552950000000  0.4732950000000  0.4228950000000 1.0
C      1  0.4849810000000  0.5394600000000  0.4359120000000 1.0
C      1  0.5231250000000  0.5024870000000  0.5130070000000 1.0
C      1  0.6029180000000  0.4493930000000  0.5181850000000 1.0
C      1  0.5071980000000  0.4766380000000  0.4213610000000 1.0
C      1  0.5570030000000  0.5335680000000  0.5333850000000 1.0
C      1  0.4551220000000  0.5498610000000  0.4117130000000 1.0
C      1  0.5282750000000  0.4513340000000  0.4581540000000 1.0
C      1  0.5122140000000  0.4194880000000  0.4293480000000 1.0
C      1  0.4704650000000  0.4946150000000  0.5849770000000 1.0
C      1  0.4091570000000  0.6011470000000  0.5217320000000 1.0
C      1  0.4267360000000  0.4135180000000  0.5000260000000 1.0
C      1  0.5773570000000  0.4583090000000  0.5324950000000 1.0
C      1  0.4641310000000  0.5658370000000  0.4992560000000 1.0
C      1  0.4989220000000  0.4470060000000  0.5023770000000 1.0
C      1  0.4391500000000  0.4938570000000  0.5902760000000 1.0
C      1  0.5269600000000  0.5595770000000  0.6004190000000 1.0
C      1  0.4035540000000  0.4820930000000  0.5345160000000 1.0
C      1  0.4574180000000  0.4169350000000  0.5360230000000 1.0
C      1  0.4833770000000  0.5617310000000  0.4148880000000 1.0
C      1  0.4248070000000  0.4695860000000  0.5784920000000 1.0
C      1  0.4504150000000  0.5062640000000  0.4520940000000 1.0
C      1  0.5010850000000  0.4382750000000  0.4701850000000 1.0
C      1  0.4762500000000  0.5465130000000  0.4819710000000 1.0
C      1  0.4324150000000  0.5057790000000  0.5441580000000 1.0
C      1  0.4265000000000  0.4832020000000  0.4515790000000 1.0
C      1  0.4190220000000  0.4435030000000  0.5013710000000 1.0
C      1  0.4308280000000  0.5411180000000  0.4638930000000 1.0
C      1  0.5319550000000  0.4220680000000  0.4087360000000 1.0
C      1  0.5284390000000  0.5453570000000  0.4877440000000 1.0
C      1  0.5249600000000  0.4085550000000  0.4582080000000 1.0
C      1  0.4261030000000  0.5631990000000  0.5488540000000 1.0
C      1  0.4873660000000  0.4476320000000  0.5599160000000 1.0
C      1  0.4365210000000  0.4011580000000  0.5245850000000 1.0
C      1  0.5040360000000  0.4880320000000  0.5308590000000 1.0
C      1  0.5241710000000  0.5826940000000  0.4362150000000 1.0
C      1  0.4473980000000  0.4584360000000  0.5085420000000 1.0
C      1  0.4683430000000  0.5896960000000  0.4844210000000 1.0
C      1  0.4541440000000  0.5113320000000  0.4858360000000 1.0
C      1  0.4845470000000  0.5233110000000  0.5936770000000 1.0
C      1  0.5375930000000  0.5178820000000  0.3993620000000 1.0
C      1  0.5415430000000  0.5618860000000  0.4279790000000 1.0
C      1  0.5835770000000  0.4955190000000  0.4730140000000 1.0
C      1  0.5213050000000  0.4031310000000  0.5472700000000 1.0
C      1  0.4539730000000  0.5198280000000  0.4200970000000 1.0
C      1  0.4770640000000  0.5050360000000  0.3998060000000 1.0
C      1  0.5069320000000  0.5343940000000  0.5481760000000 1.0
C      1  0.5473060000000  0.4986480000000  0.5581100000000 1.0
C      1  0.5812990000000  0.6085780000000  0.4849850000000 1.0
C      1  0.4984980000000  0.5890310000000  0.4711640000000 1.0
C      1  0.5150910000000  0.4491580000000  0.5558990000000 1.0
C      1  0.5292590000000  0.5005570000000  0.4569440000000 1.0
C      1  0.4331930000000  0.5698490000000  0.4492760000000 1.0
C      1  0.5331270000000  0.4263450000000  0.5027170000000 1.0
C      1  0.4715000000000  0.4413050000000  0.4604740000000 1.0
C      1  0.4716580000000  0.4640390000000  0.5430160000000 1.0
C      1  0.4959370000000  0.5850490000000  0.4262650000000 1.0
C      1  0.6229880000000  0.4695150000000  0.5210940000000 1.0
C      1  0.5823430000000  0.5427860000000  0.5121240000000 1.0
C      1  0.4271360000000  0.5289880000000  0.4954440000000 1.0
C      1  0.4578460000000  0.4863860000000  0.5559740000000 1.0
C      1  0.5540400000000  0.5503170000000  0.5629110000000 1.0
C      1  0.4780920000000  0.5975010000000  0.4467860000000 1.0
C      1  0.4639540000000  0.4823660000000  0.4925550000000 1.0
C      1  0.5346080000000  0.5248420000000  0.5653530000000 1.0
C      1  0.5580560000000  0.4425550000000  0.4165170000000 1.0
C      1  0.4062280000000  0.5175940000000  0.4634470000000 1.0
C      1  0.5373540000000  0.4482560000000  0.3899620000000 1.0
C      1  0.5320950000000  0.5810720000000  0.5497960000000 1.0
C      1  0.4259340000000  0.5201170000000  0.5809010000000 1.0
C      1  0.5760610000000  0.4561670000000  0.5629550000000 1.0
C      1  0.5129330000000  0.5632080000000  0.5631420000000 1.0
C      1  0.5624860000000  0.5458370000000  0.4485410000000 1.0
C      1  0.4230290000000  0.4354090000000  0.4628550000000 1.0
C      1  0.4930390000000  0.5051520000000  0.5537810000000 1.0
C      1  0.5258700000000  0.4696120000000  0.5411890000000 1.0
C      1  0.5618490000000  0.4972450000000  0.4103200000000 1.0
C      1  0.4614940000000  0.4028520000000  0.4650620000000 1.0
C      1  0.4289460000000  0.4984660000000  0.4148370000000 1.0
C      1  0.4080960000000  0.4955850000000  0.5653750000000 1.0
C      1  0.5639210000000  0.5943920000000  0.5080590000000 1.0
C      1  0.5171110000000  0.5316070000000  0.5913890000000 1.0
C      1  0.4054950000000  0.5033120000000  0.4351280000000 1.0
C      1  0.5144430000000  0.4685290000000  0.3902350000000 1.0
C      1  0.6116910000000  0.4244460000000  0.5289960000000 1.0
C      1  0.5475710000000  0.4305840000000  0.4443600000000 1.0
C      1  0.4151870000000  0.5055200000000  0.5147020000000 1.0
C      1  0.4975380000000  0.3935200000000  0.5332460000000 1.0
C      1  0.5551870000000  0.4809870000000  0.5280250000000 1.0
C      1  0.5935610000000  0.4695340000000  0.4738780000000 1.0
C      1  0.3991320000000  0.5575320000000  0.4985630000000 1.0
C      1  0.5083420000000  0.5070320000000  0.6120620000000 1.0
C      1  0.5555840000000  0.5002780000000  0.5969820000000 1.0
C      1  0.4889380000000  0.4011360000000  0.5069310000000 1.0
C      1  0.4736860000000  0.4313390000000  0.5809100000000 1.0
C      1  0.5968650000000  0.5183100000000  0.4838660000000 1.0
C      1  0.5106430000000  0.6022290000000  0.5389310000000 1.0
C      1  0.5961760000000  0.4458890000000  0.4885670000000 1.0
C      1  0.4129290000000  0.4648220000000  0.4766010000000 1.0
C      1  0.4626130000000  0.5434750000000  0.4577970000000 1.0
C      1  0.4500080000000  0.5909940000000  0.4590270000000 1.0
C      1  0.4808190000000  0.3770320000000  0.5474590000000 1.0
C      1  0.4086030000000  0.4954020000000  0.4849850000000 1.0
C      1  0.5610330000000  0.5260220000000  0.4237230000000 1.0
C      1  0.5853860000000  0.5595170000000  0.5415980000000 1.0
C      1  0.4313400000000  0.4498220000000  0.5594900000000 1.0
C      1  0.5099990000000  0.5592170000000  0.4653330000000 1.0
C      1  0.5453970000000  0.5693070000000  0.5856180000000 1.0
C      1  0.4811730000000  0.5491160000000  0.5313350000000 1.0
C      1  0.4901070000000  0.4366190000000  0.4247200000000 1.0
C      1  0.5802290000000  0.4888370000000  0.5580910000000 1.0
C      1  0.4633700000000  0.5148930000000  0.5415010000000 1.0
C      1  0.4218650000000  0.4574460000000  0.5313090000000 1.0
C      1  0.5506610000000  0.5314250000000  0.4756490000000 1.0
C      1  0.5797660000000  0.5454300000000  0.4782230000000 1.0
C      1  0.4887780000000  0.4498590000000  0.3980760000000 1.0
C      1  0.5076710000000  0.5089010000000  0.4242190000000 1.0
C      1  0.5831430000000  0.5378980000000  0.5678360000000 1.0
C      1  0.4791890000000  0.4207410000000  0.6047570000000 1.0
C      1  0.5034860000000  0.5727180000000  0.5233580000000 1.0
C      1  0.5763320000000  0.5079230000000  0.5306750000000 1.0
C      1  0.5325890000000  0.4257060000000  0.5612610000000 1.0
C      1  0.4513990000000  0.4301820000000  0.5606530000000 1.0
C      1  0.5300130000000  0.5598980000000  0.5157270000000 1.0
C      1  0.5005530000000  0.5295310000000  0.4848810000000 1.0
C      1  0.4466820000000  0.4396210000000  0.4467970000000 1.0
C      1  0.5834090000000  0.4224830000000  0.4818390000000 1.0
C      1  0.4339540000000  0.5661010000000  0.4210640000000 1.0
C      1  0.4803240000000  0.4678850000000  0.4326580000000 1.0
C      1  0.4587560000000  0.5628310000000  0.5502950000000 1.0
C      1  0.5357680000000  0.4778620000000  0.5802710000000 1.0
C      1  0.5587820000000  0.4073980000000  0.4639670000000 1.0
C      1  0.5399940000000  0.5101420000000  0.6176300000000 1.0
C      1  0.4406220000000  0.5445920000000  0.5729000000000 1.0
C      1  0.4618910000000  0.5289010000000  0.5142920000000 1.0
C      1  0.5155410000000  0.5304840000000  0.4478980000000 1.0
C      1  0.4869580000000  0.5699120000000  0.5775530000000 1.0
END
