TITL C-2778426-5645-1260 0.00108601020141284 125000 -616.79193067565 0 0 108 (C1) n - 1
REM
REM in /home/nfs/bkarasulu/CARBON/AIRSS/Generating-Clusters/REBO/Only-C1/SD-CG/HFTN-CG
REM
REM
REM
REM
REM
REM ./C.cell (11c1c37f851c82e70ff6c80c92926a4b)
REM
REM compiler GCC version 9.2.1 20190827 (Red Hat 9.2.1-1)
REM options -cpp -mtune=generic -march=x86-64 -g -O0 -fpre-include=/usr/include/finclude/math-vector-fortran.h
REM seed -1904435110 -184428345 424564884 492351370 -1654133308 2114639619 -1458587798 548755862 331646556 -910066053 -826576087 -1307621741 -1643147840 -511963255 1320766064 1112235602 1600859996 2144516673 2045120844 -1665892107 2057049359 248345043 589607904 525890702 -1501547391 -230198557 286752818 138244736 -1786594617 -2077652426 -1150319748 588843272 -1694989849
REM
CELL 1.54180   50.00000   50.00000   50.00000   90.00000   90.00000   90.00000
LATT -1
SFAC C  
C      1  0.5009050000000  0.4258090000000  0.4724120000000 1.0
C      1  0.5603920000000  0.5379090000000  0.4775810000000 1.0
C      1  0.5156170000000  0.5587140000000  0.4388250000000 1.0
C      1  0.5125420000000  0.5816260000000  0.4570650000000 1.0
C      1  0.4572770000000  0.5259480000000  0.4840710000000 1.0
C      1  0.4721840000000  0.5104940000000  0.5399300000000 1.0
C      1  0.4759410000000  0.5488780000000  0.5501620000000 1.0
C      1  0.5050320000000  0.5056320000000  0.5423570000000 1.0
C      1  0.5509620000000  0.4828100000000  0.4684550000000 1.0
C      1  0.5400130000000  0.4244860000000  0.5094510000000 1.0
C      1  0.4420300000000  0.5520590000000  0.5474760000000 1.0
C      1  0.5682250000000  0.4864100000000  0.4301990000000 1.0
C      1  0.5169490000000  0.4868510000000  0.4263520000000 1.0
C      1  0.4197350000000  0.5032820000000  0.4731780000000 1.0
C      1  0.4787910000000  0.5285320000000  0.5748730000000 1.0
C      1  0.5276640000000  0.4646920000000  0.4951440000000 1.0
C      1  0.4972200000000  0.4515190000000  0.5171750000000 1.0
C      1  0.5328400000000  0.5289390000000  0.5720340000000 1.0
C      1  0.5086050000000  0.5329530000000  0.4844920000000 1.0
C      1  0.5818570000000  0.4559190000000  0.5010930000000 1.0
C      1  0.4281510000000  0.5739740000000  0.4817860000000 1.0
C      1  0.4463960000000  0.5882040000000  0.4987080000000 1.0
C      1  0.4625150000000  0.5546530000000  0.5133170000000 1.0
C      1  0.4349800000000  0.5152220000000  0.4451490000000 1.0
C      1  0.4722360000000  0.5648220000000  0.4290060000000 1.0
C      1  0.5427440000000  0.4982140000000  0.5106620000000 1.0
C      1  0.5525560000000  0.4293400000000  0.4617160000000 1.0
C      1  0.5059400000000  0.5100400000000  0.5820970000000 1.0
C      1  0.5227030000000  0.4231080000000  0.5571990000000 1.0
C      1  0.5072970000000  0.4205950000000  0.5019010000000 1.0
C      1  0.5391280000000  0.4432900000000  0.4343730000000 1.0
C      1  0.4441770000000  0.5778030000000  0.5269170000000 1.0
C      1  0.4917470000000  0.5395540000000  0.5208800000000 1.0
C      1  0.5658580000000  0.4871730000000  0.5824490000000 1.0
C      1  0.5625870000000  0.4539970000000  0.5514520000000 1.0
C      1  0.5014770000000  0.5312640000000  0.4543110000000 1.0
C      1  0.5325260000000  0.5119710000000  0.4885710000000 1.0
C      1  0.4556990000000  0.5228840000000  0.5171680000000 1.0
C      1  0.5864390000000  0.5197520000000  0.4649040000000 1.0
C      1  0.4622910000000  0.4746810000000  0.5240320000000 1.0
C      1  0.4769930000000  0.4718620000000  0.4782610000000 1.0
C      1  0.4535790000000  0.4778650000000  0.4973130000000 1.0
C      1  0.4391880000000  0.4440600000000  0.5129220000000 1.0
C      1  0.4957920000000  0.5101730000000  0.5042000000000 1.0
C      1  0.5538120000000  0.4439080000000  0.4877370000000 1.0
C      1  0.4581530000000  0.4984720000000  0.4635240000000 1.0
C      1  0.6001190000000  0.5059230000000  0.5455710000000 1.0
C      1  0.5355480000000  0.5518120000000  0.4897730000000 1.0
C      1  0.5295600000000  0.5808910000000  0.4798530000000 1.0
C      1  0.4762210000000  0.4455130000000  0.5620530000000 1.0
C      1  0.5302150000000  0.4622120000000  0.4612010000000 1.0
C      1  0.4667210000000  0.4441820000000  0.4416550000000 1.0
C      1  0.5299310000000  0.5982550000000  0.5012260000000 1.0
C      1  0.4747120000000  0.5855490000000  0.4913150000000 1.0
C      1  0.4810650000000  0.4447730000000  0.4650910000000 1.0
C      1  0.5792730000000  0.4725140000000  0.4743640000000 1.0
C      1  0.6013690000000  0.5217790000000  0.5263090000000 1.0
C      1  0.4511800000000  0.4235880000000  0.4809630000000 1.0
C      1  0.5087820000000  0.4990440000000  0.4571010000000 1.0
C      1  0.4710270000000  0.5562900000000  0.4761410000000 1.0
C      1  0.5223310000000  0.5516270000000  0.5204340000000 1.0
C      1  0.5476670000000  0.5129190000000  0.4581000000000 1.0
C      1  0.4816340000000  0.4992610000000  0.4402650000000 1.0
C      1  0.5203300000000  0.4819140000000  0.5571620000000 1.0
C      1  0.5833770000000  0.4789950000000  0.5571330000000 1.0
C      1  0.4779450000000  0.4950440000000  0.5697170000000 1.0
C      1  0.4713310000000  0.4376970000000  0.5031070000000 1.0
C      1  0.4480820000000  0.5225140000000  0.5607800000000 1.0
C      1  0.5825200000000  0.4771960000000  0.5242690000000 1.0
C      1  0.5219150000000  0.5835190000000  0.5287320000000 1.0
C      1  0.5036880000000  0.4849710000000  0.4840030000000 1.0
C      1  0.5309750000000  0.4738880000000  0.5277470000000 1.0
C      1  0.4103570000000  0.5557470000000  0.4988360000000 1.0
C      1  0.4827940000000  0.5760460000000  0.4535340000000 1.0
C      1  0.4871360000000  0.4816000000000  0.4124550000000 1.0
C      1  0.5219740000000  0.4217860000000  0.4543790000000 1.0
C      1  0.4266820000000  0.5217650000000  0.5266980000000 1.0
C      1  0.4181920000000  0.4936590000000  0.5234730000000 1.0
C      1  0.4408480000000  0.4686430000000  0.4598240000000 1.0
C      1  0.4266490000000  0.4865380000000  0.4958340000000 1.0
C      1  0.4877890000000  0.4099890000000  0.5257370000000 1.0
C      1  0.5061810000000  0.4566350000000  0.5695230000000 1.0
C      1  0.4362110000000  0.4933020000000  0.5528460000000 1.0
C      1  0.5225770000000  0.5309300000000  0.5445250000000 1.0
C      1  0.4156700000000  0.5492530000000  0.5257780000000 1.0
C      1  0.4944820000000  0.4183700000000  0.5546550000000 1.0
C      1  0.4426910000000  0.5535890000000  0.4592260000000 1.0
C      1  0.4926460000000  0.5884370000000  0.5118600000000 1.0
C      1  0.4587000000000  0.4708200000000  0.5659040000000 1.0
C      1  0.5645780000000  0.4414880000000  0.5258560000000 1.0
C      1  0.5249610000000  0.4414980000000  0.5308090000000 1.0
C      1  0.4857700000000  0.5364870000000  0.4245680000000 1.0
C      1  0.5391460000000  0.4482010000000  0.5674600000000 1.0
C      1  0.4624550000000  0.4310290000000  0.5348490000000 1.0
C      1  0.4338040000000  0.4484390000000  0.4792040000000 1.0
C      1  0.5839720000000  0.5248230000000  0.4983960000000 1.0
C      1  0.4923030000000  0.4813920000000  0.5221280000000 1.0
C      1  0.5194140000000  0.5353970000000  0.4190660000000 1.0
C      1  0.5372150000000  0.4967830000000  0.5799720000000 1.0
C      1  0.4601170000000  0.4740040000000  0.4319490000000 1.0
C      1  0.4919650000000  0.5740160000000  0.5410850000000 1.0
C      1  0.5699160000000  0.5007380000000  0.5137060000000 1.0
C      1  0.4241220000000  0.5345930000000  0.4783480000000 1.0
C      1  0.4495180000000  0.5397790000000  0.4311710000000 1.0
C      1  0.5448050000000  0.4726370000000  0.4254560000000 1.0
C      1  0.4374420000000  0.4615520000000  0.5410890000000 1.0
C      1  0.5339070000000  0.5139390000000  0.4301690000000 1.0
C      1  0.5857460000000  0.4938860000000  0.4526880000000 1.0
END
