TITL C-2778422-5617-855 0.111564642757453 125000 -497.963274519788 0 0 88 (C1) n - 1
REM
REM in /home/nfs/bkarasulu/CARBON/AIRSS/Generating-Clusters/REBO/Only-C1/SD-CG/HFTN-CG
REM
REM
REM
REM
REM
REM ./C.cell (11c1c37f851c82e70ff6c80c92926a4b)
REM
REM compiler GCC version 9.2.1 20190827 (Red Hat 9.2.1-1)
REM options -cpp -mtune=generic -march=x86-64 -g -O0 -fpre-include=/usr/include/finclude/math-vector-fortran.h
REM seed -1378479689 1733132731 1153699075 -1098023296 230403557 271297974 910629005 -1153410501 -505747641 1593451471 -1337191906 -1124542712 -282614857 1108186561 -532505521 218319786 1415354618 -1641958753 -1441154338 -1973998907 1862433519 -1973024614 -929658135 1578281862 -830313149 609577237 517528989 -1510532890 2128585409 -1529580138 -1185572121 913380676 612753656
REM
CELL 1.54180   50.00000   50.00000   50.00000   90.00000   90.00000   90.00000
LATT -1
SFAC C  
C      1  0.5517860000000  0.4920640000000  0.5672440000000 1.0
C      1  0.4512120000000  0.4866200000000  0.4964320000000 1.0
C      1  0.5122730000000  0.4818300000000  0.5252760000000 1.0
C      1  0.4700920000000  0.5384570000000  0.5645610000000 1.0
C      1  0.5766100000000  0.5176580000000  0.4960220000000 1.0
C      1  0.5747920000000  0.4935920000000  0.4766590000000 1.0
C      1  0.4658140000000  0.4788830000000  0.4328650000000 1.0
C      1  0.4447610000000  0.4952910000000  0.4420530000000 1.0
C      1  0.4973320000000  0.4370040000000  0.4440410000000 1.0
C      1  0.4190520000000  0.4796100000000  0.5188110000000 1.0
C      1  0.5284690000000  0.5413420000000  0.5680750000000 1.0
C      1  0.4729670000000  0.4955550000000  0.5737730000000 1.0
C      1  0.4202550000000  0.5183470000000  0.5273510000000 1.0
C      1  0.5396320000000  0.5122520000000  0.5431490000000 1.0
C      1  0.5031550000000  0.5622420000000  0.4385420000000 1.0
C      1  0.5255110000000  0.5373050000000  0.4355820000000 1.0
C      1  0.5484480000000  0.4980360000000  0.5162220000000 1.0
C      1  0.4397070000000  0.5178350000000  0.5001350000000 1.0
C      1  0.5806320000000  0.5379930000000  0.5394580000000 1.0
C      1  0.5317810000000  0.4929160000000  0.4910950000000 1.0
C      1  0.5599660000000  0.5026840000000  0.4489950000000 1.0
C      1  0.4595370000000  0.5227820000000  0.5259680000000 1.0
C      1  0.5334230000000  0.4208520000000  0.4953580000000 1.0
C      1  0.5317190000000  0.5092650000000  0.4633770000000 1.0
C      1  0.4978890000000  0.4371540000000  0.5347700000000 1.0
C      1  0.5550500000000  0.5280010000000  0.4336460000000 1.0
C      1  0.4435890000000  0.5676450000000  0.4839060000000 1.0
C      1  0.4714550000000  0.4554250000000  0.4516110000000 1.0
C      1  0.4999480000000  0.4938530000000  0.5811090000000 1.0
C      1  0.4451770000000  0.4390450000000  0.4620790000000 1.0
C      1  0.4253600000000  0.4509180000000  0.5062780000000 1.0
C      1  0.5253440000000  0.5322930000000  0.4884700000000 1.0
C      1  0.4727820000000  0.4686380000000  0.4814970000000 1.0
C      1  0.4200460000000  0.4838980000000  0.4847410000000 1.0
C      1  0.5092730000000  0.5114390000000  0.5434480000000 1.0
C      1  0.5210230000000  0.5542230000000  0.4639920000000 1.0
C      1  0.4877360000000  0.5128800000000  0.5206550000000 1.0
C      1  0.5642140000000  0.4646360000000  0.4598950000000 1.0
C      1  0.5556860000000  0.5396090000000  0.5499790000000 1.0
C      1  0.5695090000000  0.4647050000000  0.4924920000000 1.0
C      1  0.4690880000000  0.5661690000000  0.5590130000000 1.0
C      1  0.5209950000000  0.4216660000000  0.4634170000000 1.0
C      1  0.5212700000000  0.4175660000000  0.5195640000000 1.0
C      1  0.4973050000000  0.4332200000000  0.4837310000000 1.0
C      1  0.5586070000000  0.5393750000000  0.4920190000000 1.0
C      1  0.5247920000000  0.4720100000000  0.5724670000000 1.0
C      1  0.4945800000000  0.5554260000000  0.4993320000000 1.0
C      1  0.4537450000000  0.4469480000000  0.5003140000000 1.0
C      1  0.4689650000000  0.4481690000000  0.5495900000000 1.0
C      1  0.4369950000000  0.5359590000000  0.4733640000000 1.0
C      1  0.5011880000000  0.4842020000000  0.4833750000000 1.0
C      1  0.4815720000000  0.4836290000000  0.5366100000000 1.0
C      1  0.4934420000000  0.5762740000000  0.5498340000000 1.0
C      1  0.5231300000000  0.4570740000000  0.4380110000000 1.0
C      1  0.5268230000000  0.5107220000000  0.5808620000000 1.0
C      1  0.5148970000000  0.5582690000000  0.5432240000000 1.0
C      1  0.4249570000000  0.4946180000000  0.5488020000000 1.0
C      1  0.5091220000000  0.4594430000000  0.4677760000000 1.0
C      1  0.4862430000000  0.4858680000000  0.4161520000000 1.0
C      1  0.5626260000000  0.4616140000000  0.5243870000000 1.0
C      1  0.4721320000000  0.5545120000000  0.4759910000000 1.0
C      1  0.4619950000000  0.5907880000000  0.4892310000000 1.0
C      1  0.5490650000000  0.4762980000000  0.4334140000000 1.0
C      1  0.5842140000000  0.5142570000000  0.5234790000000 1.0
C      1  0.4759790000000  0.5609030000000  0.4444160000000 1.0
C      1  0.5079550000000  0.4529270000000  0.5072120000000 1.0
C      1  0.5498240000000  0.4376100000000  0.4709710000000 1.0
C      1  0.4553180000000  0.5364890000000  0.4446330000000 1.0
C      1  0.4903140000000  0.5858520000000  0.4929220000000 1.0
C      1  0.4307180000000  0.5050540000000  0.4633280000000 1.0
C      1  0.5218650000000  0.5837630000000  0.4928370000000 1.0
C      1  0.4794980000000  0.5147130000000  0.4460680000000 1.0
C      1  0.4687050000000  0.4285380000000  0.4810650000000 1.0
C      1  0.5180740000000  0.4846330000000  0.4216560000000 1.0
C      1  0.4771860000000  0.5240150000000  0.4749330000000 1.0
C      1  0.4969210000000  0.5303000000000  0.5654370000000 1.0
C      1  0.4975170000000  0.5132900000000  0.4932510000000 1.0
C      1  0.4506250000000  0.4748720000000  0.5601330000000 1.0
C      1  0.4525840000000  0.4766130000000  0.5267600000000 1.0
C      1  0.5350980000000  0.4667990000000  0.5413040000000 1.0
C      1  0.5167090000000  0.5488490000000  0.5172700000000 1.0
C      1  0.4986320000000  0.4620600000000  0.5570290000000 1.0
C      1  0.5440770000000  0.5671450000000  0.4939710000000 1.0
C      1  0.4507380000000  0.5144930000000  0.5559890000000 1.0
C      1  0.5375900000000  0.4624070000000  0.5016430000000 1.0
C      1  0.5086540000000  0.5098860000000  0.4389360000000 1.0
C      1  0.4232950000000  0.4514880000000  0.4747660000000 1.0
C      1  0.5713730000000  0.4884490000000  0.5398980000000 1.0
END
