TITL C-2778428-5639-1234 0.00122821010621049 125000 -1077.44822866427 0 0 182 (C1) n - 1
REM
REM in /home/nfs/bkarasulu/CARBON/AIRSS/Generating-Clusters/REBO/Only-C1/SD-CG/HFTN-CG
REM
REM
REM
REM
REM
REM ./C.cell (11c1c37f851c82e70ff6c80c92926a4b)
REM
REM compiler GCC version 9.2.1 20190827 (Red Hat 9.2.1-1)
REM options -cpp -mtune=generic -march=x86-64 -g -O0 -fpre-include=/usr/include/finclude/math-vector-fortran.h
REM seed 72128773 -1754830837 -1936270825 880281472 664775674 980179546 -936387338 2062396559 -1785950027 -235331977 109599238 -353175839 716312459 1752388821 920577976 -705826092 660136543 -909115722 -518981916 64308806 -1307848333 1846742069 -1199433111 1934855841 -2118061263 997219405 -1987793922 -292174210 -508149753 -850466393 -614277576 87551040 -1768565506
REM
CELL 1.54180   50.00000   50.00000   50.00000   90.00000   90.00000   90.00000
LATT -1
SFAC C  
C      1  0.5241760000000  0.5342630000000  0.4307850000000 1.0
C      1  0.4928160000000  0.5935220000000  0.4422990000000 1.0
C      1  0.4733570000000  0.5228200000000  0.6065800000000 1.0
C      1  0.5065780000000  0.5246930000000  0.6052000000000 1.0
C      1  0.5806680000000  0.4674350000000  0.5451390000000 1.0
C      1  0.5205830000000  0.5820970000000  0.4533990000000 1.0
C      1  0.4802770000000  0.5483370000000  0.4157220000000 1.0
C      1  0.4030860000000  0.5508200000000  0.5360930000000 1.0
C      1  0.5454390000000  0.5390520000000  0.4691020000000 1.0
C      1  0.4705300000000  0.5809480000000  0.4953700000000 1.0
C      1  0.4510900000000  0.5259470000000  0.5062780000000 1.0
C      1  0.4800980000000  0.4233540000000  0.4735020000000 1.0
C      1  0.4850740000000  0.4970550000000  0.4946180000000 1.0
C      1  0.5723030000000  0.4820830000000  0.4891970000000 1.0
C      1  0.4940370000000  0.4359790000000  0.4153530000000 1.0
C      1  0.6130470000000  0.5142740000000  0.4891800000000 1.0
C      1  0.4723820000000  0.4424200000000  0.5194410000000 1.0
C      1  0.4764290000000  0.5574850000000  0.5395610000000 1.0
C      1  0.5159670000000  0.6039790000000  0.5556280000000 1.0
C      1  0.4904850000000  0.3983170000000  0.4310710000000 1.0
C      1  0.4518600000000  0.5752850000000  0.5517380000000 1.0
C      1  0.5447240000000  0.4810830000000  0.4297530000000 1.0
C      1  0.5685000000000  0.5273610000000  0.5980740000000 1.0
C      1  0.3935310000000  0.5007580000000  0.4542190000000 1.0
C      1  0.4222640000000  0.5756350000000  0.4633110000000 1.0
C      1  0.4768970000000  0.5079830000000  0.5442420000000 1.0
C      1  0.5323510000000  0.4102940000000  0.5485540000000 1.0
C      1  0.5520420000000  0.5230690000000  0.5583920000000 1.0
C      1  0.4828230000000  0.5177550000000  0.3993310000000 1.0
C      1  0.4634980000000  0.4390290000000  0.5490100000000 1.0
C      1  0.5600270000000  0.5934700000000  0.4978420000000 1.0
C      1  0.4631990000000  0.5968500000000  0.5200640000000 1.0
C      1  0.4596800000000  0.4723050000000  0.5427080000000 1.0
C      1  0.5849000000000  0.5478020000000  0.4375710000000 1.0
C      1  0.4734040000000  0.5668770000000  0.4646240000000 1.0
C      1  0.5686950000000  0.5065130000000  0.5091440000000 1.0
C      1  0.5452580000000  0.4664390000000  0.4936270000000 1.0
C      1  0.5883260000000  0.4167260000000  0.5440740000000 1.0
C      1  0.4869290000000  0.4840670000000  0.3954750000000 1.0
C      1  0.5114310000000  0.5114300000000  0.4106740000000 1.0
C      1  0.4971400000000  0.3918760000000  0.4982010000000 1.0
C      1  0.5810820000000  0.5676690000000  0.4900710000000 1.0
C      1  0.5677840000000  0.5577380000000  0.4619230000000 1.0
C      1  0.4544350000000  0.5262940000000  0.4130640000000 1.0
C      1  0.5565940000000  0.5741390000000  0.5652120000000 1.0
C      1  0.6145470000000  0.4659820000000  0.5164380000000 1.0
C      1  0.5992850000000  0.5159450000000  0.5190310000000 1.0
C      1  0.5552030000000  0.5624880000000  0.5110190000000 1.0
C      1  0.4969230000000  0.4279620000000  0.4469320000000 1.0
C      1  0.5614590000000  0.5564550000000  0.5391800000000 1.0
C      1  0.5650480000000  0.4864230000000  0.5676410000000 1.0
C      1  0.3820440000000  0.5057050000000  0.5387510000000 1.0
C      1  0.4056200000000  0.4514730000000  0.4590590000000 1.0
C      1  0.3741990000000  0.4940440000000  0.4741130000000 1.0
C      1  0.5015900000000  0.5709300000000  0.4203680000000 1.0
C      1  0.5299900000000  0.5471750000000  0.5484020000000 1.0
C      1  0.5194470000000  0.4620030000000  0.4317040000000 1.0
C      1  0.4311330000000  0.5588780000000  0.4420530000000 1.0
C      1  0.4468700000000  0.4559830000000  0.5811750000000 1.0
C      1  0.4889440000000  0.4674510000000  0.4460130000000 1.0
C      1  0.5088370000000  0.5167860000000  0.4975500000000 1.0
C      1  0.5352670000000  0.5413640000000  0.3994060000000 1.0
C      1  0.5004480000000  0.4703170000000  0.5961320000000 1.0
C      1  0.5256300000000  0.5786540000000  0.5767050000000 1.0
C      1  0.5462880000000  0.6039250000000  0.5543330000000 1.0
C      1  0.5876960000000  0.4345710000000  0.4911540000000 1.0
C      1  0.4269330000000  0.4478340000000  0.5620880000000 1.0
C      1  0.5222930000000  0.4334000000000  0.4039130000000 1.0
C      1  0.6060720000000  0.4829550000000  0.4934490000000 1.0
C      1  0.4140930000000  0.5722010000000  0.5174750000000 1.0
C      1  0.5381510000000  0.4746240000000  0.5751230000000 1.0
C      1  0.5076340000000  0.5581150000000  0.5284700000000 1.0
C      1  0.4578410000000  0.5399000000000  0.5849690000000 1.0
C      1  0.5592630000000  0.5626970000000  0.4232090000000 1.0
C      1  0.5270610000000  0.4388820000000  0.4533360000000 1.0
C      1  0.5922170000000  0.4602960000000  0.4730530000000 1.0
C      1  0.5221190000000  0.4085760000000  0.4229880000000 1.0
C      1  0.4475040000000  0.4324190000000  0.4424530000000 1.0
C      1  0.3849690000000  0.4785150000000  0.5254370000000 1.0
C      1  0.5583140000000  0.5881540000000  0.4645730000000 1.0
C      1  0.4584600000000  0.5089520000000  0.4800380000000 1.0
C      1  0.5958560000000  0.4390200000000  0.5214900000000 1.0
C      1  0.4775830000000  0.4580840000000  0.4089940000000 1.0
C      1  0.5174530000000  0.4984790000000  0.5864330000000 1.0
C      1  0.4709110000000  0.4737500000000  0.5116810000000 1.0
C      1  0.4713220000000  0.5492030000000  0.5077500000000 1.0
C      1  0.5256770000000  0.5141500000000  0.4727300000000 1.0
C      1  0.4192550000000  0.5144840000000  0.5689910000000 1.0
C      1  0.5413410000000  0.4180480000000  0.4995040000000 1.0
C      1  0.4526210000000  0.5041620000000  0.5297620000000 1.0
C      1  0.4907380000000  0.6245670000000  0.5119090000000 1.0
C      1  0.4975340000000  0.4953390000000  0.4323400000000 1.0
C      1  0.4173730000000  0.4796020000000  0.4574030000000 1.0
C      1  0.4770730000000  0.5899480000000  0.5628070000000 1.0
C      1  0.3954040000000  0.4520800000000  0.4973930000000 1.0
C      1  0.4916460000000  0.4710120000000  0.4777500000000 1.0
C      1  0.4182620000000  0.4553710000000  0.5125880000000 1.0
C      1  0.5966480000000  0.5269500000000  0.4621430000000 1.0
C      1  0.5451140000000  0.4445370000000  0.5845680000000 1.0
C      1  0.5484130000000  0.5466280000000  0.5834260000000 1.0
C      1  0.4385780000000  0.4051550000000  0.4701920000000 1.0
C      1  0.5295190000000  0.5914080000000  0.4829200000000 1.0
C      1  0.5307950000000  0.5428410000000  0.4997000000000 1.0
C      1  0.5671650000000  0.4297960000000  0.5751760000000 1.0
C      1  0.3899370000000  0.5487140000000  0.4822420000000 1.0
C      1  0.4672390000000  0.4518040000000  0.4787700000000 1.0
C      1  0.4218610000000  0.5147070000000  0.4944550000000 1.0
C      1  0.5157810000000  0.4983460000000  0.5345930000000 1.0
C      1  0.4158960000000  0.5427720000000  0.5609070000000 1.0
C      1  0.5239240000000  0.4644090000000  0.4721300000000 1.0
C      1  0.5341900000000  0.5723320000000  0.4245330000000 1.0
C      1  0.4334530000000  0.4880010000000  0.4808540000000 1.0
C      1  0.4354270000000  0.5876690000000  0.5285470000000 1.0
C      1  0.4737070000000  0.4519940000000  0.5854330000000 1.0
C      1  0.5230530000000  0.3986460000000  0.4537100000000 1.0
C      1  0.5595820000000  0.4072190000000  0.5551980000000 1.0
C      1  0.5484800000000  0.5021800000000  0.5316860000000 1.0
C      1  0.5898510000000  0.4883030000000  0.4197140000000 1.0
C      1  0.4581490000000  0.4598790000000  0.4336220000000 1.0
C      1  0.4889840000000  0.6081250000000  0.5394120000000 1.0
C      1  0.4855260000000  0.5416740000000  0.5682160000000 1.0
C      1  0.4115120000000  0.4653910000000  0.5429890000000 1.0
C      1  0.3955500000000  0.5253660000000  0.4970230000000 1.0
C      1  0.4816220000000  0.4846410000000  0.5639920000000 1.0
C      1  0.5167430000000  0.5496850000000  0.4569120000000 1.0
C      1  0.4438730000000  0.4064750000000  0.4997280000000 1.0
C      1  0.4368800000000  0.4837840000000  0.4325790000000 1.0
C      1  0.5322030000000  0.4733040000000  0.5227180000000 1.0
C      1  0.4998390000000  0.5257260000000  0.5342840000000 1.0
C      1  0.5763340000000  0.4501010000000  0.4481370000000 1.0
C      1  0.4945870000000  0.5709310000000  0.5783930000000 1.0
C      1  0.4352540000000  0.4225500000000  0.5477760000000 1.0
C      1  0.5671890000000  0.4555320000000  0.5183140000000 1.0
C      1  0.5565910000000  0.4312160000000  0.4565660000000 1.0
C      1  0.4081680000000  0.5702010000000  0.4878320000000 1.0
C      1  0.5128130000000  0.5230780000000  0.5658420000000 1.0
C      1  0.5742130000000  0.5156800000000  0.4083250000000 1.0
C      1  0.4749030000000  0.6001650000000  0.4673320000000 1.0
C      1  0.4283510000000  0.5339430000000  0.4256210000000 1.0
C      1  0.5860450000000  0.4991300000000  0.5449240000000 1.0
C      1  0.4911570000000  0.3927010000000  0.4647210000000 1.0
C      1  0.4919000000000  0.3952460000000  0.5251890000000 1.0
C      1  0.5181210000000  0.4923590000000  0.4571680000000 1.0
C      1  0.5748000000000  0.5043180000000  0.5912740000000 1.0
C      1  0.5232030000000  0.4016450000000  0.4861750000000 1.0
C      1  0.4949720000000  0.5518980000000  0.4830590000000 1.0
C      1  0.5024510000000  0.4073770000000  0.5483580000000 1.0
C      1  0.4220370000000  0.4294580000000  0.4580670000000 1.0
C      1  0.5637430000000  0.4224300000000  0.4829070000000 1.0
C      1  0.4046640000000  0.4950350000000  0.5556590000000 1.0
C      1  0.5124820000000  0.4447360000000  0.5827850000000 1.0
C      1  0.5471580000000  0.5095210000000  0.4279900000000 1.0
C      1  0.5214440000000  0.4425910000000  0.5499670000000 1.0
C      1  0.3771690000000  0.4759770000000  0.4961140000000 1.0
C      1  0.4678710000000  0.4923400000000  0.5902720000000 1.0
C      1  0.4616710000000  0.5500710000000  0.4442040000000 1.0
C      1  0.5145650000000  0.5715720000000  0.5008550000000 1.0
C      1  0.4427770000000  0.4641450000000  0.4967250000000 1.0
C      1  0.5708980000000  0.4694170000000  0.4288570000000 1.0
C      1  0.4690640000000  0.4200130000000  0.5023390000000 1.0
C      1  0.5491670000000  0.5188630000000  0.3893490000000 1.0
C      1  0.5100910000000  0.4741150000000  0.5559040000000 1.0
C      1  0.5993770000000  0.5187150000000  0.4301530000000 1.0
C      1  0.4620130000000  0.5210410000000  0.4534320000000 1.0
C      1  0.5161750000000  0.4666990000000  0.3991480000000 1.0
C      1  0.5381550000000  0.4394690000000  0.5219390000000 1.0
C      1  0.5907050000000  0.4438170000000  0.5610240000000 1.0
C      1  0.5764210000000  0.5297380000000  0.4893590000000 1.0
C      1  0.4602170000000  0.4053330000000  0.4438890000000 1.0
C      1  0.4431470000000  0.5113300000000  0.5835110000000 1.0
C      1  0.4147580000000  0.5101330000000  0.4325370000000 1.0
C      1  0.4297170000000  0.4070620000000  0.5246590000000 1.0
C      1  0.5810110000000  0.5319590000000  0.5426380000000 1.0
C      1  0.5306780000000  0.4950680000000  0.3911320000000 1.0
C      1  0.4880590000000  0.4278670000000  0.5660970000000 1.0
C      1  0.6054660000000  0.5471590000000  0.4952770000000 1.0
C      1  0.3876020000000  0.5294410000000  0.5243150000000 1.0
C      1  0.4843930000000  0.6218420000000  0.4882440000000 1.0
C      1  0.5173960000000  0.5505530000000  0.5944230000000 1.0
C      1  0.4657200000000  0.4997080000000  0.4306020000000 1.0
C      1  0.4376490000000  0.5579150000000  0.5710690000000 1.0
C      1  0.4907580000000  0.4956770000000  0.6155020000000 1.0
END
