TITL C-2778429-3646-1059 0.000936894469230698 125000 -149.210839019287 0 0 27 (C1) n - 1
REM
REM in /home/nfs/bkarasulu/CARBON/AIRSS/Generating-Clusters/REBO/Only-C1/SD-CG/HFTN-CG
REM
REM
REM
REM
REM
REM ./C.cell (11c1c37f851c82e70ff6c80c92926a4b)
REM
REM compiler GCC version 9.2.1 20190827 (Red Hat 9.2.1-1)
REM options -cpp -mtune=generic -march=x86-64 -g -O0 -fpre-include=/usr/include/finclude/math-vector-fortran.h
REM seed -1048308426 -137191677 -1909983653 -908709253 -1513352912 1993068173 -1811791109 1902871496 915162158 1204454071 -414786522 190730415 793250332 2115656966 164535287 -1665196195 -1620653906 1588354138 150122377 389195665 -787908403 1703279382 -358519127 -1287365738 -2080017391 -63808557 -554272807 1353235102 392584850 388223756 -263488879 -1199672445 -1515224361
REM
CELL 1.54180   50.00000   50.00000   50.00000   90.00000   90.00000   90.00000
LATT -1
SFAC C  
C      1  0.4590630000000  0.5442040000000  0.5258570000000 1.0
C      1  0.4691000000000  0.4784310000000  0.4815280000000 1.0
C      1  0.4525520000000  0.5057140000000  0.4937590000000 1.0
C      1  0.5297920000000  0.4989370000000  0.4662780000000 1.0
C      1  0.4958090000000  0.4928350000000  0.5236550000000 1.0
C      1  0.5445860000000  0.4931750000000  0.5405060000000 1.0
C      1  0.5411820000000  0.4684150000000  0.5404450000000 1.0
C      1  0.5194720000000  0.5437780000000  0.5134480000000 1.0
C      1  0.5076560000000  0.5580550000000  0.4940990000000 1.0
C      1  0.5016760000000  0.5229210000000  0.5325730000000 1.0
C      1  0.5419240000000  0.4238970000000  0.5174730000000 1.0
C      1  0.4880160000000  0.4553240000000  0.4769880000000 1.0
C      1  0.5328450000000  0.5145050000000  0.5211450000000 1.0
C      1  0.4796230000000  0.5003980000000  0.4604590000000 1.0
C      1  0.5171360000000  0.4793840000000  0.5106200000000 1.0
C      1  0.5015150000000  0.4596420000000  0.4531840000000 1.0
C      1  0.4730110000000  0.5266870000000  0.4666840000000 1.0
C      1  0.5008530000000  0.4451170000000  0.4986410000000 1.0
C      1  0.4763050000000  0.5408110000000  0.5714340000000 1.0
C      1  0.5331750000000  0.4976570000000  0.4927590000000 1.0
C      1  0.5102490000000  0.4975310000000  0.4197860000000 1.0
C      1  0.4582260000000  0.5368100000000  0.4960120000000 1.0
C      1  0.5066440000000  0.4906770000000  0.4466200000000 1.0
C      1  0.5274130000000  0.4477850000000  0.5181790000000 1.0
C      1  0.4778810000000  0.5366760000000  0.5441880000000 1.0
C      1  0.4704460000000  0.4878460000000  0.5132100000000 1.0
C      1  0.4838500000000  0.5527890000000  0.4804690000000 1.0
END
