TITL C-2778434-4341-420 0.115013066052985 125000 -677.056227910476 0 0 114 (C1) n - 1
REM
REM in /home/nfs/bkarasulu/CARBON/AIRSS/Generating-Clusters/REBO/Only-C1/SD-CG/HFTN-CG
REM
REM
REM
REM
REM
REM ./C.cell (11c1c37f851c82e70ff6c80c92926a4b)
REM
REM compiler GCC version 9.2.1 20190827 (Red Hat 9.2.1-1)
REM options -cpp -mtune=generic -march=x86-64 -g -O0 -fpre-include=/usr/include/finclude/math-vector-fortran.h
REM seed 283870292 -1362777153 -445134941 1923545283 1661958640 -986800732 -1565715889 1078393260 -2070368175 120774308 1671914275 952202799 -341890037 -2081155008 210101291 1123259908 -689034516 -1148199085 -423732250 -696926265 991662199 1226706672 1285322184 -733211500 -365205487 1740015471 -1371484494 102501383 538015123 -131000093 -398659805 1393327004 1989427591
REM
CELL 1.54180   50.00000   50.00000   50.00000   90.00000   90.00000   90.00000
LATT -1
SFAC C  
C      1  0.4866390000000  0.5515750000000  0.5824210000000 1.0
C      1  0.4829470000000  0.4776200000000  0.4809720000000 1.0
C      1  0.4210930000000  0.5027560000000  0.5132830000000 1.0
C      1  0.4697310000000  0.5319150000000  0.4805320000000 1.0
C      1  0.4630100000000  0.4101590000000  0.5251440000000 1.0
C      1  0.4961120000000  0.5142740000000  0.5367780000000 1.0
C      1  0.5839350000000  0.4609910000000  0.4809510000000 1.0
C      1  0.4585200000000  0.5785770000000  0.4951290000000 1.0
C      1  0.5480200000000  0.5713840000000  0.5446480000000 1.0
C      1  0.4169100000000  0.4461490000000  0.4714660000000 1.0
C      1  0.4774260000000  0.4462630000000  0.5628980000000 1.0
C      1  0.4346800000000  0.4773180000000  0.5019140000000 1.0
C      1  0.5187010000000  0.4095270000000  0.4749700000000 1.0
C      1  0.5078800000000  0.4540810000000  0.4388700000000 1.0
C      1  0.5350460000000  0.4664800000000  0.4876370000000 1.0
C      1  0.5641220000000  0.5091000000000  0.4828390000000 1.0
C      1  0.5224530000000  0.4840590000000  0.5819100000000 1.0
C      1  0.4546580000000  0.4783120000000  0.5361450000000 1.0
C      1  0.4382200000000  0.5128560000000  0.4370620000000 1.0
C      1  0.5932860000000  0.4925040000000  0.4800670000000 1.0
C      1  0.4692200000000  0.4487010000000  0.4733060000000 1.0
C      1  0.5217850000000  0.5948340000000  0.4813250000000 1.0
C      1  0.5888470000000  0.5224960000000  0.4646420000000 1.0
C      1  0.5098210000000  0.6123880000000  0.5028920000000 1.0
C      1  0.4874550000000  0.5756770000000  0.5672450000000 1.0
C      1  0.5379880000000  0.4172690000000  0.4561700000000 1.0
C      1  0.5002900000000  0.4810750000000  0.4536170000000 1.0
C      1  0.5456360000000  0.4835590000000  0.5496120000000 1.0
C      1  0.5057210000000  0.6380310000000  0.5103350000000 1.0
C      1  0.5801090000000  0.5349980000000  0.5338910000000 1.0
C      1  0.5416950000000  0.5413750000000  0.4898740000000 1.0
C      1  0.4338090000000  0.5414240000000  0.5141220000000 1.0
C      1  0.4165500000000  0.5172180000000  0.4859540000000 1.0
C      1  0.4679680000000  0.4142800000000  0.4741340000000 1.0
C      1  0.5371850000000  0.5775910000000  0.5203200000000 1.0
C      1  0.4429170000000  0.4320440000000  0.4839020000000 1.0
C      1  0.4904240000000  0.5230240000000  0.5671630000000 1.0
C      1  0.4882320000000  0.4489200000000  0.5083160000000 1.0
C      1  0.5564710000000  0.4452320000000  0.5474710000000 1.0
C      1  0.5647710000000  0.5118790000000  0.4430050000000 1.0
C      1  0.5252960000000  0.4866500000000  0.5042730000000 1.0
C      1  0.4780930000000  0.5337670000000  0.4382640000000 1.0
C      1  0.4838440000000  0.4927270000000  0.4136880000000 1.0
C      1  0.4595380000000  0.4250850000000  0.4429220000000 1.0
C      1  0.4203710000000  0.5461390000000  0.4769220000000 1.0
C      1  0.4664980000000  0.4775170000000  0.5661290000000 1.0
C      1  0.5790530000000  0.4392450000000  0.4975230000000 1.0
C      1  0.5699790000000  0.4417290000000  0.5244180000000 1.0
C      1  0.5599950000000  0.5324440000000  0.5146660000000 1.0
C      1  0.5040390000000  0.5354400000000  0.4259580000000 1.0
C      1  0.4497090000000  0.4833200000000  0.4764620000000 1.0
C      1  0.4455700000000  0.5044340000000  0.5644670000000 1.0
C      1  0.4543000000000  0.5238330000000  0.5070090000000 1.0
C      1  0.4766300000000  0.4005620000000  0.5017800000000 1.0
C      1  0.5802160000000  0.4128120000000  0.4854890000000 1.0
C      1  0.5041310000000  0.5808500000000  0.5143220000000 1.0
C      1  0.5369720000000  0.5052660000000  0.5903950000000 1.0
C      1  0.5508940000000  0.5539650000000  0.5727670000000 1.0
C      1  0.5139820000000  0.5527010000000  0.4993470000000 1.0
C      1  0.4262550000000  0.5425370000000  0.5422020000000 1.0
C      1  0.4665700000000  0.5732300000000  0.5469330000000 1.0
C      1  0.4266200000000  0.4593390000000  0.5364870000000 1.0
C      1  0.4812160000000  0.4356630000000  0.4283590000000 1.0
C      1  0.5350190000000  0.5152230000000  0.4691650000000 1.0
C      1  0.4564020000000  0.5047120000000  0.4156410000000 1.0
C      1  0.4276810000000  0.5117040000000  0.5407820000000 1.0
C      1  0.5144770000000  0.4866460000000  0.5427120000000 1.0
C      1  0.4612700000000  0.4709320000000  0.4482800000000 1.0
C      1  0.5442250000000  0.5060840000000  0.5084000000000 1.0
C      1  0.4279630000000  0.5007510000000  0.4638660000000 1.0
C      1  0.5055720000000  0.3950900000000  0.4996930000000 1.0
C      1  0.4739490000000  0.5792090000000  0.5197360000000 1.0
C      1  0.4731820000000  0.5763340000000  0.4696200000000 1.0
C      1  0.4938220000000  0.5271330000000  0.5051330000000 1.0
C      1  0.5644960000000  0.4090240000000  0.4621490000000 1.0
C      1  0.5754850000000  0.5568420000000  0.5517410000000 1.0
C      1  0.4322120000000  0.5659820000000  0.4967460000000 1.0
C      1  0.4439520000000  0.5367130000000  0.4587370000000 1.0
C      1  0.5278900000000  0.5491240000000  0.4327470000000 1.0
C      1  0.4388970000000  0.4280170000000  0.5151690000000 1.0
C      1  0.5029020000000  0.5786680000000  0.4690730000000 1.0
C      1  0.5048680000000  0.5961770000000  0.5698040000000 1.0
C      1  0.4740030000000  0.5025200000000  0.4511540000000 1.0
C      1  0.5345020000000  0.4439490000000  0.4465870000000 1.0
C      1  0.5045850000000  0.4475290000000  0.5538860000000 1.0
C      1  0.4862310000000  0.4648040000000  0.4160740000000 1.0
C      1  0.5327850000000  0.5016490000000  0.4376780000000 1.0
C      1  0.4650390000000  0.5576460000000  0.4502820000000 1.0
C      1  0.5314140000000  0.4571500000000  0.5658170000000 1.0
C      1  0.5046420000000  0.4609840000000  0.5271610000000 1.0
C      1  0.4986420000000  0.5455350000000  0.4703560000000 1.0
C      1  0.4313920000000  0.4374660000000  0.5532230000000 1.0
C      1  0.4155210000000  0.4511390000000  0.5053060000000 1.0
C      1  0.5598680000000  0.5616900000000  0.4718840000000 1.0
C      1  0.4585650000000  0.4271700000000  0.5514830000000 1.0
C      1  0.4942940000000  0.4918510000000  0.5696610000000 1.0
C      1  0.5933420000000  0.3923360000000  0.4976880000000 1.0
C      1  0.4685020000000  0.5018370000000  0.5223140000000 1.0
C      1  0.5450060000000  0.5811360000000  0.4917670000000 1.0
C      1  0.5893870000000  0.5507460000000  0.4675380000000 1.0
C      1  0.5089230000000  0.5069330000000  0.4218330000000 1.0
C      1  0.4583590000000  0.4549690000000  0.5127890000000 1.0
C      1  0.5016560000000  0.4302800000000  0.4926860000000 1.0
C      1  0.4954950000000  0.4930260000000  0.5032160000000 1.0
C      1  0.5478900000000  0.4625850000000  0.4629250000000 1.0
C      1  0.5038220000000  0.5142870000000  0.4618780000000 1.0
C      1  0.5513090000000  0.5430950000000  0.4456130000000 1.0
C      1  0.4597320000000  0.5316530000000  0.5753100000000 1.0
C      1  0.5721830000000  0.4811440000000  0.4555890000000 1.0
C      1  0.5439780000000  0.5312370000000  0.5871080000000 1.0
C      1  0.5708100000000  0.4909190000000  0.5490680000000 1.0
C      1  0.4378800000000  0.4462400000000  0.4470190000000 1.0
C      1  0.4467340000000  0.5545500000000  0.5576470000000 1.0
C      1  0.5891890000000  0.5104170000000  0.5445510000000 1.0
END
