TITL C-2778432-5617-33 -0.00029936967423758 125000 -375.860467240064 0 0 67 (C1) n - 1
REM
REM in /home/nfs/bkarasulu/CARBON/AIRSS/Generating-Clusters/REBO/Only-C1/SD-CG/HFTN-CG
REM
REM
REM
REM
REM
REM ./C.cell (11c1c37f851c82e70ff6c80c92926a4b)
REM
REM compiler GCC version 9.2.1 20190827 (Red Hat 9.2.1-1)
REM options -cpp -mtune=generic -march=x86-64 -g -O0 -fpre-include=/usr/include/finclude/math-vector-fortran.h
REM seed -686967932 -1353638449 -1074532314 -499148200 -717231549 -829214053 1111032084 159611963 -751939184 1456293868 912520669 -931776577 -1251243893 268941180 1690052802 245717254 655005884 -1022576427 -209483543 -451186862 355303396 1199980691 -259815373 343665313 612853134 -1684916612 -594166590 1313644257 483329711 673618897 2013539775 486290892 -1535948320
REM
CELL 1.54180   50.00000   50.00000   50.00000   90.00000   90.00000   90.00000
LATT -1
SFAC C  
C      1  0.5197840000000  0.5322670000000  0.4870550000000 1.0
C      1  0.4971150000000  0.4917340000000  0.4711470000000 1.0
C      1  0.5329650000000  0.4862520000000  0.5104720000000 1.0
C      1  0.5500340000000  0.5073270000000  0.4344430000000 1.0
C      1  0.4517270000000  0.5006840000000  0.5577060000000 1.0
C      1  0.4850690000000  0.5250430000000  0.4242330000000 1.0
C      1  0.4778030000000  0.4809170000000  0.5481880000000 1.0
C      1  0.4141070000000  0.4929810000000  0.4767300000000 1.0
C      1  0.4978130000000  0.5495430000000  0.4712000000000 1.0
C      1  0.4470830000000  0.5373420000000  0.5224390000000 1.0
C      1  0.5431920000000  0.5503230000000  0.5006320000000 1.0
C      1  0.4243690000000  0.4979440000000  0.5086080000000 1.0
C      1  0.5206190000000  0.4524420000000  0.4931270000000 1.0
C      1  0.4511290000000  0.4591910000000  0.4770760000000 1.0
C      1  0.5501870000000  0.5486430000000  0.4673950000000 1.0
C      1  0.4453700000000  0.4875900000000  0.4840440000000 1.0
C      1  0.4403120000000  0.4453900000000  0.4486590000000 1.0
C      1  0.5058810000000  0.4851940000000  0.5763010000000 1.0
C      1  0.5522590000000  0.4950610000000  0.4837750000000 1.0
C      1  0.4880230000000  0.4775180000000  0.4433860000000 1.0
C      1  0.4930220000000  0.4335160000000  0.4661110000000 1.0
C      1  0.5768870000000  0.4704320000000  0.5033510000000 1.0
C      1  0.4221510000000  0.5272430000000  0.5139750000000 1.0
C      1  0.4752390000000  0.4804070000000  0.5167600000000 1.0
C      1  0.5727760000000  0.5358210000000  0.5092190000000 1.0
C      1  0.5344400000000  0.5452360000000  0.5549740000000 1.0
C      1  0.4798680000000  0.5005880000000  0.4245700000000 1.0
C      1  0.5531080000000  0.5247410000000  0.5635020000000 1.0
C      1  0.4678040000000  0.5226280000000  0.5787850000000 1.0
C      1  0.4213360000000  0.4359270000000  0.4343540000000 1.0
C      1  0.5378100000000  0.4824480000000  0.4389890000000 1.0
C      1  0.5284930000000  0.4782740000000  0.4715670000000 1.0
C      1  0.5044700000000  0.5711330000000  0.5210070000000 1.0
C      1  0.3756550000000  0.5541290000000  0.5112040000000 1.0
C      1  0.5474100000000  0.5148730000000  0.5179250000000 1.0
C      1  0.5173800000000  0.5939090000000  0.5130010000000 1.0
C      1  0.4519300000000  0.5342000000000  0.5514530000000 1.0
C      1  0.5621290000000  0.5187940000000  0.4614740000000 1.0
C      1  0.4739190000000  0.5296060000000  0.5093610000000 1.0
C      1  0.5613200000000  0.4996660000000  0.5519180000000 1.0
C      1  0.3983120000000  0.5410280000000  0.5125540000000 1.0
C      1  0.4909110000000  0.5080820000000  0.5599050000000 1.0
C      1  0.5033590000000  0.5424600000000  0.4404850000000 1.0
C      1  0.4958310000000  0.5281220000000  0.5334290000000 1.0
C      1  0.4595350000000  0.4421800000000  0.5007790000000 1.0
C      1  0.4432670000000  0.4835040000000  0.5294800000000 1.0
C      1  0.5691900000000  0.4522930000000  0.4839420000000 1.0
C      1  0.5796070000000  0.5137290000000  0.4889590000000 1.0
C      1  0.5367170000000  0.5384360000000  0.4377770000000 1.0
C      1  0.5222110000000  0.5185630000000  0.4608750000000 1.0
C      1  0.5404910000000  0.4772220000000  0.5404260000000 1.0
C      1  0.4824510000000  0.5468830000000  0.5596320000000 1.0
C      1  0.5191690000000  0.4401790000000  0.4551970000000 1.0
C      1  0.5216500000000  0.4348460000000  0.5187780000000 1.0
C      1  0.5157440000000  0.4629360000000  0.4370800000000 1.0
C      1  0.4723010000000  0.4530340000000  0.4527460000000 1.0
C      1  0.5722100000000  0.4915250000000  0.5213380000000 1.0
C      1  0.5212630000000  0.4668060000000  0.5648030000000 1.0
C      1  0.5025810000000  0.4787740000000  0.5015810000000 1.0
C      1  0.4822990000000  0.4264560000000  0.4921080000000 1.0
C      1  0.5446900000000  0.4420140000000  0.4735930000000 1.0
C      1  0.5251070000000  0.5356820000000  0.5259020000000 1.0
C      1  0.4490490000000  0.4513070000000  0.5243960000000 1.0
C      1  0.5288210000000  0.4460390000000  0.5422360000000 1.0
C      1  0.4906230000000  0.5552700000000  0.5008700000000 1.0
C      1  0.5078360000000  0.5625260000000  0.5495260000000 1.0
C      1  0.4727850000000  0.5031480000000  0.4914860000000 1.0
END
