TITL C-2778426-5645-1300 -0.00321562825027593 125000 -321.783547319291 0 0 56 (C1) n - 1
REM
REM in /home/nfs/bkarasulu/CARBON/AIRSS/Generating-Clusters/REBO/Only-C1/SD-CG/HFTN-CG
REM
REM
REM
REM
REM
REM ./C.cell (11c1c37f851c82e70ff6c80c92926a4b)
REM
REM compiler GCC version 9.2.1 20190827 (Red Hat 9.2.1-1)
REM options -cpp -mtune=generic -march=x86-64 -g -O0 -fpre-include=/usr/include/finclude/math-vector-fortran.h
REM seed -1954796533 747147542 -607860769 801157371 -1800996200 -143907763 -251095922 -1519321323 -1035204949 138981211 1065779494 -1962042689 421347660 -2088704668 1041725237 178859111 890795819 -1070443598 1689139320 1945842069 -2079884381 -1763325420 -1905303113 1289428480 -310319283 -447826486 1969467196 -811218351 -1748818435 -768146134 249688366 -937142237 585933753
REM
CELL 1.54180   50.00000   50.00000   50.00000   90.00000   90.00000   90.00000
LATT -1
SFAC C  
C      1  0.4448610000000  0.5041830000000  0.4625920000000 1.0
C      1  0.5195150000000  0.4404000000000  0.5382130000000 1.0
C      1  0.4576560000000  0.5307010000000  0.4633520000000 1.0
C      1  0.4348100000000  0.4819550000000  0.5073780000000 1.0
C      1  0.4480480000000  0.4453910000000  0.5166560000000 1.0
C      1  0.5643530000000  0.4766080000000  0.4772600000000 1.0
C      1  0.4976080000000  0.4432290000000  0.5203500000000 1.0
C      1  0.5146790000000  0.5399470000000  0.4562410000000 1.0
C      1  0.4970000000000  0.5020680000000  0.5135760000000 1.0
C      1  0.4766140000000  0.5002770000000  0.4864000000000 1.0
C      1  0.4875880000000  0.4695730000000  0.5208440000000 1.0
C      1  0.5044120000000  0.4812440000000  0.5564960000000 1.0
C      1  0.5630000000000  0.5286730000000  0.4770700000000 1.0
C      1  0.4405710000000  0.4789140000000  0.4762580000000 1.0
C      1  0.5482200000000  0.5286150000000  0.5248130000000 1.0
C      1  0.5785660000000  0.4913180000000  0.5124700000000 1.0
C      1  0.5648080000000  0.5068380000000  0.5363220000000 1.0
C      1  0.5045990000000  0.5104510000000  0.5608620000000 1.0
C      1  0.5439150000000  0.4780020000000  0.4557220000000 1.0
C      1  0.5551060000000  0.4613610000000  0.5001970000000 1.0
C      1  0.5265120000000  0.4519120000000  0.4942700000000 1.0
C      1  0.4570960000000  0.4542390000000  0.5415290000000 1.0
C      1  0.5198630000000  0.5387080000000  0.5349500000000 1.0
C      1  0.4577360000000  0.5009150000000  0.5584010000000 1.0
C      1  0.4655220000000  0.5457490000000  0.5460910000000 1.0
C      1  0.5480050000000  0.5024400000000  0.4147470000000 1.0
C      1  0.4999590000000  0.5328800000000  0.5139020000000 1.0
C      1  0.4369400000000  0.5428290000000  0.5523460000000 1.0
C      1  0.5174200000000  0.5420180000000  0.4871190000000 1.0
C      1  0.5471440000000  0.5340170000000  0.4530450000000 1.0
C      1  0.5006580000000  0.4356840000000  0.4910250000000 1.0
C      1  0.5241100000000  0.4893580000000  0.4764910000000 1.0
C      1  0.4958380000000  0.4911500000000  0.4640620000000 1.0
C      1  0.4715380000000  0.4747100000000  0.5567980000000 1.0
C      1  0.5041970000000  0.4944220000000  0.4355260000000 1.0
C      1  0.4812480000000  0.5369680000000  0.4494890000000 1.0
C      1  0.5227980000000  0.4829130000000  0.5082340000000 1.0
C      1  0.4638100000000  0.4811650000000  0.5086610000000 1.0
C      1  0.4003890000000  0.5183110000000  0.5108710000000 1.0
C      1  0.4757680000000  0.4383770000000  0.4768450000000 1.0
C      1  0.5010300000000  0.5225250000000  0.4303910000000 1.0
C      1  0.5565940000000  0.5455850000000  0.4993780000000 1.0
C      1  0.4522800000000  0.5186730000000  0.5016120000000 1.0
C      1  0.5317750000000  0.5143680000000  0.4984560000000 1.0
C      1  0.4328870000000  0.5138030000000  0.5482690000000 1.0
C      1  0.5757200000000  0.5033580000000  0.4847300000000 1.0
C      1  0.5543980000000  0.4750580000000  0.5312430000000 1.0
C      1  0.4512490000000  0.4498340000000  0.4874710000000 1.0
C      1  0.5319090000000  0.4847520000000  0.4304460000000 1.0
C      1  0.5374810000000  0.5672980000000  0.4940670000000 1.0
C      1  0.4530180000000  0.5487380000000  0.4878740000000 1.0
C      1  0.4786100000000  0.5227270000000  0.5596600000000 1.0
C      1  0.4254630000000  0.5090400000000  0.5187950000000 1.0
C      1  0.4712470000000  0.5433280000000  0.5161370000000 1.0
C      1  0.5282360000000  0.4664160000000  0.5468730000000 1.0
C      1  0.5556220000000  0.5259830000000  0.4271240000000 1.0
END
