TITL C-2778424-3986-1471 -0.000835269023399047 125000 -755.363688842564 0 0 130 (C1) n - 1
REM
REM in /home/nfs/bkarasulu/CARBON/AIRSS/Generating-Clusters/REBO/Only-C1/SD-CG/HFTN-CG
REM
REM
REM
REM
REM
REM ./C.cell (11c1c37f851c82e70ff6c80c92926a4b)
REM
REM compiler GCC version 9.2.1 20190827 (Red Hat 9.2.1-1)
REM options -cpp -mtune=generic -march=x86-64 -g -O0 -fpre-include=/usr/include/finclude/math-vector-fortran.h
REM seed -1205087634 -1535728336 -1782826547 -1156824941 -1894539297 -1180077685 1308916211 -75538751 1269206454 -1916827621 -1343309306 -786820215 -211828000 -1670601739 -1220730744 790561498 1968380069 -1448841408 -369318577 132624039 -1088897508 -486057249 -831479714 523265548 670544841 -1063525907 2141982150 -1360230242 -2131111970 2141376503 816891561 1152889855 -262569053
REM
CELL 1.54180   50.00000   50.00000   50.00000   90.00000   90.00000   90.00000
LATT -1
SFAC C  
C      1  0.4206040000000  0.4805120000000  0.4527160000000 1.0
C      1  0.5030910000000  0.4798240000000  0.4199680000000 1.0
C      1  0.4541370000000  0.5759220000000  0.4929560000000 1.0
C      1  0.5151900000000  0.4619680000000  0.5945980000000 1.0
C      1  0.5121410000000  0.5301590000000  0.5922660000000 1.0
C      1  0.5293320000000  0.5281620000000  0.4101000000000 1.0
C      1  0.4268940000000  0.5328630000000  0.4296860000000 1.0
C      1  0.4547610000000  0.5302380000000  0.4763750000000 1.0
C      1  0.4276210000000  0.5041740000000  0.5013330000000 1.0
C      1  0.5233670000000  0.5582120000000  0.4160470000000 1.0
C      1  0.5146150000000  0.4390420000000  0.4543530000000 1.0
C      1  0.4454190000000  0.5115820000000  0.4486590000000 1.0
C      1  0.4740850000000  0.5169840000000  0.3977440000000 1.0
C      1  0.5351860000000  0.5139420000000  0.5512580000000 1.0
C      1  0.4973090000000  0.4332860000000  0.5569900000000 1.0
C      1  0.5529740000000  0.5135880000000  0.4176390000000 1.0
C      1  0.5262200000000  0.4831840000000  0.4447340000000 1.0
C      1  0.4570240000000  0.5327640000000  0.5080160000000 1.0
C      1  0.4655060000000  0.4256630000000  0.5621260000000 1.0
C      1  0.4907960000000  0.5062240000000  0.5330090000000 1.0
C      1  0.4880270000000  0.4728200000000  0.5908430000000 1.0
C      1  0.5395870000000  0.5978550000000  0.4491620000000 1.0
C      1  0.5519080000000  0.5798490000000  0.5042380000000 1.0
C      1  0.5288760000000  0.5758040000000  0.5366530000000 1.0
C      1  0.5596690000000  0.4456520000000  0.5480690000000 1.0
C      1  0.4563950000000  0.5365110000000  0.5402620000000 1.0
C      1  0.4952510000000  0.4151460000000  0.4702010000000 1.0
C      1  0.4619940000000  0.4736780000000  0.4200840000000 1.0
C      1  0.4728760000000  0.4004030000000  0.4900190000000 1.0
C      1  0.4506010000000  0.5669870000000  0.4617940000000 1.0
C      1  0.4300510000000  0.4581310000000  0.5284980000000 1.0
C      1  0.5027070000000  0.5768130000000  0.4228410000000 1.0
C      1  0.4719190000000  0.4563080000000  0.4938870000000 1.0
C      1  0.5387300000000  0.4992790000000  0.4970380000000 1.0
C      1  0.5028950000000  0.5519270000000  0.4914030000000 1.0
C      1  0.5384990000000  0.5627550000000  0.5642090000000 1.0
C      1  0.5076100000000  0.5544490000000  0.5245420000000 1.0
C      1  0.5170220000000  0.5241920000000  0.5308990000000 1.0
C      1  0.4491060000000  0.4156200000000  0.4714220000000 1.0
C      1  0.4601290000000  0.4937570000000  0.5008040000000 1.0
C      1  0.5646470000000  0.5052520000000  0.5119130000000 1.0
C      1  0.4933580000000  0.5990700000000  0.4663460000000 1.0
C      1  0.5504740000000  0.5723370000000  0.4563430000000 1.0
C      1  0.4776340000000  0.5014960000000  0.5866200000000 1.0
C      1  0.4974510000000  0.5324480000000  0.6148910000000 1.0
C      1  0.5764050000000  0.4821600000000  0.4785860000000 1.0
C      1  0.4852300000000  0.5696390000000  0.5651540000000 1.0
C      1  0.5236670000000  0.4050120000000  0.5129180000000 1.0
C      1  0.5250610000000  0.4871150000000  0.5576970000000 1.0
C      1  0.5090150000000  0.5156710000000  0.4759070000000 1.0
C      1  0.5842150000000  0.5277820000000  0.4603660000000 1.0
C      1  0.5680050000000  0.5082120000000  0.5456260000000 1.0
C      1  0.4740570000000  0.5841210000000  0.5197380000000 1.0
C      1  0.4957340000000  0.5192710000000  0.5641650000000 1.0
C      1  0.4549100000000  0.5473840000000  0.4341480000000 1.0
C      1  0.4745080000000  0.5170030000000  0.6133800000000 1.0
C      1  0.4632130000000  0.4774200000000  0.5583320000000 1.0
C      1  0.4992240000000  0.4806280000000  0.4595730000000 1.0
C      1  0.4787810000000  0.4904950000000  0.4004920000000 1.0
C      1  0.5917450000000  0.4178180000000  0.5135770000000 1.0
C      1  0.4789240000000  0.4250860000000  0.4445990000000 1.0
C      1  0.4817390000000  0.5725540000000  0.4491000000000 1.0
C      1  0.5776780000000  0.5361910000000  0.5187330000000 1.0
C      1  0.5306620000000  0.4496180000000  0.4891340000000 1.0
C      1  0.4692810000000  0.4536820000000  0.5768130000000 1.0
C      1  0.5043730000000  0.5137440000000  0.4235850000000 1.0
C      1  0.5463490000000  0.4462310000000  0.4595090000000 1.0
C      1  0.4870740000000  0.4233810000000  0.5107610000000 1.0
C      1  0.5733340000000  0.4697600000000  0.5283670000000 1.0
C      1  0.5587290000000  0.5185580000000  0.4491470000000 1.0
C      1  0.4528930000000  0.4126690000000  0.5389170000000 1.0
C      1  0.5154370000000  0.4352970000000  0.5844300000000 1.0
C      1  0.4574760000000  0.5088720000000  0.5601890000000 1.0
C      1  0.4125140000000  0.5263110000000  0.5161280000000 1.0
C      1  0.5304880000000  0.4310020000000  0.5556160000000 1.0
C      1  0.5374880000000  0.5328560000000  0.5766880000000 1.0
C      1  0.4514610000000  0.4334310000000  0.4956390000000 1.0
C      1  0.4975790000000  0.3927900000000  0.5213380000000 1.0
C      1  0.4820380000000  0.4426360000000  0.5300620000000 1.0
C      1  0.4865690000000  0.5790060000000  0.4890270000000 1.0
C      1  0.4360960000000  0.5582500000000  0.5118860000000 1.0
C      1  0.5420630000000  0.4130780000000  0.5330750000000 1.0
C      1  0.4262130000000  0.5429400000000  0.4624620000000 1.0
C      1  0.5664180000000  0.4650320000000  0.4510490000000 1.0
C      1  0.5958030000000  0.4400520000000  0.4979770000000 1.0
C      1  0.4602300000000  0.4616830000000  0.5342670000000 1.0
C      1  0.5372950000000  0.4764270000000  0.5821670000000 1.0
C      1  0.4828390000000  0.5106270000000  0.4567610000000 1.0
C      1  0.5985170000000  0.5220150000000  0.5395270000000 1.0
C      1  0.5056400000000  0.5940870000000  0.5205340000000 1.0
C      1  0.5636040000000  0.4773990000000  0.5601790000000 1.0
C      1  0.5818760000000  0.4642530000000  0.5023010000000 1.0
C      1  0.4650670000000  0.4415840000000  0.4186350000000 1.0
C      1  0.4525230000000  0.4736620000000  0.4755600000000 1.0
C      1  0.5557100000000  0.4839650000000  0.4298420000000 1.0
C      1  0.4766280000000  0.5335870000000  0.4225870000000 1.0
C      1  0.4681920000000  0.4809500000000  0.4502850000000 1.0
C      1  0.5636570000000  0.5689960000000  0.4813280000000 1.0
C      1  0.4658900000000  0.3918850000000  0.5225310000000 1.0
C      1  0.4262360000000  0.5146350000000  0.5608070000000 1.0
C      1  0.4828160000000  0.5437610000000  0.4657700000000 1.0
C      1  0.4209560000000  0.4700920000000  0.4817300000000 1.0
C      1  0.5067690000000  0.5509930000000  0.5587030000000 1.0
C      1  0.4210400000000  0.5096490000000  0.4709810000000 1.0
C      1  0.5380320000000  0.5513750000000  0.4419160000000 1.0
C      1  0.5710960000000  0.4179060000000  0.5320750000000 1.0
C      1  0.4452210000000  0.4305890000000  0.4440780000000 1.0
C      1  0.5189670000000  0.4708320000000  0.5373030000000 1.0
C      1  0.4991710000000  0.4564700000000  0.4792870000000 1.0
C      1  0.5468250000000  0.4953060000000  0.4674340000000 1.0
C      1  0.5820200000000  0.5458400000000  0.4874080000000 1.0
C      1  0.5116220000000  0.5983690000000  0.4427900000000 1.0
C      1  0.4163930000000  0.4747720000000  0.5105050000000 1.0
C      1  0.4854390000000  0.5166020000000  0.5005670000000 1.0
C      1  0.4326240000000  0.5612810000000  0.5451020000000 1.0
C      1  0.4068620000000  0.5498840000000  0.4990920000000 1.0
C      1  0.5206460000000  0.4199590000000  0.4893020000000 1.0
C      1  0.5240540000000  0.5270250000000  0.5010460000000 1.0
C      1  0.5638960000000  0.5410740000000  0.5565180000000 1.0
C      1  0.4167440000000  0.5330000000000  0.5430990000000 1.0
C      1  0.5292940000000  0.5973140000000  0.5031350000000 1.0
C      1  0.4967420000000  0.4498420000000  0.4283410000000 1.0
C      1  0.5244940000000  0.5228640000000  0.4493700000000 1.0
C      1  0.5882120000000  0.5118890000000  0.4888430000000 1.0
C      1  0.4388510000000  0.4306200000000  0.5210300000000 1.0
C      1  0.5221950000000  0.4750850000000  0.5060230000000 1.0
C      1  0.4889980000000  0.4790080000000  0.5125740000000 1.0
C      1  0.4357650000000  0.4622810000000  0.4361730000000 1.0
C      1  0.5591260000000  0.5616640000000  0.5301210000000 1.0
C      1  0.4650880000000  0.5693090000000  0.5449260000000 1.0
END
