TITL C-2778426-5645-1410 -0.00414774681021673 125000 -305.875016047796 0 0 54 (C1) n - 1
REM
REM in /home/nfs/bkarasulu/CARBON/AIRSS/Generating-Clusters/REBO/Only-C1/SD-CG/HFTN-CG
REM
REM
REM
REM
REM
REM ./C.cell (11c1c37f851c82e70ff6c80c92926a4b)
REM
REM compiler GCC version 9.2.1 20190827 (Red Hat 9.2.1-1)
REM options -cpp -mtune=generic -march=x86-64 -g -O0 -fpre-include=/usr/include/finclude/math-vector-fortran.h
REM seed -1431271947 148718376 470786203 446728270 -497530240 -1615412810 2109018381 -274925660 -1611079349 -958310814 -1879436384 1771774793 792502242 670533372 1402302749 -1189458668 1631079603 867128027 -1464662257 368596861 425094689 -171067420 1283876920 1415366130 399661961 655352407 1309459648 -1327938377 915009686 -1771876066 -1564239850 1753702263 -923774882
REM
CELL 1.54180   50.00000   50.00000   50.00000   90.00000   90.00000   90.00000
LATT -1
SFAC C  
C      1  0.4863910000000  0.5629900000000  0.5207730000000 1.0
C      1  0.5070110000000  0.4524340000000  0.5608780000000 1.0
C      1  0.5462250000000  0.4718700000000  0.5249530000000 1.0
C      1  0.5501070000000  0.5053890000000  0.4810020000000 1.0
C      1  0.5185600000000  0.5113870000000  0.4246520000000 1.0
C      1  0.5323410000000  0.4636790000000  0.4452990000000 1.0
C      1  0.4514200000000  0.4684340000000  0.5463730000000 1.0
C      1  0.5184000000000  0.5461340000000  0.4586270000000 1.0
C      1  0.5014980000000  0.5319680000000  0.4410230000000 1.0
C      1  0.5342140000000  0.4426770000000  0.5284820000000 1.0
C      1  0.5088040000000  0.4234030000000  0.5222630000000 1.0
C      1  0.5425200000000  0.5314710000000  0.4639130000000 1.0
C      1  0.4884510000000  0.5146330000000  0.4901940000000 1.0
C      1  0.4436590000000  0.4874180000000  0.5116500000000 1.0
C      1  0.4940560000000  0.5007020000000  0.5207090000000 1.0
C      1  0.5238550000000  0.4421280000000  0.4589570000000 1.0
C      1  0.4394930000000  0.5146470000000  0.5236540000000 1.0
C      1  0.4444910000000  0.5372900000000  0.5065110000000 1.0
C      1  0.5491780000000  0.5016550000000  0.5087750000000 1.0
C      1  0.4725810000000  0.5066310000000  0.5636650000000 1.0
C      1  0.5221290000000  0.5663380000000  0.5031090000000 1.0
C      1  0.4848950000000  0.4956640000000  0.4389980000000 1.0
C      1  0.5372820000000  0.5536890000000  0.5270680000000 1.0
C      1  0.4488160000000  0.4999360000000  0.4694150000000 1.0
C      1  0.4588430000000  0.5597090000000  0.5167310000000 1.0
C      1  0.4821790000000  0.5303320000000  0.5752950000000 1.0
C      1  0.4728830000000  0.4815820000000  0.5072650000000 1.0
C      1  0.4805410000000  0.4621930000000  0.4817810000000 1.0
C      1  0.4633450000000  0.4428650000000  0.5044610000000 1.0
C      1  0.5045390000000  0.5409420000000  0.5622710000000 1.0
C      1  0.5435730000000  0.5238270000000  0.5248860000000 1.0
C      1  0.5458830000000  0.5106750000000  0.4418370000000 1.0
C      1  0.5298010000000  0.4157350000000  0.5458020000000 1.0
C      1  0.4967410000000  0.4893750000000  0.5506370000000 1.0
C      1  0.5027600000000  0.4390810000000  0.4761320000000 1.0
C      1  0.5044180000000  0.5625050000000  0.4785380000000 1.0
C      1  0.4946120000000  0.4954660000000  0.4062080000000 1.0
C      1  0.5100690000000  0.5617950000000  0.5407990000000 1.0
C      1  0.4772390000000  0.4911540000000  0.4690110000000 1.0
C      1  0.4721080000000  0.5255350000000  0.4494880000000 1.0
C      1  0.5142560000000  0.5223900000000  0.5371090000000 1.0
C      1  0.5700560000000  0.4680820000000  0.5033270000000 1.0
C      1  0.4745200000000  0.5780000000000  0.4797520000000 1.0
C      1  0.5265790000000  0.4736760000000  0.5515850000000 1.0
C      1  0.5720510000000  0.4720200000000  0.4790110000000 1.0
C      1  0.4487160000000  0.5312580000000  0.4738790000000 1.0
C      1  0.5049920000000  0.5373180000000  0.5095950000000 1.0
C      1  0.4905860000000  0.4293280000000  0.5019170000000 1.0
C      1  0.4761360000000  0.5456740000000  0.4835390000000 1.0
C      1  0.5125360000000  0.4780750000000  0.4294030000000 1.0
C      1  0.5533680000000  0.4826440000000  0.4556330000000 1.0
C      1  0.4482520000000  0.4981980000000  0.5498110000000 1.0
C      1  0.4438220000000  0.4568780000000  0.5192400000000 1.0
C      1  0.4782180000000  0.4611190000000  0.5541110000000 1.0
END
