TITL C-2778422-5617-925 -0.00561999733902066 125000 -646.681133338653 0 0 113 (C1) n - 1
REM
REM in /home/nfs/bkarasulu/CARBON/AIRSS/Generating-Clusters/REBO/Only-C1/SD-CG/HFTN-CG
REM
REM
REM
REM
REM
REM ./C.cell (11c1c37f851c82e70ff6c80c92926a4b)
REM
REM compiler GCC version 9.2.1 20190827 (Red Hat 9.2.1-1)
REM options -cpp -mtune=generic -march=x86-64 -g -O0 -fpre-include=/usr/include/finclude/math-vector-fortran.h
REM seed 1612006775 -239281653 394177645 -598985710 427953900 -79851040 1479371825 -1417901318 300509767 1309712569 1016769033 233271519 -1127302718 -1671077055 2097759701 -982780839 1941238995 -1749544516 -98620279 -458621486 1640975833 159918170 -742397035 -557017510 -989902259 -1596702625 -1461440699 -1390924377 -1829969313 1912349677 -562318509 -116088655 1439299417
REM
CELL 1.54180   50.00000   50.00000   50.00000   90.00000   90.00000   90.00000
LATT -1
SFAC C  
C      1  0.5193280000000  0.5418870000000  0.5720690000000 1.0
C      1  0.4884860000000  0.5958150000000  0.5302420000000 1.0
C      1  0.5312850000000  0.4367750000000  0.5515780000000 1.0
C      1  0.4552690000000  0.4495310000000  0.4093910000000 1.0
C      1  0.5231500000000  0.4047030000000  0.5293940000000 1.0
C      1  0.5571570000000  0.4845780000000  0.4217570000000 1.0
C      1  0.4519240000000  0.5019700000000  0.5658590000000 1.0
C      1  0.4116580000000  0.5237100000000  0.5118890000000 1.0
C      1  0.5118600000000  0.5683440000000  0.5142840000000 1.0
C      1  0.5690640000000  0.4174610000000  0.5044670000000 1.0
C      1  0.5412260000000  0.5081940000000  0.4154380000000 1.0
C      1  0.5228670000000  0.4208700000000  0.5024160000000 1.0
C      1  0.5532340000000  0.4285920000000  0.4776300000000 1.0
C      1  0.4859550000000  0.5750490000000  0.4557350000000 1.0
C      1  0.4885550000000  0.5527620000000  0.5758980000000 1.0
C      1  0.4893980000000  0.5229340000000  0.4308840000000 1.0
C      1  0.4893430000000  0.4065720000000  0.5235660000000 1.0
C      1  0.4811080000000  0.5939120000000  0.5021530000000 1.0
C      1  0.5243900000000  0.5637220000000  0.4863000000000 1.0
C      1  0.4583500000000  0.5164130000000  0.4178970000000 1.0
C      1  0.4713040000000  0.4573010000000  0.5747470000000 1.0
C      1  0.5122930000000  0.4936490000000  0.4455440000000 1.0
C      1  0.4847100000000  0.5517720000000  0.5230450000000 1.0
C      1  0.5059520000000  0.4968300000000  0.5968990000000 1.0
C      1  0.4836270000000  0.4406920000000  0.4652840000000 1.0
C      1  0.5514820000000  0.5733860000000  0.4799140000000 1.0
C      1  0.5006710000000  0.5489490000000  0.4458470000000 1.0
C      1  0.4879550000000  0.5823160000000  0.5585900000000 1.0
C      1  0.4365480000000  0.4845980000000  0.4587380000000 1.0
C      1  0.5657280000000  0.5839620000000  0.5078540000000 1.0
C      1  0.4149820000000  0.4782720000000  0.4917890000000 1.0
C      1  0.4370260000000  0.5645600000000  0.5156240000000 1.0
C      1  0.5678500000000  0.4736420000000  0.4523000000000 1.0
C      1  0.4899230000000  0.4861030000000  0.5258270000000 1.0
C      1  0.4887240000000  0.5325920000000  0.4723390000000 1.0
C      1  0.5393780000000  0.4767670000000  0.5347860000000 1.0
C      1  0.5767480000000  0.5132710000000  0.4914890000000 1.0
C      1  0.4888410000000  0.4762030000000  0.5937290000000 1.0
C      1  0.4710690000000  0.5240330000000  0.5757270000000 1.0
C      1  0.5412270000000  0.4600450000000  0.4258590000000 1.0
C      1  0.4617210000000  0.5591220000000  0.5051160000000 1.0
C      1  0.5584900000000  0.4525410000000  0.5382100000000 1.0
C      1  0.5310120000000  0.4585500000000  0.4515110000000 1.0
C      1  0.4997860000000  0.4519490000000  0.5582350000000 1.0
C      1  0.4897590000000  0.4547850000000  0.5275180000000 1.0
C      1  0.5850230000000  0.4428880000000  0.4965780000000 1.0
C      1  0.4438780000000  0.5295630000000  0.5476850000000 1.0
C      1  0.4101050000000  0.5248800000000  0.4833820000000 1.0
C      1  0.4303340000000  0.4510440000000  0.4637420000000 1.0
C      1  0.4368130000000  0.5704740000000  0.4697630000000 1.0
C      1  0.4025520000000  0.4997430000000  0.4738830000000 1.0
C      1  0.5136530000000  0.5080880000000  0.6209700000000 1.0
C      1  0.4501110000000  0.4749970000000  0.5596350000000 1.0
C      1  0.4964030000000  0.4401360000000  0.5031370000000 1.0
C      1  0.5306350000000  0.5538190000000  0.4452290000000 1.0
C      1  0.5128080000000  0.5105880000000  0.4094250000000 1.0
C      1  0.4747130000000  0.5045260000000  0.4810780000000 1.0
C      1  0.5190650000000  0.5757670000000  0.5684590000000 1.0
C      1  0.5627700000000  0.5515170000000  0.4570560000000 1.0
C      1  0.5026610000000  0.4179160000000  0.5527690000000 1.0
C      1  0.4241860000000  0.5426360000000  0.5280850000000 1.0
C      1  0.5132000000000  0.4824620000000  0.5507200000000 1.0
C      1  0.4819370000000  0.4995580000000  0.3996590000000 1.0
C      1  0.5522020000000  0.5753680000000  0.5332570000000 1.0
C      1  0.4620840000000  0.5853030000000  0.4749580000000 1.0
C      1  0.5286260000000  0.4074910000000  0.4717750000000 1.0
C      1  0.5149720000000  0.4334320000000  0.4550180000000 1.0
C      1  0.4440230000000  0.5057290000000  0.5268950000000 1.0
C      1  0.5550200000000  0.5050190000000  0.5239770000000 1.0
C      1  0.4754950000000  0.4662050000000  0.4022830000000 1.0
C      1  0.4712720000000  0.5461830000000  0.5491580000000 1.0
C      1  0.4575740000000  0.4428900000000  0.4824740000000 1.0
C      1  0.5734100000000  0.5286340000000  0.5389860000000 1.0
C      1  0.5438520000000  0.5119000000000  0.4921570000000 1.0
C      1  0.5336400000000  0.5150330000000  0.4540420000000 1.0
C      1  0.5769580000000  0.4504480000000  0.4664810000000 1.0
C      1  0.5209470000000  0.5187530000000  0.6437710000000 1.0
C      1  0.4288550000000  0.4434400000000  0.5225430000000 1.0
C      1  0.4322830000000  0.4676480000000  0.5388090000000 1.0
C      1  0.5425190000000  0.4855070000000  0.4696350000000 1.0
C      1  0.5523300000000  0.4205240000000  0.5299910000000 1.0
C      1  0.5325600000000  0.4509150000000  0.4904200000000 1.0
C      1  0.4323900000000  0.5371440000000  0.4662700000000 1.0
C      1  0.5068130000000  0.5041750000000  0.5047660000000 1.0
C      1  0.4158580000000  0.4918240000000  0.5217130000000 1.0
C      1  0.4648050000000  0.4945540000000  0.5088760000000 1.0
C      1  0.5213290000000  0.5337470000000  0.4784950000000 1.0
C      1  0.5308320000000  0.5173780000000  0.5428900000000 1.0
C      1  0.5821090000000  0.4893700000000  0.5116460000000 1.0
C      1  0.5171590000000  0.5079170000000  0.5712060000000 1.0
C      1  0.4378900000000  0.5159650000000  0.4452550000000 1.0
C      1  0.4949040000000  0.4090090000000  0.4691440000000 1.0
C      1  0.4514510000000  0.4845210000000  0.4283370000000 1.0
C      1  0.4733950000000  0.4992500000000  0.4500800000000 1.0
C      1  0.4489520000000  0.4750350000000  0.4890720000000 1.0
C      1  0.5110050000000  0.5306040000000  0.5202860000000 1.0
C      1  0.5710540000000  0.5523760000000  0.5457320000000 1.0
C      1  0.5297230000000  0.4789760000000  0.5048600000000 1.0
C      1  0.4749660000000  0.4165750000000  0.4956880000000 1.0
C      1  0.5213600000000  0.5880890000000  0.5378920000000 1.0
C      1  0.4388700000000  0.4542590000000  0.4330650000000 1.0
C      1  0.4619130000000  0.5455300000000  0.4789850000000 1.0
C      1  0.4913230000000  0.4819850000000  0.4266540000000 1.0
C      1  0.5314830000000  0.5495990000000  0.5411940000000 1.0
C      1  0.5817310000000  0.4621210000000  0.5176700000000 1.0
C      1  0.4205940000000  0.4468320000000  0.4961710000000 1.0
C      1  0.5012920000000  0.5844030000000  0.4797360000000 1.0
C      1  0.5033930000000  0.4618170000000  0.4802540000000 1.0
C      1  0.5828590000000  0.5639920000000  0.4890070000000 1.0
C      1  0.4603740000000  0.4343980000000  0.5867810000000 1.0
C      1  0.5518190000000  0.5317350000000  0.4325290000000 1.0
C      1  0.5852890000000  0.5361420000000  0.4775080000000 1.0
C      1  0.5031800000000  0.4899680000000  0.4749810000000 1.0
END
