TITL C-2778436-5916-1332 -0.00231379983974759 125000 -252.377490277262 0 0 45 (C1) n - 1
REM
REM in /home/nfs/bkarasulu/CARBON/AIRSS/Generating-Clusters/REBO/Only-C1/SD-CG/HFTN-CG
REM
REM
REM
REM
REM
REM ./C.cell (11c1c37f851c82e70ff6c80c92926a4b)
REM
REM compiler GCC version 9.2.1 20190827 (Red Hat 9.2.1-1)
REM options -cpp -mtune=generic -march=x86-64 -g -O0 -fpre-include=/usr/include/finclude/math-vector-fortran.h
REM seed 192727103 928337086 -827007220 827038991 1640574553 -1630582608 1085916867 -1926956685 284096746 1786090391 1909593707 885798026 -2107688301 -191327900 258261197 -2113720604 -776361873 764269837 1712245021 1907568315 -1681933626 847717390 114230511 1418687675 1324652572 -1913594465 147855653 186708674 -222255259 1829288585 1659006048 -1983412107 -1371163008
REM
CELL 1.54180   50.00000   50.00000   50.00000   90.00000   90.00000   90.00000
LATT -1
SFAC C  
C      1  0.5274890000000  0.5598190000000  0.4831430000000 1.0
C      1  0.4642690000000  0.5182010000000  0.4898860000000 1.0
C      1  0.5025020000000  0.4840160000000  0.5554730000000 1.0
C      1  0.5492410000000  0.4603050000000  0.4904620000000 1.0
C      1  0.5269050000000  0.4605650000000  0.4646750000000 1.0
C      1  0.5553060000000  0.4845120000000  0.5029770000000 1.0
C      1  0.4616600000000  0.4649530000000  0.5113300000000 1.0
C      1  0.4957790000000  0.5413630000000  0.5519790000000 1.0
C      1  0.4377840000000  0.4730350000000  0.4923680000000 1.0
C      1  0.4743900000000  0.5691940000000  0.4994430000000 1.0
C      1  0.5663840000000  0.5145560000000  0.4482090000000 1.0
C      1  0.5435340000000  0.5312130000000  0.5494200000000 1.0
C      1  0.5418610000000  0.4327900000000  0.4777970000000 1.0
C      1  0.5524190000000  0.4845940000000  0.5318040000000 1.0
C      1  0.4907720000000  0.5119130000000  0.4786830000000 1.0
C      1  0.5016910000000  0.5742550000000  0.4969710000000 1.0
C      1  0.5010690000000  0.4771030000000  0.4748160000000 1.0
C      1  0.4658010000000  0.4864770000000  0.4508960000000 1.0
C      1  0.4443800000000  0.4725860000000  0.4625300000000 1.0
C      1  0.5287170000000  0.4405960000000  0.5429020000000 1.0
C      1  0.4694710000000  0.5197360000000  0.5491710000000 1.0
C      1  0.5261830000000  0.4705030000000  0.5387940000000 1.0
C      1  0.4596590000000  0.4722260000000  0.5386450000000 1.0
C      1  0.4506350000000  0.5245750000000  0.5263090000000 1.0
C      1  0.4604590000000  0.5457220000000  0.5044050000000 1.0
C      1  0.5575370000000  0.5081990000000  0.5461850000000 1.0
C      1  0.5308520000000  0.4154020000000  0.5463620000000 1.0
C      1  0.4808250000000  0.5412080000000  0.4389330000000 1.0
C      1  0.4750250000000  0.5401300000000  0.5757770000000 1.0
C      1  0.4895140000000  0.4963810000000  0.4418550000000 1.0
C      1  0.5248780000000  0.5410540000000  0.4621530000000 1.0
C      1  0.4872260000000  0.4662730000000  0.5008060000000 1.0
C      1  0.4278010000000  0.4572890000000  0.4462720000000 1.0
C      1  0.4128200000000  0.4620440000000  0.4987820000000 1.0
C      1  0.5168720000000  0.4972020000000  0.4522750000000 1.0
C      1  0.4447500000000  0.5006540000000  0.5055210000000 1.0
C      1  0.5422360000000  0.5151280000000  0.4616600000000 1.0
C      1  0.4764770000000  0.4907240000000  0.5520510000000 1.0
C      1  0.5404780000000  0.5060140000000  0.4911480000000 1.0
C      1  0.5227310000000  0.5589120000000  0.5157050000000 1.0
C      1  0.5070130000000  0.4822750000000  0.5157790000000 1.0
C      1  0.5210360000000  0.5456150000000  0.5404540000000 1.0
C      1  0.5318800000000  0.4633840000000  0.4372850000000 1.0
C      1  0.5135660000000  0.5052560000000  0.5001310000000 1.0
C      1  0.4981250000000  0.5320480000000  0.4577810000000 1.0
END
