TITL C-2778424-3986-208 -0.00230219740599502 125000 -808.18882507822 0 0 140 (C1) n - 1
REM
REM in /home/nfs/bkarasulu/CARBON/AIRSS/Generating-Clusters/REBO/Only-C1/SD-CG/HFTN-CG
REM
REM
REM
REM
REM
REM ./C.cell (11c1c37f851c82e70ff6c80c92926a4b)
REM
REM compiler GCC version 9.2.1 20190827 (Red Hat 9.2.1-1)
REM options -cpp -mtune=generic -march=x86-64 -g -O0 -fpre-include=/usr/include/finclude/math-vector-fortran.h
REM seed -1447646042 -988105017 712103213 -460728930 1172868511 -868137352 -442673179 -1289763824 390935976 -1293169413 -41774386 457112922 -1058195337 -293527073 -772205851 -1671033685 1204179930 1068414658 745190273 -1699439454 103725023 125133717 -1735651674 1983166216 -395790468 -1740828263 -1790556776 532263599 1084342802 -656488257 -862848950 -1204436719 -1986037539
REM
CELL 1.54180   50.00000   50.00000   50.00000   90.00000   90.00000   90.00000
LATT -1
SFAC C  
C      1  0.4638790000000  0.5026580000000  0.4971230000000 1.0
C      1  0.4927720000000  0.4964460000000  0.4820280000000 1.0
C      1  0.5498140000000  0.4378390000000  0.5350190000000 1.0
C      1  0.5240290000000  0.4427370000000  0.4375230000000 1.0
C      1  0.4992470000000  0.4174230000000  0.5392350000000 1.0
C      1  0.5930120000000  0.5274690000000  0.5275310000000 1.0
C      1  0.4685820000000  0.5200160000000  0.5718540000000 1.0
C      1  0.4436140000000  0.5811000000000  0.5001550000000 1.0
C      1  0.4065370000000  0.4818590000000  0.5413890000000 1.0
C      1  0.4535540000000  0.5127700000000  0.4581280000000 1.0
C      1  0.4480920000000  0.4016870000000  0.4983620000000 1.0
C      1  0.5864010000000  0.5547010000000  0.5234000000000 1.0
C      1  0.5435180000000  0.5157940000000  0.4814230000000 1.0
C      1  0.4754750000000  0.4419010000000  0.4225580000000 1.0
C      1  0.4661590000000  0.4192090000000  0.5454600000000 1.0
C      1  0.5437070000000  0.5756880000000  0.4674990000000 1.0
C      1  0.5724620000000  0.4278930000000  0.5007370000000 1.0
C      1  0.4493400000000  0.5480060000000  0.5684600000000 1.0
C      1  0.4547880000000  0.4585070000000  0.4272570000000 1.0
C      1  0.5186120000000  0.5946660000000  0.4916960000000 1.0
C      1  0.5582610000000  0.5218960000000  0.4256240000000 1.0
C      1  0.4992390000000  0.4525090000000  0.5783970000000 1.0
C      1  0.4528570000000  0.5485430000000  0.4754980000000 1.0
C      1  0.5349580000000  0.4610530000000  0.5638120000000 1.0
C      1  0.5222060000000  0.4732430000000  0.5925290000000 1.0
C      1  0.5039430000000  0.5999940000000  0.5477220000000 1.0
C      1  0.4498540000000  0.5406390000000  0.5266680000000 1.0
C      1  0.4469530000000  0.5115100000000  0.4246970000000 1.0
C      1  0.5448010000000  0.4559950000000  0.5152010000000 1.0
C      1  0.4417360000000  0.4128660000000  0.5238350000000 1.0
C      1  0.4329130000000  0.5391290000000  0.4497330000000 1.0
C      1  0.5075970000000  0.5088170000000  0.5628860000000 1.0
C      1  0.4315010000000  0.4900860000000  0.5624520000000 1.0
C      1  0.5088780000000  0.4204560000000  0.5076120000000 1.0
C      1  0.5647100000000  0.4734620000000  0.4450070000000 1.0
C      1  0.5325280000000  0.4451140000000  0.4682230000000 1.0
C      1  0.5396400000000  0.3961100000000  0.4821430000000 1.0
C      1  0.5552680000000  0.4535060000000  0.4271520000000 1.0
C      1  0.4861900000000  0.5534050000000  0.4699860000000 1.0
C      1  0.5128870000000  0.5605100000000  0.5406740000000 1.0
C      1  0.5300390000000  0.5317570000000  0.5625400000000 1.0
C      1  0.4630080000000  0.5390510000000  0.4234830000000 1.0
C      1  0.4968610000000  0.4297570000000  0.4347900000000 1.0
C      1  0.4913400000000  0.5352500000000  0.4216630000000 1.0
C      1  0.4967850000000  0.5298800000000  0.5873640000000 1.0
C      1  0.5996520000000  0.4870070000000  0.4805790000000 1.0
C      1  0.5776090000000  0.4803220000000  0.5404500000000 1.0
C      1  0.4888930000000  0.4643110000000  0.5491300000000 1.0
C      1  0.4864760000000  0.4745420000000  0.4492290000000 1.0
C      1  0.5124360000000  0.5543840000000  0.4915090000000 1.0
C      1  0.4517030000000  0.4688360000000  0.5352660000000 1.0
C      1  0.5295290000000  0.5480430000000  0.4559580000000 1.0
C      1  0.5458460000000  0.5359420000000  0.5916130000000 1.0
C      1  0.5456390000000  0.5117700000000  0.5209690000000 1.0
C      1  0.4732290000000  0.5779230000000  0.5158820000000 1.0
C      1  0.4857350000000  0.4492130000000  0.4688670000000 1.0
C      1  0.5185880000000  0.4882470000000  0.4090460000000 1.0
C      1  0.5369760000000  0.5650520000000  0.5632670000000 1.0
C      1  0.5553960000000  0.5285720000000  0.4545380000000 1.0
C      1  0.4442240000000  0.4796660000000  0.5054320000000 1.0
C      1  0.4195890000000  0.4404850000000  0.4860300000000 1.0
C      1  0.4701800000000  0.4376920000000  0.4973500000000 1.0
C      1  0.4133500000000  0.4691890000000  0.5127500000000 1.0
C      1  0.5658460000000  0.4995340000000  0.4977970000000 1.0
C      1  0.5411950000000  0.4830240000000  0.4589470000000 1.0
C      1  0.5327910000000  0.5147240000000  0.4042150000000 1.0
C      1  0.5948380000000  0.5151560000000  0.4976550000000 1.0
C      1  0.5132680000000  0.4863600000000  0.5423580000000 1.0
C      1  0.5534420000000  0.4231790000000  0.4753300000000 1.0
C      1  0.5482040000000  0.5817750000000  0.4996250000000 1.0
C      1  0.4996510000000  0.5362450000000  0.5351470000000 1.0
C      1  0.4363510000000  0.5762670000000  0.4672700000000 1.0
C      1  0.5412260000000  0.4693850000000  0.4888090000000 1.0
C      1  0.5270290000000  0.5652020000000  0.4119860000000 1.0
C      1  0.5500480000000  0.5721000000000  0.5319300000000 1.0
C      1  0.4703180000000  0.4808520000000  0.5901880000000 1.0
C      1  0.5063910000000  0.5274050000000  0.4474510000000 1.0
C      1  0.4806430000000  0.5205720000000  0.4656550000000 1.0
C      1  0.4537460000000  0.4702220000000  0.4579210000000 1.0
C      1  0.4728350000000  0.5822660000000  0.4823970000000 1.0
C      1  0.5671470000000  0.5565900000000  0.4993600000000 1.0
C      1  0.5309440000000  0.5948320000000  0.5491790000000 1.0
C      1  0.5094420000000  0.3986740000000  0.4834180000000 1.0
C      1  0.4639390000000  0.5713460000000  0.5634740000000 1.0
C      1  0.4812170000000  0.4902290000000  0.5198010000000 1.0
C      1  0.4175050000000  0.5179880000000  0.5052530000000 1.0
C      1  0.5505380000000  0.4880260000000  0.5887590000000 1.0
C      1  0.4477620000000  0.4570900000000  0.4837830000000 1.0
C      1  0.5521720000000  0.5937540000000  0.4499190000000 1.0
C      1  0.5876750000000  0.4776430000000  0.5093500000000 1.0
C      1  0.4732520000000  0.4452630000000  0.5271630000000 1.0
C      1  0.4809960000000  0.5789540000000  0.4420340000000 1.0
C      1  0.5305270000000  0.4635550000000  0.4116340000000 1.0
C      1  0.4245940000000  0.5432050000000  0.5475770000000 1.0
C      1  0.4246660000000  0.4537940000000  0.5475470000000 1.0
C      1  0.5321500000000  0.4124320000000  0.5306100000000 1.0
C      1  0.4208330000000  0.5116040000000  0.5379830000000 1.0
C      1  0.4527560000000  0.5653150000000  0.4394550000000 1.0
C      1  0.5232060000000  0.4953930000000  0.4921880000000 1.0
C      1  0.5010810000000  0.5903640000000  0.4671640000000 1.0
C      1  0.5127000000000  0.4953190000000  0.4537600000000 1.0
C      1  0.4699970000000  0.4923320000000  0.5518960000000 1.0
C      1  0.4156610000000  0.5096090000000  0.4490830000000 1.0
C      1  0.5453850000000  0.4852800000000  0.5423460000000 1.0
C      1  0.4500770000000  0.4419290000000  0.5647130000000 1.0
C      1  0.5840490000000  0.4476930000000  0.5170770000000 1.0
C      1  0.5756660000000  0.4471080000000  0.5478780000000 1.0
C      1  0.4723700000000  0.5027740000000  0.4080850000000 1.0
C      1  0.4071580000000  0.5441470000000  0.5048970000000 1.0
C      1  0.5602840000000  0.5118880000000  0.5795330000000 1.0
C      1  0.4925300000000  0.4889690000000  0.4198850000000 1.0
C      1  0.4217880000000  0.4363870000000  0.5198990000000 1.0
C      1  0.3953380000000  0.4638210000000  0.4873660000000 1.0
C      1  0.4849830000000  0.5487000000000  0.5094120000000 1.0
C      1  0.4263670000000  0.5643770000000  0.5205410000000 1.0
C      1  0.4726300000000  0.5296470000000  0.5421510000000 1.0
C      1  0.5507170000000  0.5456700000000  0.4059860000000 1.0
C      1  0.5085240000000  0.4472460000000  0.4926980000000 1.0
C      1  0.4617500000000  0.4272210000000  0.4590880000000 1.0
C      1  0.5146390000000  0.5742740000000  0.4402330000000 1.0
C      1  0.5895970000000  0.4787490000000  0.4570960000000 1.0
C      1  0.4474480000000  0.4706190000000  0.5765310000000 1.0
C      1  0.4599430000000  0.5314020000000  0.4990670000000 1.0
C      1  0.5733730000000  0.5128200000000  0.5496970000000 1.0
C      1  0.5131420000000  0.5758730000000  0.5171720000000 1.0
C      1  0.4773430000000  0.4055880000000  0.4886250000000 1.0
C      1  0.5162930000000  0.4365120000000  0.5576330000000 1.0
C      1  0.4276870000000  0.5094840000000  0.4803760000000 1.0
C      1  0.5538290000000  0.4031230000000  0.5092910000000 1.0
C      1  0.5777540000000  0.5358410000000  0.4776470000000 1.0
C      1  0.4398130000000  0.4188170000000  0.4753790000000 1.0
C      1  0.4953610000000  0.4908000000000  0.5883600000000 1.0
C      1  0.4904010000000  0.4088310000000  0.4572920000000 1.0
C      1  0.5175410000000  0.5407830000000  0.6013150000000 1.0
C      1  0.4337510000000  0.4841850000000  0.4356740000000 1.0
C      1  0.5530240000000  0.5386880000000  0.5384180000000 1.0
C      1  0.5386480000000  0.5394210000000  0.5011780000000 1.0
C      1  0.5076750000000  0.4737200000000  0.5111790000000 1.0
C      1  0.5117940000000  0.5398490000000  0.4027980000000 1.0
C      1  0.4791490000000  0.5860830000000  0.5440210000000 1.0
END
