TITL C-2778426-5645-660 0.180089061520877 125000 -705.787308547399 0 0 121 (C1) n - 1
REM
REM in /home/nfs/bkarasulu/CARBON/AIRSS/Generating-Clusters/REBO/Only-C1/SD-CG/HFTN-CG
REM
REM
REM
REM
REM
REM ./C.cell (11c1c37f851c82e70ff6c80c92926a4b)
REM
REM compiler GCC version 9.2.1 20190827 (Red Hat 9.2.1-1)
REM options -cpp -mtune=generic -march=x86-64 -g -O0 -fpre-include=/usr/include/finclude/math-vector-fortran.h
REM seed 61505241 -63810462 -1254343008 -2039725349 1070895290 -1239555625 889872998 -1537309086 1509084752 -1423549952 94032550 -837082337 -1528106635 -1920156667 -128289218 -133622386 1796389804 241712481 -1590942113 -259691376 268460543 -254712172 -1519933744 -567113425 739879980 -1469951376 -1407747134 1337808297 -663154019 166699343 -888376125 -2035784822 -907810399
REM
CELL 1.54180   50.00000   50.00000   50.00000   90.00000   90.00000   90.00000
LATT -1
SFAC C  
C      1  0.4629990000000  0.5875940000000  0.4921610000000 1.0
C      1  0.4994310000000  0.5508080000000  0.6011790000000 1.0
C      1  0.4169420000000  0.4574460000000  0.4930010000000 1.0
C      1  0.4596420000000  0.5200480000000  0.5855330000000 1.0
C      1  0.4295630000000  0.4874990000000  0.5032550000000 1.0
C      1  0.5248310000000  0.4593120000000  0.5477340000000 1.0
C      1  0.5010720000000  0.4303060000000  0.6255200000000 1.0
C      1  0.4480160000000  0.5640170000000  0.4782360000000 1.0
C      1  0.5381370000000  0.5271270000000  0.4368740000000 1.0
C      1  0.5196300000000  0.4697560000000  0.4409170000000 1.0
C      1  0.4879690000000  0.4822300000000  0.4410210000000 1.0
C      1  0.4130410000000  0.5453940000000  0.4732750000000 1.0
C      1  0.4997590000000  0.4970680000000  0.5122640000000 1.0
C      1  0.5356460000000  0.5809180000000  0.4832130000000 1.0
C      1  0.4957280000000  0.5157940000000  0.5692170000000 1.0
C      1  0.5281000000000  0.4082250000000  0.4807600000000 1.0
C      1  0.4642670000000  0.5154760000000  0.5116250000000 1.0
C      1  0.5401370000000  0.5452920000000  0.5269450000000 1.0
C      1  0.5844760000000  0.5573870000000  0.5165240000000 1.0
C      1  0.4292050000000  0.5603190000000  0.4501490000000 1.0
C      1  0.4651620000000  0.4546130000000  0.5092400000000 1.0
C      1  0.4692720000000  0.4840570000000  0.5056720000000 1.0
C      1  0.5453880000000  0.5064120000000  0.4187620000000 1.0
C      1  0.5234010000000  0.5895990000000  0.4526670000000 1.0
C      1  0.5170260000000  0.5174550000000  0.5439450000000 1.0
C      1  0.5346730000000  0.4925520000000  0.5506750000000 1.0
C      1  0.4772920000000  0.4080630000000  0.4905390000000 1.0
C      1  0.4784320000000  0.5035450000000  0.4597650000000 1.0
C      1  0.5952950000000  0.4683070000000  0.5048930000000 1.0
C      1  0.5652580000000  0.5593670000000  0.5654680000000 1.0
C      1  0.4632880000000  0.4632150000000  0.4263030000000 1.0
C      1  0.5656810000000  0.5537300000000  0.5379040000000 1.0
C      1  0.4867350000000  0.5318120000000  0.4453350000000 1.0
C      1  0.4373330000000  0.5316040000000  0.5204830000000 1.0
C      1  0.4477700000000  0.5188580000000  0.5564640000000 1.0
C      1  0.4365090000000  0.4740090000000  0.4319330000000 1.0
C      1  0.4947670000000  0.5521520000000  0.4911130000000 1.0
C      1  0.5094270000000  0.4299080000000  0.4353340000000 1.0
C      1  0.4761290000000  0.5461210000000  0.5863750000000 1.0
C      1  0.4797310000000  0.4455680000000  0.5365920000000 1.0
C      1  0.4312030000000  0.4391770000000  0.4703020000000 1.0
C      1  0.5534760000000  0.5515680000000  0.4465940000000 1.0
C      1  0.5008370000000  0.5304790000000  0.5169460000000 1.0
C      1  0.4212190000000  0.4647330000000  0.4541260000000 1.0
C      1  0.4880920000000  0.4659490000000  0.5829210000000 1.0
C      1  0.4297220000000  0.4703770000000  0.5413730000000 1.0
C      1  0.5310240000000  0.4316720000000  0.5285160000000 1.0
C      1  0.5005860000000  0.4245850000000  0.4810560000000 1.0
C      1  0.4936370000000  0.4506870000000  0.4172800000000 1.0
C      1  0.4338760000000  0.4509340000000  0.5187840000000 1.0
C      1  0.5462570000000  0.4752220000000  0.5773510000000 1.0
C      1  0.4479450000000  0.5144740000000  0.4044840000000 1.0
C      1  0.5629910000000  0.4418610000000  0.5363730000000 1.0
C      1  0.4961110000000  0.5800670000000  0.4711730000000 1.0
C      1  0.4433220000000  0.4628490000000  0.5637110000000 1.0
C      1  0.6151850000000  0.4789370000000  0.4425380000000 1.0
C      1  0.5753810000000  0.5060940000000  0.5244910000000 1.0
C      1  0.4850720000000  0.4825930000000  0.4077350000000 1.0
C      1  0.5155770000000  0.5179340000000  0.4569470000000 1.0
C      1  0.4331710000000  0.5300910000000  0.3878790000000 1.0
C      1  0.5474570000000  0.4803810000000  0.4306490000000 1.0
C      1  0.5115490000000  0.5501680000000  0.4075530000000 1.0
C      1  0.5301290000000  0.4270080000000  0.4542450000000 1.0
C      1  0.4526550000000  0.5683080000000  0.5176500000000 1.0
C      1  0.5257460000000  0.5570510000000  0.6002050000000 1.0
C      1  0.4780530000000  0.5229230000000  0.5414220000000 1.0
C      1  0.5663290000000  0.4809880000000  0.4520500000000 1.0
C      1  0.4091990000000  0.4863850000000  0.4762180000000 1.0
C      1  0.5937920000000  0.4833220000000  0.4584070000000 1.0
C      1  0.5813150000000  0.4444050000000  0.5136850000000 1.0
C      1  0.4498680000000  0.5509320000000  0.5451850000000 1.0
C      1  0.4766420000000  0.5113980000000  0.4017490000000 1.0
C      1  0.5492520000000  0.5600580000000  0.5872930000000 1.0
C      1  0.5285670000000  0.5659800000000  0.4283990000000 1.0
C      1  0.5943320000000  0.4909180000000  0.4866220000000 1.0
C      1  0.4918300000000  0.5322930000000  0.4147500000000 1.0
C      1  0.4371090000000  0.5019680000000  0.4280930000000 1.0
C      1  0.5219080000000  0.5362380000000  0.4818830000000 1.0
C      1  0.4940540000000  0.5691940000000  0.5457850000000 1.0
C      1  0.4605320000000  0.5000460000000  0.6127780000000 1.0
C      1  0.4988070000000  0.4217290000000  0.5336090000000 1.0
C      1  0.4769710000000  0.6032150000000  0.4717680000000 1.0
C      1  0.5509620000000  0.4905700000000  0.4771660000000 1.0
C      1  0.4115140000000  0.5164200000000  0.4682320000000 1.0
C      1  0.5657970000000  0.4809580000000  0.5286510000000 1.0
C      1  0.5638910000000  0.4654150000000  0.5536140000000 1.0
C      1  0.5492260000000  0.4706840000000  0.5016550000000 1.0
C      1  0.5024490000000  0.4450080000000  0.6046320000000 1.0
C      1  0.4769720000000  0.5261060000000  0.4853210000000 1.0
C      1  0.5027200000000  0.4548370000000  0.4655200000000 1.0
C      1  0.4577860000000  0.5419530000000  0.4540970000000 1.0
C      1  0.5430080000000  0.5051750000000  0.5876960000000 1.0
C      1  0.4633650000000  0.4434650000000  0.4789030000000 1.0
C      1  0.5437360000000  0.4449640000000  0.4797200000000 1.0
C      1  0.5577240000000  0.5616370000000  0.4738510000000 1.0
C      1  0.4739600000000  0.5594580000000  0.5619410000000 1.0
C      1  0.5157350000000  0.5574680000000  0.4579140000000 1.0
C      1  0.5172160000000  0.5821100000000  0.5048910000000 1.0
C      1  0.4521120000000  0.4957090000000  0.4791550000000 1.0
C      1  0.5187170000000  0.5647460000000  0.5293420000000 1.0
C      1  0.5698420000000  0.5144640000000  0.4929660000000 1.0
C      1  0.4795720000000  0.4379660000000  0.4497740000000 1.0
C      1  0.4740190000000  0.4103630000000  0.5187500000000 1.0
C      1  0.5263840000000  0.4802080000000  0.5222160000000 1.0
C      1  0.5047470000000  0.4760670000000  0.4892340000000 1.0
C      1  0.4813850000000  0.4938850000000  0.5884470000000 1.0
C      1  0.5215810000000  0.4900740000000  0.4664060000000 1.0
C      1  0.5770070000000  0.5473320000000  0.4904720000000 1.0
C      1  0.5691760000000  0.4285740000000  0.4933660000000 1.0
C      1  0.5195360000000  0.4572860000000  0.5793320000000 1.0
C      1  0.4405500000000  0.5153950000000  0.4548990000000 1.0
C      1  0.4487580000000  0.4222860000000  0.5260900000000 1.0
C      1  0.4316040000000  0.5005810000000  0.5327450000000 1.0
C      1  0.4509630000000  0.4117910000000  0.4745750000000 1.0
C      1  0.5409590000000  0.5296520000000  0.5030840000000 1.0
C      1  0.4847290000000  0.5810710000000  0.5162170000000 1.0
C      1  0.5448690000000  0.4127810000000  0.5032420000000 1.0
C      1  0.5243170000000  0.5209750000000  0.5830410000000 1.0
C      1  0.4704220000000  0.4549600000000  0.5616600000000 1.0
C      1  0.5174600000000  0.4467950000000  0.5011550000000 1.0
C      1  0.4272910000000  0.5526580000000  0.5005860000000 1.0
END
