TITL C-2778423-5760-527 0.0105192282379202 125000 -332.692103731096 0 0 58 (C1) n - 1
REM
REM in /home/nfs/bkarasulu/CARBON/AIRSS/Generating-Clusters/REBO/Only-C1/SD-CG/HFTN-CG
REM
REM
REM
REM
REM
REM ./C.cell (11c1c37f851c82e70ff6c80c92926a4b)
REM
REM compiler GCC version 9.2.1 20190827 (Red Hat 9.2.1-1)
REM options -cpp -mtune=generic -march=x86-64 -g -O0 -fpre-include=/usr/include/finclude/math-vector-fortran.h
REM seed 1879893325 456890056 -102008483 -480395799 -259149369 1485164128 1604816084 1817905688 1379671068 115813170 -1761367670 450380764 -1311257113 -1690440522 -1183482364 -810432666 -531545862 -675039127 20859532 -1000800209 -356156212 1054441223 889244321 -397152516 1345654034 597439792 -52348587 -1424007376 -727662872 1726015201 1467436318 -2029936649 527952419
REM
CELL 1.54180   50.00000   50.00000   50.00000   90.00000   90.00000   90.00000
LATT -1
SFAC C  
C      1  0.4298050000000  0.5131270000000  0.5258230000000 1.0
C      1  0.4569100000000  0.4560400000000  0.4336270000000 1.0
C      1  0.4756430000000  0.5550850000000  0.4909430000000 1.0
C      1  0.4415530000000  0.5291090000000  0.4511640000000 1.0
C      1  0.4888960000000  0.5482370000000  0.4446580000000 1.0
C      1  0.6000400000000  0.4727660000000  0.4252820000000 1.0
C      1  0.4786950000000  0.4993870000000  0.4443580000000 1.0
C      1  0.4415610000000  0.4849890000000  0.4709340000000 1.0
C      1  0.5451480000000  0.5244620000000  0.4340330000000 1.0
C      1  0.4499610000000  0.4527710000000  0.5095340000000 1.0
C      1  0.5568970000000  0.5086380000000  0.4854180000000 1.0
C      1  0.5045440000000  0.5536870000000  0.4230250000000 1.0
C      1  0.4332650000000  0.4849530000000  0.5316070000000 1.0
C      1  0.4771720000000  0.4347920000000  0.5085450000000 1.0
C      1  0.5416730000000  0.5190210000000  0.5879380000000 1.0
C      1  0.5389870000000  0.4813070000000  0.4905600000000 1.0
C      1  0.5175980000000  0.6044490000000  0.5224420000000 1.0
C      1  0.5056120000000  0.4212080000000  0.5006730000000 1.0
C      1  0.4561300000000  0.4741420000000  0.5427320000000 1.0
C      1  0.5406710000000  0.5536530000000  0.4950330000000 1.0
C      1  0.5687380000000  0.4569220000000  0.5224010000000 1.0
C      1  0.5632170000000  0.4832480000000  0.4676660000000 1.0
C      1  0.4655760000000  0.4438540000000  0.5386600000000 1.0
C      1  0.5159990000000  0.4385230000000  0.5477190000000 1.0
C      1  0.5083820000000  0.4478360000000  0.5775120000000 1.0
C      1  0.4378420000000  0.5218730000000  0.4990700000000 1.0
C      1  0.4859070000000  0.4353790000000  0.5582490000000 1.0
C      1  0.4660870000000  0.5281070000000  0.4995390000000 1.0
C      1  0.4537580000000  0.4770690000000  0.4957230000000 1.0
C      1  0.4722610000000  0.5638220000000  0.5190060000000 1.0
C      1  0.5205870000000  0.4443190000000  0.5188820000000 1.0
C      1  0.4675870000000  0.5423790000000  0.5367090000000 1.0
C      1  0.5449700000000  0.4604940000000  0.5116330000000 1.0
C      1  0.4822630000000  0.4903320000000  0.5023480000000 1.0
C      1  0.5832640000000  0.4457740000000  0.4295080000000 1.0
C      1  0.5090590000000  0.4839200000000  0.4822090000000 1.0
C      1  0.4316260000000  0.5122830000000  0.4724280000000 1.0
C      1  0.4971590000000  0.4600520000000  0.5023570000000 1.0
C      1  0.4580280000000  0.4792000000000  0.4476840000000 1.0
C      1  0.5300430000000  0.5516620000000  0.5264850000000 1.0
C      1  0.5228820000000  0.5806040000000  0.5110070000000 1.0
C      1  0.4691980000000  0.5267400000000  0.4435630000000 1.0
C      1  0.4430620000000  0.5286630000000  0.5473270000000 1.0
C      1  0.4809560000000  0.5128040000000  0.5255880000000 1.0
C      1  0.5253030000000  0.5355590000000  0.5465020000000 1.0
C      1  0.5262870000000  0.5056160000000  0.4391150000000 1.0
C      1  0.5564210000000  0.5353070000000  0.4792530000000 1.0
C      1  0.4528570000000  0.5103470000000  0.5680620000000 1.0
C      1  0.5089810000000  0.4745690000000  0.5856240000000 1.0
C      1  0.5035960000000  0.4970860000000  0.5696020000000 1.0
C      1  0.5589230000000  0.5406060000000  0.4515270000000 1.0
C      1  0.5229720000000  0.5175770000000  0.5679790000000 1.0
C      1  0.4936670000000  0.5606680000000  0.4699970000000 1.0
C      1  0.4784360000000  0.4961660000000  0.5532990000000 1.0
C      1  0.5133440000000  0.4010060000000  0.4863670000000 1.0
C      1  0.5768480000000  0.4717540000000  0.4483620000000 1.0
C      1  0.5052600000000  0.4943090000000  0.4536770000000 1.0
C      1  0.5178940000000  0.5717460000000  0.4790310000000 1.0
END
