TITL C-2778424-3986-784 0.0936242842689104 125000 -180.046946176776 0 0 33 (C1) n - 1
REM
REM in /home/nfs/bkarasulu/CARBON/AIRSS/Generating-Clusters/REBO/Only-C1/SD-CG/HFTN-CG
REM
REM
REM
REM
REM
REM ./C.cell (11c1c37f851c82e70ff6c80c92926a4b)
REM
REM compiler GCC version 9.2.1 20190827 (Red Hat 9.2.1-1)
REM options -cpp -mtune=generic -march=x86-64 -g -O0 -fpre-include=/usr/include/finclude/math-vector-fortran.h
REM seed -1307269411 -69120644 95107819 -1835356042 -424838236 -15990166 1879190832 1918811339 713102258 1426218446 253174754 -351472883 1220590090 -1806464169 896497332 -597776647 1845288750 -1556801064 41734137 -664960501 2146129727 991309991 -130385905 -1539905637 1525436877 -1155978051 382635520 1313876343 296878845 436863708 -328837589 -313840543 -858042295
REM
CELL 1.54180   50.00000   50.00000   50.00000   90.00000   90.00000   90.00000
LATT -1
SFAC C  
C      1  0.5269280000000  0.5218720000000  0.4168300000000 1.0
C      1  0.4823140000000  0.4662710000000  0.5533080000000 1.0
C      1  0.5518960000000  0.4775730000000  0.5111320000000 1.0
C      1  0.5132570000000  0.5227490000000  0.4407130000000 1.0
C      1  0.5158700000000  0.4855450000000  0.5265460000000 1.0
C      1  0.4854730000000  0.5021490000000  0.4856390000000 1.0
C      1  0.4111760000000  0.5328370000000  0.5265080000000 1.0
C      1  0.4731650000000  0.4674730000000  0.4561790000000 1.0
C      1  0.5298780000000  0.5472930000000  0.5257690000000 1.0
C      1  0.4817270000000  0.4367180000000  0.4503330000000 1.0
C      1  0.5240420000000  0.5639170000000  0.5049840000000 1.0
C      1  0.4531130000000  0.5158360000000  0.4668280000000 1.0
C      1  0.4967320000000  0.4780390000000  0.5731850000000 1.0
C      1  0.5365990000000  0.5202870000000  0.5312390000000 1.0
C      1  0.5458450000000  0.5049670000000  0.5085920000000 1.0
C      1  0.4717030000000  0.4906340000000  0.5097820000000 1.0
C      1  0.5230080000000  0.5597840000000  0.4778470000000 1.0
C      1  0.4841310000000  0.4480810000000  0.4805890000000 1.0
C      1  0.4902840000000  0.4721360000000  0.5239230000000 1.0
C      1  0.4609930000000  0.5420590000000  0.4513830000000 1.0
C      1  0.5183710000000  0.4956010000000  0.5781840000000 1.0
C      1  0.5211110000000  0.4369140000000  0.5095560000000 1.0
C      1  0.5440630000000  0.4516660000000  0.5116050000000 1.0
C      1  0.5039230000000  0.5038730000000  0.4668980000000 1.0
C      1  0.4810980000000  0.5210450000000  0.4391570000000 1.0
C      1  0.4685570000000  0.4940270000000  0.4503470000000 1.0
C      1  0.4298890000000  0.5223080000000  0.5122870000000 1.0
C      1  0.5300830000000  0.5085310000000  0.5559700000000 1.0
C      1  0.4952390000000  0.4479450000000  0.5058940000000 1.0
C      1  0.5289150000000  0.5348640000000  0.4659690000000 1.0
C      1  0.4507630000000  0.5105630000000  0.4964260000000 1.0
C      1  0.5275270000000  0.4998440000000  0.6034780000000 1.0
C      1  0.5423250000000  0.5166000000000  0.4829200000000 1.0
END
