TITL C-2778426-5645-558 0.0914279423980005 125000 -462.591326563011 0 0 79 (C1) n - 1
REM
REM in /home/nfs/bkarasulu/CARBON/AIRSS/Generating-Clusters/REBO/Only-C1/SD-CG/HFTN-CG
REM
REM
REM
REM
REM
REM ./C.cell (11c1c37f851c82e70ff6c80c92926a4b)
REM
REM compiler GCC version 9.2.1 20190827 (Red Hat 9.2.1-1)
REM options -cpp -mtune=generic -march=x86-64 -g -O0 -fpre-include=/usr/include/finclude/math-vector-fortran.h
REM seed -937300215 -2038842906 1541692525 -2062510491 -856130949 -473806261 -1818651454 -1179129189 668067221 933270574 -1715364066 1813831018 -1733013168 55246211 1404538103 733305278 -2144635859 1399053838 -531313165 -1605079797 -1257986939 255809049 -1385490405 -1978462182 1600770553 1278461479 -1537957220 -431449165 -1715903090 1896682633 41296723 -196954119 1642308793
REM
CELL 1.54180   50.00000   50.00000   50.00000   90.00000   90.00000   90.00000
LATT -1
SFAC C  
C      1  0.4350730000000  0.4733570000000  0.5524450000000 1.0
C      1  0.5228240000000  0.5138110000000  0.4892190000000 1.0
C      1  0.5458890000000  0.4455960000000  0.4547280000000 1.0
C      1  0.4746200000000  0.5105360000000  0.5197430000000 1.0
C      1  0.4756680000000  0.5633900000000  0.4545220000000 1.0
C      1  0.4669010000000  0.5077590000000  0.4420570000000 1.0
C      1  0.4960480000000  0.5229090000000  0.4777090000000 1.0
C      1  0.4227800000000  0.4771780000000  0.4972110000000 1.0
C      1  0.5383220000000  0.5194050000000  0.4393440000000 1.0
C      1  0.4930300000000  0.4931680000000  0.5409990000000 1.0
C      1  0.5363470000000  0.4251920000000  0.4795580000000 1.0
C      1  0.5438930000000  0.4917230000000  0.4358720000000 1.0
C      1  0.5335850000000  0.5474680000000  0.5418930000000 1.0
C      1  0.5682510000000  0.4686880000000  0.5199360000000 1.0
C      1  0.5004340000000  0.5965720000000  0.5164270000000 1.0
C      1  0.4802250000000  0.4945120000000  0.5712400000000 1.0
C      1  0.5081740000000  0.4314040000000  0.5234740000000 1.0
C      1  0.4296530000000  0.4484910000000  0.4558720000000 1.0
C      1  0.5265280000000  0.5220400000000  0.5618340000000 1.0
C      1  0.5275740000000  0.4816890000000  0.4815220000000 1.0
C      1  0.4258080000000  0.5027410000000  0.4822560000000 1.0
C      1  0.5027050000000  0.4660360000000  0.4867570000000 1.0
C      1  0.5479650000000  0.5445120000000  0.4844820000000 1.0
C      1  0.4311100000000  0.4524290000000  0.4840350000000 1.0
C      1  0.4512210000000  0.4961490000000  0.5587580000000 1.0
C      1  0.4804170000000  0.4411920000000  0.4786630000000 1.0
C      1  0.5023670000000  0.5476810000000  0.4568420000000 1.0
C      1  0.5570100000000  0.5129140000000  0.4921410000000 1.0
C      1  0.4273070000000  0.5259390000000  0.4982920000000 1.0
C      1  0.4678250000000  0.4591580000000  0.5155410000000 1.0
C      1  0.4879830000000  0.5078360000000  0.3965720000000 1.0
C      1  0.5202210000000  0.4284680000000  0.4496840000000 1.0
C      1  0.4785000000000  0.4852140000000  0.5010620000000 1.0
C      1  0.5584250000000  0.4235650000000  0.5009240000000 1.0
C      1  0.5205510000000  0.5541310000000  0.4989800000000 1.0
C      1  0.5892420000000  0.5076970000000  0.4913580000000 1.0
C      1  0.4355890000000  0.5058900000000  0.4560250000000 1.0
C      1  0.5469880000000  0.5025610000000  0.5620960000000 1.0
C      1  0.5303860000000  0.5219840000000  0.5203710000000 1.0
C      1  0.4401020000000  0.4510120000000  0.5693670000000 1.0
C      1  0.4948860000000  0.5608020000000  0.5423200000000 1.0
C      1  0.5466610000000  0.5682290000000  0.5089920000000 1.0
C      1  0.4853340000000  0.4479550000000  0.5341810000000 1.0
C      1  0.4862180000000  0.5451090000000  0.5621120000000 1.0
C      1  0.5574950000000  0.5318520000000  0.4570580000000 1.0
C      1  0.4810140000000  0.4938190000000  0.4681220000000 1.0
C      1  0.5850300000000  0.5298110000000  0.5150060000000 1.0
C      1  0.5932930000000  0.4788830000000  0.5033930000000 1.0
C      1  0.4502150000000  0.5144630000000  0.5380910000000 1.0
C      1  0.4940770000000  0.5575630000000  0.5108080000000 1.0
C      1  0.4230240000000  0.4751480000000  0.5262160000000 1.0
C      1  0.4546270000000  0.4416950000000  0.4960980000000 1.0
C      1  0.4395420000000  0.5717840000000  0.5095300000000 1.0
C      1  0.5449710000000  0.4868250000000  0.5085790000000 1.0
C      1  0.5617770000000  0.4861370000000  0.5466800000000 1.0
C      1  0.5574850000000  0.4405150000000  0.5225810000000 1.0
C      1  0.5092700000000  0.4337280000000  0.4931700000000 1.0
C      1  0.4258750000000  0.5215890000000  0.5260910000000 1.0
C      1  0.5110610000000  0.5273700000000  0.4357430000000 1.0
C      1  0.4495270000000  0.4612840000000  0.4401280000000 1.0
C      1  0.4770740000000  0.5344250000000  0.5007570000000 1.0
C      1  0.5818720000000  0.5188710000000  0.4613920000000 1.0
C      1  0.4888850000000  0.5154840000000  0.4230700000000 1.0
C      1  0.5609940000000  0.5352780000000  0.5261340000000 1.0
C      1  0.4475610000000  0.5476130000000  0.4933970000000 1.0
C      1  0.4992630000000  0.5209110000000  0.5690310000000 1.0
C      1  0.4431550000000  0.4874630000000  0.4316000000000 1.0
C      1  0.4812850000000  0.4694510000000  0.5891350000000 1.0
C      1  0.5235970000000  0.5660200000000  0.4612560000000 1.0
C      1  0.5226640000000  0.5771970000000  0.5314170000000 1.0
C      1  0.4770820000000  0.4629600000000  0.4541890000000 1.0
C      1  0.4816440000000  0.5838250000000  0.4975860000000 1.0
C      1  0.5424860000000  0.4730530000000  0.4568020000000 1.0
C      1  0.5237910000000  0.4931490000000  0.5309910000000 1.0
C      1  0.4618320000000  0.4501780000000  0.5864830000000 1.0
C      1  0.4641050000000  0.5713950000000  0.4781460000000 1.0
C      1  0.5125730000000  0.4652590000000  0.5439620000000 1.0
C      1  0.4976770000000  0.4410210000000  0.4426530000000 1.0
C      1  0.5335340000000  0.4398880000000  0.5372910000000 1.0
END
