TITL C-2778425-5191-365 0.00395058236314868 125000 -712.808549048479 0 0 122 (C1) n - 1
REM
REM in /home/nfs/bkarasulu/CARBON/AIRSS/Generating-Clusters/REBO/Only-C1/SD-CG/HFTN-CG
REM
REM
REM
REM
REM
REM ./C.cell (11c1c37f851c82e70ff6c80c92926a4b)
REM
REM compiler GCC version 9.2.1 20190827 (Red Hat 9.2.1-1)
REM options -cpp -mtune=generic -march=x86-64 -g -O0 -fpre-include=/usr/include/finclude/math-vector-fortran.h
REM seed 247724637 -1980939445 -624621116 1372296821 1964016817 -844966880 -1732731230 299086630 206015434 -349407308 -991944991 1195920037 566432261 253043178 2048136970 88826114 -798196529 -717083795 216180516 1640112538 1068742884 -1922129615 1451292207 1289946374 -1614517205 876625478 -1263868388 364855424 -24546307 -1858725538 448084550 707849442 801228249
REM
CELL 1.54180   50.00000   50.00000   50.00000   90.00000   90.00000   90.00000
LATT -1
SFAC C  
C      1  0.5140260000000  0.4975090000000  0.5297400000000 1.0
C      1  0.5536980000000  0.5773900000000  0.4760690000000 1.0
C      1  0.5096700000000  0.4741210000000  0.5043700000000 1.0
C      1  0.4944090000000  0.4483480000000  0.4943490000000 1.0
C      1  0.4796200000000  0.5367950000000  0.5915210000000 1.0
C      1  0.5435340000000  0.4846780000000  0.5224440000000 1.0
C      1  0.4480350000000  0.5438650000000  0.4689450000000 1.0
C      1  0.5052870000000  0.5521270000000  0.4143410000000 1.0
C      1  0.5314360000000  0.4527370000000  0.5163100000000 1.0
C      1  0.5237850000000  0.5680910000000  0.5724920000000 1.0
C      1  0.5129830000000  0.5056590000000  0.4112010000000 1.0
C      1  0.6123640000000  0.4923720000000  0.4914060000000 1.0
C      1  0.4157800000000  0.5000770000000  0.4406770000000 1.0
C      1  0.4666820000000  0.4644330000000  0.5758770000000 1.0
C      1  0.5550220000000  0.4970220000000  0.5725250000000 1.0
C      1  0.5156870000000  0.4828840000000  0.4277380000000 1.0
C      1  0.4410580000000  0.5051670000000  0.5770680000000 1.0
C      1  0.5036630000000  0.5318540000000  0.4529270000000 1.0
C      1  0.5751880000000  0.4606850000000  0.4669970000000 1.0
C      1  0.5554330000000  0.5084960000000  0.4542560000000 1.0
C      1  0.5697010000000  0.5388680000000  0.5438590000000 1.0
C      1  0.4688390000000  0.4051940000000  0.4406720000000 1.0
C      1  0.4064400000000  0.5282660000000  0.4527160000000 1.0
C      1  0.4849230000000  0.5127940000000  0.5584050000000 1.0
C      1  0.4611360000000  0.4214220000000  0.5393620000000 1.0
C      1  0.4637470000000  0.4881320000000  0.4491920000000 1.0
C      1  0.5704850000000  0.5701900000000  0.4978970000000 1.0
C      1  0.5249490000000  0.4217220000000  0.4766720000000 1.0
C      1  0.4472430000000  0.5674650000000  0.4833750000000 1.0
C      1  0.4241570000000  0.4650710000000  0.5449900000000 1.0
C      1  0.4647630000000  0.5879830000000  0.4720610000000 1.0
C      1  0.4638230000000  0.4958680000000  0.4074830000000 1.0
C      1  0.4426790000000  0.4529790000000  0.4339250000000 1.0
C      1  0.4646530000000  0.4633780000000  0.4186920000000 1.0
C      1  0.4765100000000  0.5661190000000  0.4520470000000 1.0
C      1  0.5095840000000  0.5849740000000  0.4632770000000 1.0
C      1  0.4940030000000  0.5591250000000  0.5774190000000 1.0
C      1  0.4599100000000  0.5260450000000  0.4229550000000 1.0
C      1  0.5411820000000  0.4436990000000  0.5475110000000 1.0
C      1  0.4351880000000  0.4179780000000  0.5028150000000 1.0
C      1  0.5155950000000  0.5580300000000  0.4524850000000 1.0
C      1  0.4235830000000  0.4981370000000  0.4718760000000 1.0
C      1  0.4180100000000  0.5013940000000  0.5111490000000 1.0
C      1  0.5701030000000  0.4421530000000  0.4904870000000 1.0
C      1  0.4629340000000  0.4694060000000  0.5363950000000 1.0
C      1  0.4793290000000  0.5536120000000  0.4260810000000 1.0
C      1  0.5482740000000  0.5247270000000  0.5600670000000 1.0
C      1  0.4954230000000  0.4048320000000  0.5090670000000 1.0
C      1  0.6153200000000  0.5103430000000  0.5156960000000 1.0
C      1  0.4546260000000  0.5047120000000  0.4732500000000 1.0
C      1  0.5100090000000  0.4962770000000  0.5847870000000 1.0
C      1  0.5076410000000  0.5238310000000  0.5902950000000 1.0
C      1  0.5257550000000  0.4323180000000  0.4496230000000 1.0
C      1  0.4933080000000  0.4573120000000  0.5437630000000 1.0
C      1  0.4329130000000  0.4515090000000  0.4614400000000 1.0
C      1  0.5800010000000  0.4877610000000  0.4509640000000 1.0
C      1  0.5684980000000  0.5087850000000  0.4847830000000 1.0
C      1  0.5319690000000  0.4125600000000  0.5511030000000 1.0
C      1  0.5404930000000  0.4698590000000  0.4262060000000 1.0
C      1  0.5242390000000  0.5309750000000  0.4186500000000 1.0
C      1  0.4547250000000  0.5303380000000  0.5776860000000 1.0
C      1  0.5340920000000  0.4820810000000  0.5819620000000 1.0
C      1  0.4477530000000  0.4847290000000  0.5100730000000 1.0
C      1  0.5256610000000  0.4551360000000  0.5738620000000 1.0
C      1  0.4902540000000  0.5225230000000  0.4908860000000 1.0
C      1  0.5394260000000  0.5461940000000  0.5052690000000 1.0
C      1  0.4973220000000  0.4456430000000  0.4604660000000 1.0
C      1  0.4413210000000  0.4775340000000  0.5690570000000 1.0
C      1  0.4868790000000  0.4311060000000  0.5229050000000 1.0
C      1  0.4665750000000  0.5124270000000  0.5086650000000 1.0
C      1  0.4730090000000  0.5263550000000  0.4543890000000 1.0
C      1  0.5196600000000  0.5250650000000  0.5439330000000 1.0
C      1  0.4412030000000  0.4514560000000  0.5054540000000 1.0
C      1  0.5290190000000  0.5399900000000  0.5798080000000 1.0
C      1  0.5288110000000  0.3881970000000  0.5405200000000 1.0
C      1  0.4202900000000  0.5353620000000  0.5133040000000 1.0
C      1  0.5120600000000  0.5336650000000  0.5130210000000 1.0
C      1  0.4177660000000  0.4697640000000  0.4795240000000 1.0
C      1  0.5298370000000  0.5770420000000  0.5434980000000 1.0
C      1  0.5570400000000  0.5629380000000  0.5283220000000 1.0
C      1  0.4991500000000  0.5515380000000  0.5458350000000 1.0
C      1  0.4904670000000  0.5043710000000  0.3939520000000 1.0
C      1  0.4996810000000  0.4105940000000  0.4822930000000 1.0
C      1  0.4980720000000  0.5973690000000  0.5080290000000 1.0
C      1  0.5908430000000  0.5253530000000  0.5310660000000 1.0
C      1  0.4064710000000  0.5220450000000  0.4862330000000 1.0
C      1  0.4898480000000  0.4843280000000  0.5642530000000 1.0
C      1  0.4122350000000  0.4678940000000  0.5132310000000 1.0
C      1  0.5455520000000  0.5336600000000  0.4379150000000 1.0
C      1  0.4931660000000  0.4492660000000  0.5827370000000 1.0
C      1  0.4902730000000  0.4692330000000  0.4404120000000 1.0
C      1  0.4848720000000  0.5543650000000  0.4799740000000 1.0
C      1  0.5441920000000  0.5125350000000  0.5028330000000 1.0
C      1  0.5443050000000  0.4438290000000  0.4329560000000 1.0
C      1  0.4749780000000  0.4221090000000  0.4652820000000 1.0
C      1  0.4873670000000  0.5551790000000  0.5132880000000 1.0
C      1  0.5087540000000  0.3840000000000  0.5222990000000 1.0
C      1  0.4405710000000  0.5627780000000  0.5118120000000 1.0
C      1  0.4541200000000  0.5450350000000  0.5539300000000 1.0
C      1  0.5923730000000  0.5554810000000  0.4908650000000 1.0
C      1  0.4474610000000  0.4444470000000  0.5474670000000 1.0
C      1  0.4395610000000  0.4923460000000  0.4287550000000 1.0
C      1  0.5834950000000  0.4813380000000  0.4899560000000 1.0
C      1  0.5058330000000  0.4295100000000  0.5590470000000 1.0
C      1  0.5914220000000  0.5259120000000  0.4974300000000 1.0
C      1  0.5241960000000  0.5764450000000  0.5106540000000 1.0
C      1  0.5465570000000  0.5585620000000  0.4543920000000 1.0
C      1  0.4811500000000  0.6035340000000  0.4886280000000 1.0
C      1  0.4507640000000  0.4328150000000  0.4784930000000 1.0
C      1  0.4831470000000  0.4914660000000  0.5256450000000 1.0
C      1  0.4656860000000  0.5694920000000  0.5339610000000 1.0
C      1  0.5163580000000  0.5013340000000  0.4900010000000 1.0
C      1  0.5427250000000  0.4344630000000  0.4947360000000 1.0
C      1  0.4448560000000  0.4040640000000  0.5240310000000 1.0
C      1  0.5220810000000  0.5104370000000  0.4603570000000 1.0
C      1  0.4514130000000  0.5335580000000  0.5239400000000 1.0
C      1  0.6060730000000  0.4973420000000  0.4611630000000 1.0
C      1  0.5289490000000  0.5917040000000  0.4832950000000 1.0
C      1  0.4351750000000  0.5347670000000  0.4436890000000 1.0
C      1  0.4964160000000  0.5846660000000  0.5379980000000 1.0
C      1  0.5819670000000  0.4506640000000  0.5155420000000 1.0
C      1  0.5654240000000  0.4625100000000  0.5342810000000 1.0
END
