TITL C-2778430-5657-1236 -0.00135524194103645 125000 -473.485528173463 0 0 82 (C1) n - 1
REM
REM in /home/nfs/bkarasulu/CARBON/AIRSS/Generating-Clusters/REBO/Only-C1/SD-CG/HFTN-CG
REM
REM
REM
REM
REM
REM ./C.cell (11c1c37f851c82e70ff6c80c92926a4b)
REM
REM compiler GCC version 9.2.1 20190827 (Red Hat 9.2.1-1)
REM options -cpp -mtune=generic -march=x86-64 -g -O0 -fpre-include=/usr/include/finclude/math-vector-fortran.h
REM seed -969071764 870321082 -1321052309 -1256957456 2133107895 193255804 -640724813 -126126246 483264024 -1467051772 1824152999 -1296593515 849515973 -1634109625 2103870724 -276177364 -1441738733 729567335 550372896 70153055 1687422684 976608362 1090128605 -33872811 873860809 -331432361 1289032523 496899937 -1966797651 -1798888002 1120570802 1492578673 -1076579499
REM
CELL 1.54180   50.00000   50.00000   50.00000   90.00000   90.00000   90.00000
LATT -1
SFAC C  
C      1  0.4941740000000  0.5502730000000  0.5623900000000 1.0
C      1  0.4894110000000  0.4227490000000  0.5114440000000 1.0
C      1  0.4438610000000  0.4399210000000  0.4839330000000 1.0
C      1  0.5445560000000  0.5208330000000  0.4251720000000 1.0
C      1  0.5749240000000  0.5202670000000  0.5416040000000 1.0
C      1  0.5150300000000  0.5048900000000  0.5093880000000 1.0
C      1  0.5126750000000  0.4590260000000  0.4895740000000 1.0
C      1  0.4502280000000  0.4903020000000  0.4842290000000 1.0
C      1  0.5334060000000  0.4377470000000  0.4948000000000 1.0
C      1  0.4607130000000  0.5035880000000  0.4355320000000 1.0
C      1  0.5000950000000  0.4121210000000  0.5572630000000 1.0
C      1  0.4391080000000  0.5684420000000  0.4943160000000 1.0
C      1  0.4217760000000  0.4956620000000  0.4976670000000 1.0
C      1  0.4262410000000  0.5222560000000  0.4851880000000 1.0
C      1  0.5299790000000  0.4949300000000  0.4257720000000 1.0
C      1  0.4629930000000  0.4635460000000  0.4991300000000 1.0
C      1  0.4840090000000  0.4322540000000  0.5671080000000 1.0
C      1  0.4337190000000  0.4537880000000  0.5125490000000 1.0
C      1  0.4723690000000  0.5001810000000  0.5781430000000 1.0
C      1  0.4659700000000  0.5195800000000  0.4864520000000 1.0
C      1  0.5153770000000  0.5484220000000  0.4789900000000 1.0
C      1  0.5314810000000  0.4585930000000  0.5383450000000 1.0
C      1  0.5172320000000  0.5779160000000  0.4712130000000 1.0
C      1  0.5604780000000  0.4985300000000  0.4622600000000 1.0
C      1  0.5647630000000  0.5421090000000  0.5175270000000 1.0
C      1  0.4631140000000  0.4822810000000  0.5547230000000 1.0
C      1  0.4878090000000  0.4558520000000  0.4377240000000 1.0
C      1  0.4892190000000  0.4542870000000  0.5091130000000 1.0
C      1  0.5376060000000  0.5326340000000  0.5358570000000 1.0
C      1  0.5133030000000  0.4435280000000  0.4522050000000 1.0
C      1  0.5445830000000  0.5452390000000  0.4436730000000 1.0
C      1  0.5137330000000  0.4818770000000  0.4740570000000 1.0
C      1  0.5634980000000  0.4634520000000  0.4905770000000 1.0
C      1  0.4677350000000  0.5789420000000  0.4799020000000 1.0
C      1  0.4465350000000  0.5204910000000  0.4582920000000 1.0
C      1  0.5307590000000  0.5751020000000  0.5127050000000 1.0
C      1  0.4709440000000  0.5480820000000  0.5765330000000 1.0
C      1  0.5595330000000  0.4581270000000  0.5173230000000 1.0
C      1  0.5492310000000  0.5115340000000  0.5581670000000 1.0
C      1  0.5014450000000  0.4671200000000  0.5359970000000 1.0
C      1  0.5703040000000  0.4653020000000  0.5436060000000 1.0
C      1  0.5323380000000  0.5004690000000  0.4651370000000 1.0
C      1  0.4737240000000  0.5485620000000  0.4941240000000 1.0
C      1  0.5229650000000  0.5366670000000  0.5049930000000 1.0
C      1  0.4853470000000  0.4920920000000  0.4652140000000 1.0
C      1  0.5323940000000  0.4301380000000  0.5228020000000 1.0
C      1  0.4982860000000  0.4984470000000  0.5366930000000 1.0
C      1  0.4665100000000  0.5010550000000  0.5262380000000 1.0
C      1  0.5094460000000  0.4141100000000  0.5304360000000 1.0
C      1  0.4833310000000  0.4802220000000  0.4248110000000 1.0
C      1  0.4797650000000  0.5269750000000  0.4208140000000 1.0
C      1  0.5091120000000  0.5694760000000  0.5231640000000 1.0
C      1  0.5543600000000  0.5636570000000  0.4943170000000 1.0
C      1  0.5455820000000  0.5112190000000  0.5011210000000 1.0
C      1  0.5390530000000  0.4717570000000  0.4381500000000 1.0
C      1  0.4587870000000  0.4763720000000  0.4560210000000 1.0
C      1  0.4799120000000  0.4565090000000  0.5562950000000 1.0
C      1  0.4541790000000  0.5327350000000  0.5250820000000 1.0
C      1  0.5063110000000  0.5297800000000  0.5405210000000 1.0
C      1  0.4935390000000  0.5929560000000  0.4725020000000 1.0
C      1  0.4897690000000  0.4262810000000  0.4635180000000 1.0
C      1  0.5200190000000  0.5280530000000  0.4559200000000 1.0
C      1  0.4564040000000  0.5238030000000  0.5743720000000 1.0
C      1  0.4213120000000  0.4788430000000  0.5211960000000 1.0
C      1  0.5435420000000  0.4519290000000  0.4654090000000 1.0
C      1  0.4324860000000  0.4910420000000  0.5446100000000 1.0
C      1  0.5004740000000  0.5067160000000  0.4380550000000 1.0
C      1  0.5250900000000  0.4979500000000  0.5773480000000 1.0
C      1  0.5744310000000  0.4889130000000  0.4849330000000 1.0
C      1  0.5466410000000  0.4786160000000  0.5608620000000 1.0
C      1  0.4997390000000  0.4993280000000  0.5844930000000 1.0
C      1  0.5540530000000  0.5334070000000  0.4802790000000 1.0
C      1  0.4865490000000  0.4975900000000  0.4987350000000 1.0
C      1  0.4578280000000  0.5508180000000  0.4637210000000 1.0
C      1  0.4882780000000  0.4101170000000  0.4862960000000 1.0
C      1  0.4790410000000  0.5477290000000  0.4056260000000 1.0
C      1  0.4841420000000  0.5488620000000  0.5237200000000 1.0
C      1  0.4352290000000  0.5426670000000  0.5031440000000 1.0
C      1  0.5458010000000  0.5677070000000  0.4616240000000 1.0
C      1  0.4406090000000  0.5195290000000  0.5504420000000 1.0
C      1  0.4624180000000  0.4442830000000  0.4575230000000 1.0
C      1  0.5772810000000  0.5108420000000  0.5093000000000 1.0
END
