TITL C-2778431-5191-268 -1.28634382813332e-08 125000 -68.4009233446774 0 0 13 (Cs) n - 1
REM
REM in /home/nfs/bkarasulu/CARBON/AIRSS/Generating-Clusters/REBO/Only-C1/SD-CG/HFTN-CG
REM
REM
REM
REM
REM
REM ./C.cell (11c1c37f851c82e70ff6c80c92926a4b)
REM
REM compiler GCC version 9.2.1 20190827 (Red Hat 9.2.1-1)
REM options -cpp -mtune=generic -march=x86-64 -g -O0 -fpre-include=/usr/include/finclude/math-vector-fortran.h
REM seed 2100026383 1029978122 -330410792 -1619152581 -1889679617 -1797699863 497169282 -1185010167 -1607588442 1401537913 1352425194 -956907349 -1914433430 432580383 31132902 -875741268 -1528646421 221600499 -804995597 -155024566 1534215106 -1423803794 -1521126827 -1229538985 -1765462219 1028896038 394762415 1897293342 1560762823 -1845842514 -896710792 855361530 712703046
REM
CELL 1.54180   50.00000   50.00000   50.00000   90.00000   90.00000   90.00000
LATT -1
SFAC C  
C      1  0.5014010000000  0.4258710000000  0.4918630000000 1.0
C      1  0.4979320000000  0.5376420000000  0.4659560000000 1.0
C      1  0.5100740000000  0.5230960000000  0.5150400000000 1.0
C      1  0.5096120000000  0.5462680000000  0.4916940000000 1.0
C      1  0.4621740000000  0.5336670000000  0.4960120000000 1.0
C      1  0.4969700000000  0.4798230000000  0.4937260000000 1.0
C      1  0.4843190000000  0.5434560000000  0.5129530000000 1.0
C      1  0.4992570000000  0.4519750000000  0.4927640000000 1.0
C      1  0.4800450000000  0.4935250000000  0.4754020000000 1.0
C      1  0.4740570000000  0.5211860000000  0.4719370000000 1.0
C      1  0.5438920000000  0.4679250000000  0.5479770000000 1.0
C      1  0.5284040000000  0.4808700000000  0.5312630000000 1.0
C      1  0.5118630000000  0.4946960000000  0.5134120000000 1.0
END
