TITL C-2778437-8639-626 -0.00291319482808837 125000 -1055.37384890262 0 0 181 (C1) n - 1
REM
REM in /home/nfs/bkarasulu/CARBON/AIRSS/Generating-Clusters/REBO/Only-C1/SD-CG/HFTN-CG
REM
REM
REM
REM
REM
REM ./C.cell (11c1c37f851c82e70ff6c80c92926a4b)
REM
REM compiler GCC version 9.2.1 20190827 (Red Hat 9.2.1-1)
REM options -cpp -mtune=generic -march=x86-64 -g -O0 -fpre-include=/usr/include/finclude/math-vector-fortran.h
REM seed -904145930 -532874370 -298364628 1100976191 -1859670675 1760061969 -1614256939 880503404 1694221222 -1682325274 753180202 1209245790 -522518000 -617234943 -366837305 282169695 2058357691 1688781048 1215793186 1217901279 424018299 827063278 207103815 1729929945 237628121 2033658429 -1289986447 -1278989397 -1676101102 -596183309 1957881762 1583645402 1685624511
REM
CELL 1.54180   50.00000   50.00000   50.00000   90.00000   90.00000   90.00000
LATT -1
SFAC C  
C      1  0.5154330000000  0.5038780000000  0.5869770000000 1.0
C      1  0.6002910000000  0.5005260000000  0.5249030000000 1.0
C      1  0.5204400000000  0.5575440000000  0.5017200000000 1.0
C      1  0.5437900000000  0.5412260000000  0.5827150000000 1.0
C      1  0.4783310000000  0.4201350000000  0.5403590000000 1.0
C      1  0.4839100000000  0.4805140000000  0.3919540000000 1.0
C      1  0.4438920000000  0.5826740000000  0.5207110000000 1.0
C      1  0.5022500000000  0.5438390000000  0.6123720000000 1.0
C      1  0.4395130000000  0.4924060000000  0.4809150000000 1.0
C      1  0.4174980000000  0.5672970000000  0.5059960000000 1.0
C      1  0.5024050000000  0.4019820000000  0.4464270000000 1.0
C      1  0.4470920000000  0.4110270000000  0.5452860000000 1.0
C      1  0.4194700000000  0.4497390000000  0.4705190000000 1.0
C      1  0.4778010000000  0.4364200000000  0.5885840000000 1.0
C      1  0.5545790000000  0.5528880000000  0.5016670000000 1.0
C      1  0.4910840000000  0.6029340000000  0.5470660000000 1.0
C      1  0.5519040000000  0.5093970000000  0.4468450000000 1.0
C      1  0.5163340000000  0.5600560000000  0.5898050000000 1.0
C      1  0.4432950000000  0.4735190000000  0.5602070000000 1.0
C      1  0.4798200000000  0.4995450000000  0.5392100000000 1.0
C      1  0.5117650000000  0.5318160000000  0.5515970000000 1.0
C      1  0.4280810000000  0.4366870000000  0.5576660000000 1.0
C      1  0.5825350000000  0.5069450000000  0.4539320000000 1.0
C      1  0.5520840000000  0.4773070000000  0.4073480000000 1.0
C      1  0.5418010000000  0.4485770000000  0.5839310000000 1.0
C      1  0.4060850000000  0.4593640000000  0.5629560000000 1.0
C      1  0.4615570000000  0.5474930000000  0.5261670000000 1.0
C      1  0.5731360000000  0.4574650000000  0.5355900000000 1.0
C      1  0.4472400000000  0.4898870000000  0.4546900000000 1.0
C      1  0.5465240000000  0.5326080000000  0.5497260000000 1.0
C      1  0.5159850000000  0.4267270000000  0.4641460000000 1.0
C      1  0.5380610000000  0.5050190000000  0.3931880000000 1.0
C      1  0.5973630000000  0.4613640000000  0.4523330000000 1.0
C      1  0.4551670000000  0.5724540000000  0.4723930000000 1.0
C      1  0.4969790000000  0.4028210000000  0.5486170000000 1.0
C      1  0.5710510000000  0.4349650000000  0.5864050000000 1.0
C      1  0.4295820000000  0.5206160000000  0.5778940000000 1.0
C      1  0.4752860000000  0.5337700000000  0.6077780000000 1.0
C      1  0.4408710000000  0.5111890000000  0.5078460000000 1.0
C      1  0.4993700000000  0.6006400000000  0.4591280000000 1.0
C      1  0.4276560000000  0.5637350000000  0.4737420000000 1.0
C      1  0.3981660000000  0.5122660000000  0.4385260000000 1.0
C      1  0.5843770000000  0.4976700000000  0.4830000000000 1.0
C      1  0.5067350000000  0.4799320000000  0.4246600000000 1.0
C      1  0.5103440000000  0.4634560000000  0.4835420000000 1.0
C      1  0.4593340000000  0.4772180000000  0.4984080000000 1.0
C      1  0.4778510000000  0.5492400000000  0.4672440000000 1.0
C      1  0.4780020000000  0.4233660000000  0.4526930000000 1.0
C      1  0.5633790000000  0.4709320000000  0.4833730000000 1.0
C      1  0.4553630000000  0.5257980000000  0.5568740000000 1.0
C      1  0.5900610000000  0.5096880000000  0.5558420000000 1.0
C      1  0.4349940000000  0.4420060000000  0.5249140000000 1.0
C      1  0.4939850000000  0.5442800000000  0.5290870000000 1.0
C      1  0.3989370000000  0.4828390000000  0.5589220000000 1.0
C      1  0.5310280000000  0.4502820000000  0.4082660000000 1.0
C      1  0.5017140000000  0.4679570000000  0.5592190000000 1.0
C      1  0.5718170000000  0.5257000000000  0.4206890000000 1.0
C      1  0.5686100000000  0.5633360000000  0.4468540000000 1.0
C      1  0.5044990000000  0.6062030000000  0.5156160000000 1.0
C      1  0.4566540000000  0.4260680000000  0.5732520000000 1.0
C      1  0.4899300000000  0.5303020000000  0.4130440000000 1.0
C      1  0.5223260000000  0.5631890000000  0.5571170000000 1.0
C      1  0.5176660000000  0.5043350000000  0.4167420000000 1.0
C      1  0.5102260000000  0.5778600000000  0.4489840000000 1.0
C      1  0.5367060000000  0.4324330000000  0.4894140000000 1.0
C      1  0.5543540000000  0.5755470000000  0.4688870000000 1.0
C      1  0.4515650000000  0.5936510000000  0.4245810000000 1.0
C      1  0.4717350000000  0.5062250000000  0.3973330000000 1.0
C      1  0.5524780000000  0.5114900000000  0.5971440000000 1.0
C      1  0.5458180000000  0.4885760000000  0.5504660000000 1.0
C      1  0.5389350000000  0.5285610000000  0.4252960000000 1.0
C      1  0.4693470000000  0.5163490000000  0.4354080000000 1.0
C      1  0.5954110000000  0.4845180000000  0.4364750000000 1.0
C      1  0.5117190000000  0.5628630000000  0.4222400000000 1.0
C      1  0.4499740000000  0.4140930000000  0.5128920000000 1.0
C      1  0.5690090000000  0.4606830000000  0.5667710000000 1.0
C      1  0.5139340000000  0.4389270000000  0.5460120000000 1.0
C      1  0.4866990000000  0.6087230000000  0.4886790000000 1.0
C      1  0.5745920000000  0.4186440000000  0.4624080000000 1.0
C      1  0.4442700000000  0.5036180000000  0.4172790000000 1.0
C      1  0.4981300000000  0.3890040000000  0.5063150000000 1.0
C      1  0.4797120000000  0.4484630000000  0.5279200000000 1.0
C      1  0.4711440000000  0.4709280000000  0.5494780000000 1.0
C      1  0.5152400000000  0.3858550000000  0.5567110000000 1.0
C      1  0.5201160000000  0.4254470000000  0.4296800000000 1.0
C      1  0.5381420000000  0.5788340000000  0.5367720000000 1.0
C      1  0.4300970000000  0.5521160000000  0.5725800000000 1.0
C      1  0.5825640000000  0.4472480000000  0.4981220000000 1.0
C      1  0.5163060000000  0.4985920000000  0.5552370000000 1.0
C      1  0.4421730000000  0.4671900000000  0.5929660000000 1.0
C      1  0.5745130000000  0.4200020000000  0.4900160000000 1.0
C      1  0.4023780000000  0.5248990000000  0.4696410000000 1.0
C      1  0.4792190000000  0.4886550000000  0.4520540000000 1.0
C      1  0.5035180000000  0.4574530000000  0.3912570000000 1.0
C      1  0.5916730000000  0.5477390000000  0.5219320000000 1.0
C      1  0.4068680000000  0.5431660000000  0.5285510000000 1.0
C      1  0.5513780000000  0.5598370000000  0.4244050000000 1.0
C      1  0.5402620000000  0.4576910000000  0.4710070000000 1.0
C      1  0.4729880000000  0.5834550000000  0.5064370000000 1.0
C      1  0.4612650000000  0.5997940000000  0.4708270000000 1.0
C      1  0.5555300000000  0.5920470000000  0.4946850000000 1.0
C      1  0.5687480000000  0.4936110000000  0.5732250000000 1.0
C      1  0.4225280000000  0.5415340000000  0.4503440000000 1.0
C      1  0.5072560000000  0.4658870000000  0.5927510000000 1.0
C      1  0.5362500000000  0.5351370000000  0.5209270000000 1.0
C      1  0.5107130000000  0.4351990000000  0.5797150000000 1.0
C      1  0.5502210000000  0.4396850000000  0.5200740000000 1.0
C      1  0.4769190000000  0.5066240000000  0.5701610000000 1.0
C      1  0.5890280000000  0.5540280000000  0.4828590000000 1.0
C      1  0.5246690000000  0.3888070000000  0.5116230000000 1.0
C      1  0.4628090000000  0.5847030000000  0.5468380000000 1.0
C      1  0.4587360000000  0.4110110000000  0.4742170000000 1.0
C      1  0.5901980000000  0.5381250000000  0.4470030000000 1.0
C      1  0.5315140000000  0.5569640000000  0.3986650000000 1.0
C      1  0.5049330000000  0.4908160000000  0.4706230000000 1.0
C      1  0.4883950000000  0.4556280000000  0.4498410000000 1.0
C      1  0.5762960000000  0.4427380000000  0.4471090000000 1.0
C      1  0.4541360000000  0.5452550000000  0.4431930000000 1.0
C      1  0.4772920000000  0.5573480000000  0.4028470000000 1.0
C      1  0.4541880000000  0.6109420000000  0.4458760000000 1.0
C      1  0.4328380000000  0.5578140000000  0.5416230000000 1.0
C      1  0.5159670000000  0.5307720000000  0.4727910000000 1.0
C      1  0.4951220000000  0.5765230000000  0.5684540000000 1.0
C      1  0.5692710000000  0.4902600000000  0.5280240000000 1.0
C      1  0.5224230000000  0.5225570000000  0.6105080000000 1.0
C      1  0.5381780000000  0.5174940000000  0.4937490000000 1.0
C      1  0.4971590000000  0.5756120000000  0.5286430000000 1.0
C      1  0.4671210000000  0.4585880000000  0.6035730000000 1.0
C      1  0.5802810000000  0.5747340000000  0.5059660000000 1.0
C      1  0.6004260000000  0.4680530000000  0.5176300000000 1.0
C      1  0.4251890000000  0.4503010000000  0.4418820000000 1.0
C      1  0.4987540000000  0.5113560000000  0.4939350000000 1.0
C      1  0.4682260000000  0.5571200000000  0.5625350000000 1.0
C      1  0.4970350000000  0.4348350000000  0.4916780000000 1.0
C      1  0.5361850000000  0.4683180000000  0.5248800000000 1.0
C      1  0.4739310000000  0.3973550000000  0.4994320000000 1.0
C      1  0.4391610000000  0.4275340000000  0.4318660000000 1.0
C      1  0.4957250000000  0.4326540000000  0.4080730000000 1.0
C      1  0.4396880000000  0.4055610000000  0.4487330000000 1.0
C      1  0.4209360000000  0.5231350000000  0.4216530000000 1.0
C      1  0.5527720000000  0.4547150000000  0.4331520000000 1.0
C      1  0.5500880000000  0.4906590000000  0.5033070000000 1.0
C      1  0.4333900000000  0.4758420000000  0.4323940000000 1.0
C      1  0.4772060000000  0.5061030000000  0.5981670000000 1.0
C      1  0.4718510000000  0.5041030000000  0.5095040000000 1.0
C      1  0.4020490000000  0.5141560000000  0.5460520000000 1.0
C      1  0.4072880000000  0.5299960000000  0.4970530000000 1.0
C      1  0.5694150000000  0.5262330000000  0.4863350000000 1.0
C      1  0.4081150000000  0.4806690000000  0.5085430000000 1.0
C      1  0.4341410000000  0.5059240000000  0.5387930000000 1.0
C      1  0.6030520000000  0.4691390000000  0.4834500000000 1.0
C      1  0.4662310000000  0.4476810000000  0.4983150000000 1.0
C      1  0.3981120000000  0.4923460000000  0.4635390000000 1.0
C      1  0.6076050000000  0.5293420000000  0.4753080000000 1.0
C      1  0.5006790000000  0.5393530000000  0.4442900000000 1.0
C      1  0.5376110000000  0.5323610000000  0.3836540000000 1.0
C      1  0.4765860000000  0.4656810000000  0.4195600000000 1.0
C      1  0.5347400000000  0.5948450000000  0.5143650000000 1.0
C      1  0.5085360000000  0.4970680000000  0.5225120000000 1.0
C      1  0.5124320000000  0.4268350000000  0.5206740000000 1.0
C      1  0.4584900000000  0.5666970000000  0.4207480000000 1.0
C      1  0.6037810000000  0.5255660000000  0.5067060000000 1.0
C      1  0.4854380000000  0.4808050000000  0.6087290000000 1.0
C      1  0.3983250000000  0.5066190000000  0.5151110000000 1.0
C      1  0.5263130000000  0.5629930000000  0.4694930000000 1.0
C      1  0.4286560000000  0.4726950000000  0.5309340000000 1.0
C      1  0.5799960000000  0.5386350000000  0.5482150000000 1.0
C      1  0.5319770000000  0.4965250000000  0.4603510000000 1.0
C      1  0.5689860000000  0.5555790000000  0.5732130000000 1.0
C      1  0.5380360000000  0.4802250000000  0.5958660000000 1.0
C      1  0.4052950000000  0.4718790000000  0.4814750000000 1.0
C      1  0.4876770000000  0.5543740000000  0.4965920000000 1.0
C      1  0.4286350000000  0.4939550000000  0.5831930000000 1.0
C      1  0.5484450000000  0.4078870000000  0.5078280000000 1.0
C      1  0.5777370000000  0.4955200000000  0.4149020000000 1.0
C      1  0.4382730000000  0.4337970000000  0.4877590000000 1.0
C      1  0.5216790000000  0.4613960000000  0.4453600000000 1.0
C      1  0.4564430000000  0.5489240000000  0.5920080000000 1.0
C      1  0.4676680000000  0.4346000000000  0.4229290000000 1.0
C      1  0.4387370000000  0.5416550000000  0.5047580000000 1.0
C      1  0.5060020000000  0.4657700000000  0.5152860000000 1.0
END
