TITL C-2778424-3986-16 -0.00887973039454296 125000 -294.025244116888 0 0 52 (C1) n - 1
REM
REM in /home/nfs/bkarasulu/CARBON/AIRSS/Generating-Clusters/REBO/Only-C1/SD-CG/HFTN-CG
REM
REM
REM
REM
REM
REM ./C.cell (11c1c37f851c82e70ff6c80c92926a4b)
REM
REM compiler GCC version 9.2.1 20190827 (Red Hat 9.2.1-1)
REM options -cpp -mtune=generic -march=x86-64 -g -O0 -fpre-include=/usr/include/finclude/math-vector-fortran.h
REM seed -1343179642 -778994561 -1462712469 136202304 -1937285754 -513816990 959009895 1344942263 296657586 1152902485 -1031088708 -996208955 -714123066 737074082 1907084105 1041902581 851825879 1580010294 -1631843258 2144741826 365656923 1267479098 1873786909 198545620 1213201638 328955554 -2045174231 916892043 -920090270 -252985790 211701583 134227855 -840673201
REM
CELL 1.54180   50.00000   50.00000   50.00000   90.00000   90.00000   90.00000
LATT -1
SFAC C  
C      1  0.4781660000000  0.4966550000000  0.4383330000000 1.0
C      1  0.5156960000000  0.4482350000000  0.5236130000000 1.0
C      1  0.4136790000000  0.5597980000000  0.5282580000000 1.0
C      1  0.5800510000000  0.5108130000000  0.4761370000000 1.0
C      1  0.5571230000000  0.4774070000000  0.4814600000000 1.0
C      1  0.5373450000000  0.4518900000000  0.5420900000000 1.0
C      1  0.5536970000000  0.4795560000000  0.5340300000000 1.0
C      1  0.5069380000000  0.5369470000000  0.4420890000000 1.0
C      1  0.4869470000000  0.5195560000000  0.4566430000000 1.0
C      1  0.4597230000000  0.4188770000000  0.6115800000000 1.0
C      1  0.5439260000000  0.5445080000000  0.4734870000000 1.0
C      1  0.4263570000000  0.5371480000000  0.5246450000000 1.0
C      1  0.4761490000000  0.5632490000000  0.4868880000000 1.0
C      1  0.5414700000000  0.4895620000000  0.5045270000000 1.0
C      1  0.5219640000000  0.4402560000000  0.4966210000000 1.0
C      1  0.4775960000000  0.4821520000000  0.5363960000000 1.0
C      1  0.5604500000000  0.4815180000000  0.4572380000000 1.0
C      1  0.5109070000000  0.4902160000000  0.5011630000000 1.0
C      1  0.4575600000000  0.4633080000000  0.5443680000000 1.0
C      1  0.5703200000000  0.5332740000000  0.5269780000000 1.0
C      1  0.4995640000000  0.4722210000000  0.5230940000000 1.0
C      1  0.4961680000000  0.4600270000000  0.4097730000000 1.0
C      1  0.4646520000000  0.4810260000000  0.4724780000000 1.0
C      1  0.4975720000000  0.4785600000000  0.4300730000000 1.0
C      1  0.5017460000000  0.5227650000000  0.5225210000000 1.0
C      1  0.4590200000000  0.4333240000000  0.5897260000000 1.0
C      1  0.4686420000000  0.5359280000000  0.5051230000000 1.0
C      1  0.5244900000000  0.5228480000000  0.4262190000000 1.0
C      1  0.5413540000000  0.5027320000000  0.4421340000000 1.0
C      1  0.4627400000000  0.5359840000000  0.4723260000000 1.0
C      1  0.4475100000000  0.4687360000000  0.4936030000000 1.0
C      1  0.4583050000000  0.4480040000000  0.5675180000000 1.0
C      1  0.5283140000000  0.5593730000000  0.4973990000000 1.0
C      1  0.4397190000000  0.5132760000000  0.5208370000000 1.0
C      1  0.4380890000000  0.4607160000000  0.5235650000000 1.0
C      1  0.4923990000000  0.5161330000000  0.4901450000000 1.0
C      1  0.4706820000000  0.5108190000000  0.5276860000000 1.0
C      1  0.5565910000000  0.5205330000000  0.4651570000000 1.0
C      1  0.4290090000000  0.4890830000000  0.5108480000000 1.0
C      1  0.5169290000000  0.5223460000000  0.5524160000000 1.0
C      1  0.5189970000000  0.4558060000000  0.4748870000000 1.0
C      1  0.4495010000000  0.4859730000000  0.4418600000000 1.0
C      1  0.5232480000000  0.5474040000000  0.5223630000000 1.0
C      1  0.4488890000000  0.5099580000000  0.4637190000000 1.0
C      1  0.5214860000000  0.4998140000000  0.5683080000000 1.0
C      1  0.5027600000000  0.5707040000000  0.4815200000000 1.0
C      1  0.4953860000000  0.4802990000000  0.4727620000000 1.0
C      1  0.5362590000000  0.4771680000000  0.5618750000000 1.0
C      1  0.5342700000000  0.5481990000000  0.5510270000000 1.0
C      1  0.5596290000000  0.5102980000000  0.5234070000000 1.0
C      1  0.5212210000000  0.4788310000000  0.4500500000000 1.0
C      1  0.5187940000000  0.5561850000000  0.4590330000000 1.0
END
