TITL C-2778429-3646-1318 0.0010020829487529 125000 -1114.85047629857 0 0 192 (C1) n - 1
REM
REM in /home/nfs/bkarasulu/CARBON/AIRSS/Generating-Clusters/REBO/Only-C1/SD-CG/HFTN-CG
REM
REM
REM
REM
REM
REM ./C.cell (11c1c37f851c82e70ff6c80c92926a4b)
REM
REM compiler GCC version 9.2.1 20190827 (Red Hat 9.2.1-1)
REM options -cpp -mtune=generic -march=x86-64 -g -O0 -fpre-include=/usr/include/finclude/math-vector-fortran.h
REM seed -2147389521 1404266633 -1917148116 1743340662 -2014195641 -1840328808 -1321912720 897866943 -170413934 -409759109 2057928691 1436759881 371237815 -1108285943 853652628 794736415 -1673346691 -1042463005 -1375710847 901114406 121144164 371889730 -1027479762 -1575520177 -76082002 -308185058 -188138924 593791141 1639900068 1818669032 1616965215 1751417106 367586232
REM
CELL 1.54180   50.00000   50.00000   50.00000   90.00000   90.00000   90.00000
LATT -1
SFAC C  
C      1  0.4638500000000  0.4779980000000  0.5463830000000 1.0
C      1  0.4753760000000  0.4989490000000  0.5225250000000 1.0
C      1  0.5405280000000  0.5366110000000  0.4511390000000 1.0
C      1  0.4907340000000  0.4135070000000  0.4678090000000 1.0
C      1  0.4822070000000  0.3957940000000  0.5317160000000 1.0
C      1  0.5309180000000  0.5939920000000  0.4669700000000 1.0
C      1  0.5499000000000  0.5034840000000  0.5661100000000 1.0
C      1  0.4458620000000  0.5151230000000  0.4665380000000 1.0
C      1  0.5629370000000  0.5317860000000  0.5105010000000 1.0
C      1  0.4865780000000  0.4860600000000  0.3984740000000 1.0
C      1  0.5522050000000  0.4259770000000  0.4850540000000 1.0
C      1  0.5518890000000  0.4884670000000  0.5424720000000 1.0
C      1  0.4980840000000  0.5239880000000  0.5264190000000 1.0
C      1  0.4788480000000  0.4361750000000  0.4061840000000 1.0
C      1  0.5005180000000  0.5636990000000  0.4160020000000 1.0
C      1  0.4066980000000  0.5213450000000  0.4635320000000 1.0
C      1  0.4874640000000  0.4611910000000  0.4763500000000 1.0
C      1  0.5549880000000  0.4191540000000  0.4556130000000 1.0
C      1  0.5802550000000  0.4199550000000  0.4463300000000 1.0
C      1  0.4783310000000  0.5176210000000  0.3984090000000 1.0
C      1  0.5235600000000  0.4565020000000  0.5679660000000 1.0
C      1  0.5927980000000  0.5526750000000  0.4855870000000 1.0
C      1  0.4857840000000  0.4318990000000  0.5914560000000 1.0
C      1  0.5656300000000  0.5213490000000  0.4781840000000 1.0
C      1  0.5262680000000  0.4782480000000  0.4695620000000 1.0
C      1  0.4848120000000  0.4606220000000  0.5732600000000 1.0
C      1  0.4899860000000  0.4670810000000  0.6233190000000 1.0
C      1  0.5989410000000  0.4365970000000  0.4596070000000 1.0
C      1  0.4013890000000  0.5550170000000  0.4773310000000 1.0
C      1  0.4043440000000  0.4849370000000  0.4330740000000 1.0
C      1  0.4937410000000  0.5789980000000  0.5638240000000 1.0
C      1  0.4625730000000  0.5912660000000  0.4536770000000 1.0
C      1  0.5091820000000  0.4873240000000  0.3766370000000 1.0
C      1  0.5136770000000  0.5596040000000  0.5018450000000 1.0
C      1  0.5291960000000  0.5304580000000  0.3938360000000 1.0
C      1  0.4751730000000  0.4999500000000  0.4375040000000 1.0
C      1  0.5851910000000  0.4288790000000  0.5324190000000 1.0
C      1  0.6188890000000  0.4917470000000  0.4840170000000 1.0
C      1  0.4736920000000  0.5537310000000  0.5609240000000 1.0
C      1  0.4777420000000  0.5350430000000  0.5028480000000 1.0
C      1  0.4419830000000  0.4894120000000  0.4048050000000 1.0
C      1  0.6040570000000  0.4784920000000  0.5521660000000 1.0
C      1  0.4274770000000  0.4672800000000  0.5185470000000 1.0
C      1  0.5750620000000  0.4904630000000  0.4753720000000 1.0
C      1  0.4768870000000  0.5227520000000  0.5675390000000 1.0
C      1  0.5123680000000  0.4904940000000  0.5105220000000 1.0
C      1  0.5109250000000  0.5385980000000  0.4366660000000 1.0
C      1  0.4279050000000  0.4325980000000  0.5376160000000 1.0
C      1  0.5167710000000  0.6076610000000  0.5293280000000 1.0
C      1  0.4957730000000  0.4266310000000  0.5101910000000 1.0
C      1  0.5309410000000  0.5493940000000  0.5848830000000 1.0
C      1  0.4695950000000  0.6062820000000  0.5266970000000 1.0
C      1  0.5540340000000  0.5475320000000  0.5523650000000 1.0
C      1  0.4546530000000  0.5068190000000  0.5557040000000 1.0
C      1  0.6039480000000  0.5171060000000  0.4680350000000 1.0
C      1  0.4677780000000  0.4243060000000  0.4309960000000 1.0
C      1  0.5333740000000  0.4261510000000  0.5717210000000 1.0
C      1  0.5046000000000  0.5840770000000  0.4860920000000 1.0
C      1  0.5118010000000  0.4434380000000  0.4847520000000 1.0
C      1  0.4219230000000  0.5466870000000  0.5574180000000 1.0
C      1  0.4354290000000  0.4631180000000  0.4210520000000 1.0
C      1  0.4809440000000  0.5483670000000  0.4471240000000 1.0
C      1  0.4208000000000  0.4958240000000  0.4528590000000 1.0
C      1  0.5427300000000  0.4061360000000  0.5093210000000 1.0
C      1  0.5340760000000  0.4342290000000  0.4252180000000 1.0
C      1  0.4665120000000  0.5481000000000  0.5300480000000 1.0
C      1  0.3855970000000  0.5100960000000  0.5218550000000 1.0
C      1  0.5808420000000  0.5624190000000  0.5388820000000 1.0
C      1  0.4064720000000  0.4580970000000  0.4626380000000 1.0
C      1  0.4946680000000  0.4387740000000  0.4444050000000 1.0
C      1  0.4426780000000  0.5037750000000  0.5243340000000 1.0
C      1  0.4114110000000  0.5199240000000  0.4931970000000 1.0
C      1  0.4951360000000  0.3867010000000  0.5123530000000 1.0
C      1  0.5673690000000  0.5611180000000  0.4347150000000 1.0
C      1  0.4230590000000  0.5154040000000  0.5635260000000 1.0
C      1  0.5280660000000  0.4715920000000  0.5418390000000 1.0
C      1  0.5819990000000  0.5128390000000  0.5826380000000 1.0
C      1  0.4232700000000  0.5749990000000  0.4946990000000 1.0
C      1  0.4673620000000  0.5082900000000  0.4863670000000 1.0
C      1  0.4904860000000  0.5151660000000  0.6148090000000 1.0
C      1  0.5253880000000  0.5728780000000  0.5627960000000 1.0
C      1  0.5524750000000  0.5623370000000  0.5107840000000 1.0
C      1  0.5442820000000  0.5815420000000  0.4466650000000 1.0
C      1  0.5475590000000  0.5482720000000  0.4100290000000 1.0
C      1  0.4567050000000  0.4076990000000  0.4685030000000 1.0
C      1  0.5476000000000  0.4852990000000  0.4926220000000 1.0
C      1  0.4431390000000  0.5701870000000  0.4262080000000 1.0
C      1  0.4784730000000  0.4892340000000  0.6125030000000 1.0
C      1  0.5627270000000  0.5375720000000  0.5822110000000 1.0
C      1  0.5480910000000  0.4872050000000  0.4308350000000 1.0
C      1  0.3850720000000  0.5382050000000  0.5026710000000 1.0
C      1  0.4542470000000  0.5387480000000  0.5963350000000 1.0
C      1  0.4689640000000  0.4787000000000  0.4550850000000 1.0
C      1  0.4637840000000  0.4629300000000  0.4020170000000 1.0
C      1  0.5562280000000  0.5818730000000  0.5511030000000 1.0
C      1  0.5237790000000  0.6084680000000  0.4970060000000 1.0
C      1  0.4127000000000  0.5475230000000  0.4457670000000 1.0
C      1  0.4989050000000  0.4658030000000  0.4234060000000 1.0
C      1  0.4473190000000  0.5733240000000  0.5276660000000 1.0
C      1  0.4923140000000  0.6009270000000  0.5411520000000 1.0
C      1  0.6009780000000  0.5244900000000  0.5012110000000 1.0
C      1  0.5698970000000  0.5226790000000  0.4440150000000 1.0
C      1  0.4786590000000  0.3852170000000  0.4561740000000 1.0
C      1  0.5002610000000  0.5583560000000  0.5902480000000 1.0
C      1  0.4654550000000  0.4206390000000  0.5052330000000 1.0
C      1  0.4753850000000  0.5760430000000  0.4280000000000 1.0
C      1  0.4025670000000  0.4714480000000  0.5494020000000 1.0
C      1  0.5318210000000  0.5024710000000  0.3869830000000 1.0
C      1  0.4408640000000  0.5127790000000  0.5924070000000 1.0
C      1  0.4240660000000  0.5439640000000  0.5078920000000 1.0
C      1  0.4019750000000  0.5010680000000  0.5465850000000 1.0
C      1  0.5279210000000  0.5220950000000  0.5686880000000 1.0
C      1  0.4871520000000  0.4681060000000  0.5157420000000 1.0
C      1  0.4466900000000  0.4581140000000  0.5382830000000 1.0
C      1  0.4442620000000  0.5605250000000  0.5763270000000 1.0
C      1  0.4414410000000  0.4103380000000  0.5258300000000 1.0
C      1  0.5118550000000  0.4243610000000  0.5975630000000 1.0
C      1  0.5847290000000  0.5745560000000  0.5104040000000 1.0
C      1  0.4029170000000  0.4450480000000  0.5178340000000 1.0
C      1  0.5384210000000  0.4714560000000  0.6012520000000 1.0
C      1  0.4012700000000  0.5640760000000  0.5466040000000 1.0
C      1  0.5568030000000  0.6006670000000  0.4992750000000 1.0
C      1  0.5022070000000  0.5071550000000  0.4285960000000 1.0
C      1  0.4498790000000  0.5162460000000  0.4033420000000 1.0
C      1  0.4627740000000  0.4280760000000  0.5693120000000 1.0
C      1  0.4405890000000  0.4554860000000  0.4830970000000 1.0
C      1  0.5882690000000  0.5314800000000  0.5323610000000 1.0
C      1  0.4595720000000  0.5266960000000  0.4405260000000 1.0
C      1  0.5244830000000  0.4307860000000  0.4567250000000 1.0
C      1  0.5465250000000  0.6011190000000  0.5288240000000 1.0
C      1  0.5191370000000  0.5335780000000  0.4938190000000 1.0
C      1  0.5973050000000  0.4961470000000  0.5171040000000 1.0
C      1  0.5306940000000  0.5702660000000  0.4224980000000 1.0
C      1  0.5760250000000  0.4142970000000  0.5041170000000 1.0
C      1  0.5389370000000  0.4423580000000  0.6017120000000 1.0
C      1  0.4784520000000  0.4238500000000  0.5425460000000 1.0
C      1  0.5947880000000  0.4389660000000  0.4892810000000 1.0
C      1  0.5706900000000  0.4907870000000  0.5248190000000 1.0
C      1  0.5509640000000  0.5520200000000  0.4781950000000 1.0
C      1  0.5246730000000  0.4425550000000  0.5294050000000 1.0
C      1  0.5390320000000  0.4159530000000  0.5416630000000 1.0
C      1  0.4392880000000  0.5482810000000  0.4673580000000 1.0
C      1  0.4549060000000  0.4876380000000  0.5961950000000 1.0
C      1  0.5385430000000  0.5117860000000  0.5078110000000 1.0
C      1  0.5710000000000  0.5790580000000  0.4799680000000 1.0
C      1  0.4964240000000  0.4915090000000  0.4811120000000 1.0
C      1  0.5968530000000  0.4881760000000  0.4512890000000 1.0
C      1  0.4506050000000  0.4587730000000  0.5786440000000 1.0
C      1  0.4668110000000  0.4508810000000  0.4972250000000 1.0
C      1  0.4384390000000  0.5345780000000  0.5320090000000 1.0
C      1  0.4939560000000  0.4510750000000  0.5416910000000 1.0
C      1  0.5133270000000  0.4043850000000  0.4919910000000 1.0
C      1  0.5275160000000  0.5048540000000  0.4498980000000 1.0
C      1  0.5587840000000  0.4898250000000  0.5929060000000 1.0
C      1  0.5793810000000  0.4759110000000  0.4250770000000 1.0
C      1  0.5232850000000  0.4877290000000  0.4140100000000 1.0
C      1  0.5271980000000  0.5661030000000  0.5292860000000 1.0
C      1  0.4360430000000  0.5393620000000  0.4222100000000 1.0
C      1  0.5020440000000  0.5061200000000  0.5738580000000 1.0
C      1  0.5233920000000  0.5367170000000  0.5413750000000 1.0
C      1  0.5905480000000  0.5454920000000  0.4542610000000 1.0
C      1  0.5567760000000  0.4690620000000  0.4573340000000 1.0
C      1  0.5674960000000  0.4190070000000  0.5523430000000 1.0
C      1  0.4197350000000  0.4607870000000  0.5675720000000 1.0
C      1  0.5729530000000  0.4532210000000  0.5114700000000 1.0
C      1  0.4215510000000  0.4941750000000  0.5030320000000 1.0
C      1  0.4029480000000  0.4704260000000  0.4871460000000 1.0
C      1  0.4335970000000  0.5795500000000  0.4548720000000 1.0
C      1  0.4389320000000  0.5824680000000  0.5525810000000 1.0
C      1  0.5944940000000  0.5068760000000  0.5525380000000 1.0
C      1  0.5080470000000  0.4788650000000  0.5876890000000 1.0
C      1  0.5999060000000  0.4590270000000  0.5317060000000 1.0
C      1  0.6099440000000  0.4671470000000  0.5005330000000 1.0
C      1  0.4432760000000  0.4251890000000  0.4466260000000 1.0
C      1  0.5587740000000  0.4492370000000  0.4296300000000 1.0
C      1  0.5000310000000  0.5366310000000  0.3983290000000 1.0
C      1  0.4372480000000  0.4071460000000  0.4928730000000 1.0
C      1  0.5404340000000  0.4531610000000  0.5011210000000 1.0
C      1  0.4747720000000  0.5837200000000  0.4813570000000 1.0
C      1  0.4523670000000  0.5911750000000  0.5017750000000 1.0
C      1  0.5105190000000  0.4380650000000  0.4079100000000 1.0
C      1  0.4705700000000  0.5526740000000  0.4774660000000 1.0
C      1  0.4212080000000  0.4353400000000  0.4920420000000 1.0
C      1  0.5800150000000  0.5088440000000  0.4216510000000 1.0
C      1  0.3997600000000  0.5649340000000  0.5175150000000 1.0
C      1  0.3890850000000  0.4763950000000  0.5179670000000 1.0
C      1  0.4424230000000  0.4755270000000  0.4641370000000 1.0
C      1  0.6093160000000  0.4589450000000  0.4478200000000 1.0
C      1  0.5091340000000  0.4973190000000  0.5435860000000 1.0
C      1  0.4821390000000  0.5399380000000  0.6032230000000 1.0
C      1  0.4253880000000  0.4470090000000  0.4419910000000 1.0
C      1  0.5071830000000  0.5208980000000  0.4720290000000 1.0
END
