TITL C-2778433-5640-1371 0.00459625404850382 125000 -457.948960672182 0 0 81 (C1) n - 1
REM
REM in /home/nfs/bkarasulu/CARBON/AIRSS/Generating-Clusters/REBO/Only-C1/SD-CG/HFTN-CG
REM
REM
REM
REM
REM
REM ./C.cell (11c1c37f851c82e70ff6c80c92926a4b)
REM
REM compiler GCC version 9.2.1 20190827 (Red Hat 9.2.1-1)
REM options -cpp -mtune=generic -march=x86-64 -g -O0 -fpre-include=/usr/include/finclude/math-vector-fortran.h
REM seed -757970137 675219207 603326785 -549144985 415025045 -411183380 756167467 1336502441 -99991041 1527976118 -1799000393 1096102026 -945970300 -2015893976 -162341319 -775278858 -461082088 271451400 1328578588 1835695062 623813018 -873652674 1761767033 981700079 -2093097533 -959515926 98753150 -78201373 -1639973145 -1144814228 801985626 -241855972 1003479466
REM
CELL 1.54180   50.00000   50.00000   50.00000   90.00000   90.00000   90.00000
LATT -1
SFAC C  
C      1  0.4588200000000  0.5230180000000  0.4403390000000 1.0
C      1  0.5067430000000  0.3866190000000  0.4992520000000 1.0
C      1  0.5374500000000  0.4264490000000  0.4974460000000 1.0
C      1  0.4721970000000  0.4572300000000  0.4239500000000 1.0
C      1  0.5200910000000  0.4714810000000  0.5757000000000 1.0
C      1  0.4467210000000  0.4870650000000  0.5094860000000 1.0
C      1  0.4643880000000  0.5052940000000  0.4900660000000 1.0
C      1  0.4536620000000  0.5075930000000  0.5690050000000 1.0
C      1  0.5121450000000  0.4136040000000  0.4980140000000 1.0
C      1  0.4138490000000  0.4797850000000  0.4844120000000 1.0
C      1  0.5097420000000  0.4608530000000  0.4545670000000 1.0
C      1  0.5099690000000  0.4856470000000  0.4348490000000 1.0
C      1  0.5099690000000  0.5143960000000  0.5448610000000 1.0
C      1  0.5016030000000  0.3609480000000  0.5004290000000 1.0
C      1  0.5475180000000  0.4327750000000  0.4715550000000 1.0
C      1  0.5534990000000  0.5418050000000  0.4571630000000 1.0
C      1  0.5785080000000  0.4968220000000  0.5197750000000 1.0
C      1  0.5369550000000  0.5180730000000  0.5744180000000 1.0
C      1  0.5464020000000  0.4763610000000  0.5367220000000 1.0
C      1  0.5310840000000  0.4908010000000  0.5577530000000 1.0
C      1  0.5579570000000  0.5516890000000  0.5049470000000 1.0
C      1  0.4712990000000  0.5253800000000  0.5471490000000 1.0
C      1  0.4927600000000  0.4997230000000  0.5685910000000 1.0
C      1  0.4924650000000  0.5200550000000  0.4946260000000 1.0
C      1  0.5163860000000  0.5721210000000  0.5170890000000 1.0
C      1  0.4610220000000  0.4620800000000  0.4941610000000 1.0
C      1  0.4203140000000  0.5022390000000  0.4677230000000 1.0
C      1  0.5571270000000  0.5818530000000  0.5423530000000 1.0
C      1  0.4126000000000  0.4877680000000  0.5131950000000 1.0
C      1  0.5671950000000  0.4666300000000  0.5117130000000 1.0
C      1  0.5293990000000  0.5051540000000  0.4223970000000 1.0
C      1  0.5343990000000  0.5633110000000  0.4641210000000 1.0
C      1  0.5728560000000  0.4814560000000  0.4834240000000 1.0
C      1  0.4974050000000  0.4974230000000  0.4641750000000 1.0
C      1  0.5639490000000  0.5123020000000  0.5370780000000 1.0
C      1  0.4903620000000  0.4350020000000  0.4948820000000 1.0
C      1  0.5393600000000  0.4572770000000  0.4597300000000 1.0
C      1  0.5367400000000  0.5418780000000  0.5622720000000 1.0
C      1  0.4863720000000  0.5725530000000  0.5276830000000 1.0
C      1  0.4577880000000  0.5571060000000  0.5271110000000 1.0
C      1  0.4592700000000  0.4523230000000  0.5438820000000 1.0
C      1  0.4693670000000  0.5593370000000  0.4741480000000 1.0
C      1  0.4588440000000  0.5246740000000  0.5155100000000 1.0
C      1  0.4976390000000  0.5060020000000  0.5947590000000 1.0
C      1  0.4307240000000  0.4570900000000  0.4808100000000 1.0
C      1  0.4842140000000  0.5490510000000  0.4968820000000 1.0
C      1  0.4479050000000  0.5442150000000  0.4613400000000 1.0
C      1  0.5158810000000  0.4882390000000  0.4913200000000 1.0
C      1  0.5426120000000  0.5309530000000  0.5244480000000 1.0
C      1  0.5105390000000  0.5565500000000  0.4503250000000 1.0
C      1  0.4750330000000  0.5111500000000  0.4199450000000 1.0
C      1  0.5019130000000  0.5214200000000  0.4197990000000 1.0
C      1  0.4738100000000  0.4318590000000  0.4682870000000 1.0
C      1  0.5817230000000  0.5085980000000  0.4918600000000 1.0
C      1  0.4319870000000  0.5016960000000  0.5360050000000 1.0
C      1  0.5183900000000  0.5137380000000  0.5124960000000 1.0
C      1  0.4442070000000  0.4798920000000  0.5569010000000 1.0
C      1  0.5654160000000  0.5764990000000  0.5036470000000 1.0
C      1  0.5277400000000  0.5735760000000  0.4905430000000 1.0
C      1  0.5611060000000  0.5285250000000  0.4847660000000 1.0
C      1  0.5490870000000  0.5099720000000  0.4455330000000 1.0
C      1  0.5321120000000  0.5133800000000  0.4749710000000 1.0
C      1  0.4457250000000  0.4334310000000  0.4708220000000 1.0
C      1  0.4850990000000  0.4439880000000  0.4456700000000 1.0
C      1  0.4665920000000  0.5345070000000  0.5796350000000 1.0
C      1  0.4934320000000  0.4682590000000  0.5306790000000 1.0
C      1  0.5082500000000  0.4616160000000  0.5067400000000 1.0
C      1  0.4670070000000  0.4410750000000  0.5180930000000 1.0
C      1  0.4502390000000  0.5044870000000  0.4631940000000 1.0
C      1  0.4341000000000  0.5345090000000  0.5364740000000 1.0
C      1  0.5375630000000  0.5620960000000  0.5376720000000 1.0
C      1  0.4226400000000  0.5326020000000  0.4700970000000 1.0
C      1  0.4935220000000  0.5398540000000  0.5290970000000 1.0
C      1  0.5378450000000  0.4517980000000  0.5147090000000 1.0
C      1  0.5229790000000  0.5161390000000  0.5993510000000 1.0
C      1  0.4708990000000  0.4832050000000  0.4150990000000 1.0
C      1  0.4842800000000  0.4695560000000  0.4760500000000 1.0
C      1  0.4869250000000  0.5708110000000  0.4548810000000 1.0
C      1  0.5108320000000  0.5257780000000  0.4510560000000 1.0
C      1  0.4780130000000  0.4773850000000  0.5569260000000 1.0
C      1  0.5554660000000  0.4805450000000  0.4613990000000 1.0
END
