TITL C-2778422-5617-1133 0.324182844390101 125000 -539.859224550883 0 0 93 (C1) n - 1
REM
REM in /home/nfs/bkarasulu/CARBON/AIRSS/Generating-Clusters/REBO/Only-C1/SD-CG/HFTN-CG
REM
REM
REM
REM
REM
REM ./C.cell (11c1c37f851c82e70ff6c80c92926a4b)
REM
REM compiler GCC version 9.2.1 20190827 (Red Hat 9.2.1-1)
REM options -cpp -mtune=generic -march=x86-64 -g -O0 -fpre-include=/usr/include/finclude/math-vector-fortran.h
REM seed -1789368743 1570305340 -1679494623 603821407 -1753323699 403645056 547675801 1578177996 1889269853 1966575105 1361536284 1907908673 -1755362213 1115351374 105539196 -517231919 180778551 -63285463 -1385755886 -771928686 701783780 1079672332 -1435413270 -1552284248 82107589 1613247676 -862675851 106134693 714006598 -1385691192 -373254357 1305834637 -1849524363
REM
CELL 1.54180   50.00000   50.00000   50.00000   90.00000   90.00000   90.00000
LATT -1
SFAC C  
C      1  0.5658900000000  0.4948230000000  0.5450290000000 1.0
C      1  0.5468010000000  0.5682460000000  0.5305710000000 1.0
C      1  0.4762060000000  0.5277060000000  0.5409660000000 1.0
C      1  0.4767910000000  0.5175900000000  0.4566700000000 1.0
C      1  0.5063670000000  0.4728370000000  0.4763590000000 1.0
C      1  0.4779290000000  0.4493830000000  0.4209000000000 1.0
C      1  0.4503460000000  0.4985540000000  0.4284710000000 1.0
C      1  0.4579250000000  0.4835570000000  0.5065820000000 1.0
C      1  0.5494330000000  0.5209850000000  0.5871550000000 1.0
C      1  0.5020480000000  0.4534530000000  0.5010540000000 1.0
C      1  0.5140110000000  0.5069290000000  0.4472650000000 1.0
C      1  0.5761460000000  0.5277310000000  0.5440750000000 1.0
C      1  0.5583740000000  0.4648750000000  0.4714130000000 1.0
C      1  0.4981280000000  0.5267470000000  0.5894190000000 1.0
C      1  0.5614970000000  0.5130830000000  0.5098760000000 1.0
C      1  0.4999320000000  0.4400740000000  0.5498810000000 1.0
C      1  0.5126400000000  0.5590020000000  0.5119640000000 1.0
C      1  0.4374490000000  0.4696510000000  0.4276090000000 1.0
C      1  0.4395000000000  0.5362340000000  0.5051690000000 1.0
C      1  0.5228940000000  0.5300270000000  0.5463060000000 1.0
C      1  0.5176840000000  0.5212570000000  0.5155960000000 1.0
C      1  0.4806150000000  0.4876090000000  0.4650480000000 1.0
C      1  0.5089410000000  0.5662860000000  0.4546040000000 1.0
C      1  0.5695950000000  0.5513600000000  0.5260680000000 1.0
C      1  0.4897510000000  0.4797830000000  0.5120030000000 1.0
C      1  0.5271900000000  0.4589150000000  0.5523880000000 1.0
C      1  0.4503160000000  0.4757030000000  0.4756710000000 1.0
C      1  0.5336990000000  0.5767250000000  0.5052100000000 1.0
C      1  0.4180380000000  0.5034960000000  0.4703230000000 1.0
C      1  0.4162530000000  0.4725240000000  0.4723200000000 1.0
C      1  0.4946590000000  0.4261490000000  0.4297950000000 1.0
C      1  0.5468290000000  0.4754040000000  0.4435130000000 1.0
C      1  0.5199650000000  0.4100660000000  0.4762410000000 1.0
C      1  0.4658990000000  0.4399600000000  0.5474630000000 1.0
C      1  0.4595740000000  0.4929800000000  0.5688430000000 1.0
C      1  0.4824770000000  0.5836920000000  0.5046830000000 1.0
C      1  0.4142320000000  0.5148710000000  0.4978720000000 1.0
C      1  0.4284610000000  0.4519380000000  0.4520840000000 1.0
C      1  0.4649840000000  0.4661580000000  0.4463370000000 1.0
C      1  0.4890370000000  0.5109770000000  0.4996560000000 1.0
C      1  0.4562810000000  0.5124160000000  0.4902890000000 1.0
C      1  0.4852930000000  0.5860020000000  0.5367050000000 1.0
C      1  0.4988990000000  0.4110420000000  0.4575260000000 1.0
C      1  0.4918510000000  0.4756850000000  0.4183660000000 1.0
C      1  0.4467990000000  0.4362610000000  0.4707520000000 1.0
C      1  0.5507820000000  0.5342820000000  0.4532100000000 1.0
C      1  0.5698780000000  0.5283880000000  0.5749120000000 1.0
C      1  0.4837590000000  0.5538200000000  0.5249850000000 1.0
C      1  0.5913160000000  0.5054840000000  0.5250300000000 1.0
C      1  0.4482990000000  0.5225830000000  0.5416780000000 1.0
C      1  0.5167600000000  0.4768210000000  0.4380650000000 1.0
C      1  0.4584960000000  0.4337710000000  0.5197270000000 1.0
C      1  0.5533210000000  0.5568470000000  0.4766390000000 1.0
C      1  0.4616660000000  0.5519460000000  0.4921130000000 1.0
C      1  0.5111490000000  0.5222750000000  0.4763880000000 1.0
C      1  0.5160290000000  0.4875220000000  0.5670060000000 1.0
C      1  0.5395800000000  0.5312040000000  0.4914500000000 1.0
C      1  0.4971700000000  0.5243100000000  0.4233160000000 1.0
C      1  0.4829730000000  0.4266650000000  0.5065780000000 1.0
C      1  0.4840070000000  0.5431760000000  0.4765840000000 1.0
C      1  0.4202080000000  0.4634480000000  0.5023070000000 1.0
C      1  0.5003980000000  0.5695390000000  0.5576790000000 1.0
C      1  0.5325590000000  0.5807030000000  0.4735810000000 1.0
C      1  0.5069570000000  0.4221240000000  0.5260300000000 1.0
C      1  0.4142750000000  0.4870150000000  0.5177210000000 1.0
C      1  0.5703650000000  0.4566570000000  0.5170770000000 1.0
C      1  0.4893300000000  0.4716120000000  0.5528580000000 1.0
C      1  0.4919900000000  0.5017880000000  0.5384370000000 1.0
C      1  0.5010570000000  0.4506770000000  0.4532560000000 1.0
C      1  0.5264080000000  0.5588320000000  0.5494660000000 1.0
C      1  0.4744040000000  0.4315350000000  0.4635770000000 1.0
C      1  0.4995450000000  0.5833620000000  0.4825030000000 1.0
C      1  0.5221330000000  0.4261160000000  0.4992000000000 1.0
C      1  0.5330290000000  0.4850410000000  0.4796710000000 1.0
C      1  0.4218460000000  0.5164280000000  0.5304040000000 1.0
C      1  0.5229030000000  0.5392920000000  0.4405070000000 1.0
C      1  0.4833060000000  0.5460190000000  0.5675960000000 1.0
C      1  0.5759970000000  0.5240110000000  0.4745820000000 1.0
C      1  0.4452990000000  0.5111410000000  0.4578450000000 1.0
C      1  0.5868000000000  0.4976170000000  0.4933250000000 1.0
C      1  0.4841850000000  0.5479490000000  0.4427940000000 1.0
C      1  0.5358950000000  0.4949800000000  0.5078620000000 1.0
C      1  0.5573340000000  0.4680450000000  0.5399010000000 1.0
C      1  0.5761610000000  0.5483320000000  0.4983050000000 1.0
C      1  0.5544220000000  0.5027750000000  0.4599000000000 1.0
C      1  0.4697720000000  0.5160580000000  0.5786060000000 1.0
C      1  0.4773740000000  0.5002910000000  0.4181490000000 1.0
C      1  0.5777750000000  0.4679070000000  0.4914950000000 1.0
C      1  0.4391280000000  0.4416010000000  0.5001060000000 1.0
C      1  0.5218480000000  0.5152660000000  0.5746280000000 1.0
C      1  0.4592850000000  0.4790580000000  0.5375780000000 1.0
C      1  0.5222370000000  0.4861340000000  0.5338170000000 1.0
C      1  0.4529630000000  0.4608060000000  0.5654670000000 1.0
END
