TITL C-2778429-3646-372 0.00891378526125385 125000 -915.415904946322 0 0 155 (C1) n - 1
REM
REM in /home/nfs/bkarasulu/CARBON/AIRSS/Generating-Clusters/REBO/Only-C1/SD-CG/HFTN-CG
REM
REM
REM
REM
REM
REM ./C.cell (11c1c37f851c82e70ff6c80c92926a4b)
REM
REM compiler GCC version 9.2.1 20190827 (Red Hat 9.2.1-1)
REM options -cpp -mtune=generic -march=x86-64 -g -O0 -fpre-include=/usr/include/finclude/math-vector-fortran.h
REM seed -442171931 1382216279 -1633277599 -1758902387 -1178425258 -1978501625 -1488599339 78180226 -1382232105 738370030 1842800133 1304034894 -596069562 2027546325 -1835287341 -1862518127 957132121 -1794452298 1854726437 -2138754540 -1965294313 1265703802 -219910539 1701093734 2092714715 1865445851 1281213647 1937030866 566431684 1903979986 -1497902216 1652619126 -1092115626
REM
CELL 1.54180   50.00000   50.00000   50.00000   90.00000   90.00000   90.00000
LATT -1
SFAC C  
C      1  0.5253840000000  0.5405800000000  0.5430030000000 1.0
C      1  0.4639740000000  0.4516730000000  0.5196040000000 1.0
C      1  0.5074970000000  0.4413750000000  0.5451840000000 1.0
C      1  0.5801180000000  0.4891710000000  0.5603920000000 1.0
C      1  0.5449330000000  0.5320670000000  0.5822010000000 1.0
C      1  0.5528870000000  0.4027240000000  0.5008780000000 1.0
C      1  0.5936090000000  0.4909080000000  0.5144680000000 1.0
C      1  0.5126430000000  0.5352550000000  0.5931160000000 1.0
C      1  0.4316190000000  0.4172450000000  0.4839980000000 1.0
C      1  0.5527440000000  0.5769700000000  0.5555500000000 1.0
C      1  0.5252820000000  0.5103640000000  0.5516100000000 1.0
C      1  0.4667540000000  0.5748710000000  0.5608010000000 1.0
C      1  0.6062710000000  0.4911580000000  0.4495510000000 1.0
C      1  0.4010980000000  0.4751650000000  0.4673940000000 1.0
C      1  0.5727180000000  0.5077890000000  0.4819820000000 1.0
C      1  0.4488710000000  0.5302320000000  0.5180150000000 1.0
C      1  0.4782080000000  0.5174550000000  0.4055190000000 1.0
C      1  0.5416140000000  0.5149520000000  0.5060580000000 1.0
C      1  0.5231010000000  0.4686510000000  0.5696640000000 1.0
C      1  0.5463220000000  0.4471160000000  0.4751300000000 1.0
C      1  0.4806850000000  0.4849200000000  0.4398690000000 1.0
C      1  0.4833850000000  0.5621720000000  0.4488830000000 1.0
C      1  0.5328310000000  0.4156130000000  0.4784110000000 1.0
C      1  0.4510350000000  0.5434010000000  0.4931800000000 1.0
C      1  0.5270920000000  0.4544230000000  0.5232130000000 1.0
C      1  0.5549700000000  0.4802610000000  0.4716970000000 1.0
C      1  0.5807850000000  0.4612510000000  0.5589880000000 1.0
C      1  0.4152290000000  0.5714780000000  0.5219650000000 1.0
C      1  0.5859300000000  0.4483190000000  0.4709930000000 1.0
C      1  0.4559050000000  0.4805630000000  0.5079170000000 1.0
C      1  0.5598070000000  0.5687060000000  0.5083660000000 1.0
C      1  0.4857320000000  0.4474770000000  0.4249530000000 1.0
C      1  0.5005940000000  0.5495170000000  0.5259050000000 1.0
C      1  0.5494060000000  0.5790330000000  0.4354440000000 1.0
C      1  0.4786650000000  0.5139400000000  0.4671650000000 1.0
C      1  0.4668010000000  0.5390060000000  0.4675200000000 1.0
C      1  0.5186160000000  0.4930670000000  0.4818880000000 1.0
C      1  0.4626530000000  0.4935350000000  0.4135470000000 1.0
C      1  0.5857110000000  0.5455680000000  0.4803580000000 1.0
C      1  0.4387050000000  0.5309840000000  0.5691430000000 1.0
C      1  0.5773200000000  0.5324450000000  0.5058380000000 1.0
C      1  0.4261880000000  0.5059320000000  0.4714340000000 1.0
C      1  0.5200760000000  0.5902700000000  0.4915440000000 1.0
C      1  0.4274280000000  0.4850870000000  0.4986420000000 1.0
C      1  0.4508870000000  0.5260250000000  0.5895510000000 1.0
C      1  0.5912810000000  0.5059020000000  0.5405950000000 1.0
C      1  0.4125710000000  0.4593530000000  0.5022420000000 1.0
C      1  0.4751190000000  0.4369530000000  0.4620120000000 1.0
C      1  0.4657290000000  0.5059610000000  0.5251810000000 1.0
C      1  0.4920200000000  0.5183380000000  0.5185270000000 1.0
C      1  0.4601130000000  0.4346580000000  0.5745190000000 1.0
C      1  0.4784770000000  0.5546050000000  0.5856050000000 1.0
C      1  0.5416030000000  0.4047670000000  0.5273160000000 1.0
C      1  0.5875220000000  0.4422620000000  0.5103570000000 1.0
C      1  0.5845710000000  0.4811540000000  0.4335180000000 1.0
C      1  0.4450160000000  0.5498820000000  0.4358040000000 1.0
C      1  0.4037820000000  0.4898780000000  0.5560830000000 1.0
C      1  0.4180460000000  0.5549980000000  0.4750590000000 1.0
C      1  0.5387150000000  0.4756080000000  0.5012810000000 1.0
C      1  0.5271440000000  0.5613020000000  0.4865590000000 1.0
C      1  0.4679710000000  0.5925240000000  0.4968460000000 1.0
C      1  0.5146390000000  0.5595200000000  0.4372180000000 1.0
C      1  0.5553340000000  0.5326820000000  0.4200180000000 1.0
C      1  0.5254030000000  0.5394100000000  0.4150760000000 1.0
C      1  0.5318700000000  0.4723780000000  0.3965350000000 1.0
C      1  0.4574370000000  0.3998440000000  0.5195420000000 1.0
C      1  0.5403570000000  0.5569220000000  0.4587720000000 1.0
C      1  0.5205980000000  0.4942190000000  0.3919440000000 1.0
C      1  0.5003630000000  0.4743360000000  0.5449900000000 1.0
C      1  0.6016500000000  0.4671250000000  0.4945830000000 1.0
C      1  0.4247720000000  0.5311060000000  0.4537450000000 1.0
C      1  0.5219650000000  0.5931640000000  0.4339690000000 1.0
C      1  0.4149260000000  0.4402530000000  0.4810250000000 1.0
C      1  0.4043160000000  0.5348110000000  0.5334170000000 1.0
C      1  0.5797810000000  0.4396160000000  0.5375000000000 1.0
C      1  0.5095700000000  0.4313450000000  0.5722750000000 1.0
C      1  0.5418070000000  0.5021910000000  0.5940270000000 1.0
C      1  0.5180090000000  0.5020860000000  0.5226170000000 1.0
C      1  0.5342670000000  0.4649700000000  0.4254580000000 1.0
C      1  0.4592420000000  0.4153960000000  0.4754230000000 1.0
C      1  0.5764910000000  0.5316190000000  0.5363680000000 1.0
C      1  0.4629460000000  0.4129470000000  0.5484240000000 1.0
C      1  0.4633010000000  0.5442020000000  0.4164310000000 1.0
C      1  0.4960870000000  0.6000510000000  0.4789620000000 1.0
C      1  0.5610100000000  0.5443320000000  0.5605200000000 1.0
C      1  0.4989590000000  0.5834240000000  0.5677320000000 1.0
C      1  0.5122860000000  0.4449860000000  0.4958730000000 1.0
C      1  0.5200670000000  0.4815290000000  0.6010320000000 1.0
C      1  0.5480880000000  0.5291400000000  0.4758290000000 1.0
C      1  0.5463720000000  0.4877320000000  0.4425620000000 1.0
C      1  0.4301110000000  0.4058970000000  0.5112400000000 1.0
C      1  0.5089230000000  0.5669800000000  0.5944330000000 1.0
C      1  0.5029530000000  0.4531370000000  0.5929680000000 1.0
C      1  0.5506730000000  0.4970970000000  0.5641410000000 1.0
C      1  0.5182340000000  0.4647520000000  0.4688430000000 1.0
C      1  0.4614840000000  0.4596090000000  0.4156300000000 1.0
C      1  0.5491390000000  0.4407360000000  0.4359960000000 1.0
C      1  0.4939230000000  0.5480640000000  0.4051230000000 1.0
C      1  0.4110760000000  0.4487310000000  0.5282550000000 1.0
C      1  0.4331080000000  0.4743460000000  0.4605640000000 1.0
C      1  0.4240740000000  0.4668320000000  0.5530740000000 1.0
C      1  0.5329140000000  0.6025280000000  0.5133990000000 1.0
C      1  0.5488370000000  0.4489030000000  0.5609130000000 1.0
C      1  0.5273480000000  0.5914100000000  0.5378140000000 1.0
C      1  0.4835920000000  0.4577710000000  0.4873250000000 1.0
C      1  0.4450300000000  0.5745400000000  0.4818720000000 1.0
C      1  0.5690940000000  0.5555040000000  0.4311950000000 1.0
C      1  0.4854230000000  0.4267640000000  0.5288600000000 1.0
C      1  0.5078430000000  0.4663100000000  0.4405150000000 1.0
C      1  0.4748510000000  0.4042600000000  0.4966310000000 1.0
C      1  0.4197540000000  0.5215660000000  0.4233130000000 1.0
C      1  0.5066120000000  0.5081080000000  0.5748040000000 1.0
C      1  0.4974850000000  0.5777300000000  0.5356670000000 1.0
C      1  0.5031140000000  0.5099530000000  0.4469000000000 1.0
C      1  0.4717860000000  0.4876360000000  0.5488160000000 1.0
C      1  0.4528670000000  0.5731420000000  0.4520690000000 1.0
C      1  0.4330810000000  0.5416930000000  0.5414910000000 1.0
C      1  0.3944870000000  0.5129690000000  0.5457660000000 1.0
C      1  0.4645920000000  0.4688020000000  0.4611950000000 1.0
C      1  0.5008900000000  0.4271200000000  0.4432840000000 1.0
C      1  0.4774190000000  0.4966440000000  0.4883680000000 1.0
C      1  0.5041980000000  0.4130990000000  0.4963290000000 1.0
C      1  0.4961660000000  0.5380920000000  0.4944660000000 1.0
C      1  0.5258320000000  0.5626010000000  0.5651660000000 1.0
C      1  0.4679680000000  0.5872090000000  0.5281760000000 1.0
C      1  0.5486210000000  0.4750650000000  0.5397650000000 1.0
C      1  0.5087390000000  0.5124940000000  0.4138770000000 1.0
C      1  0.5149870000000  0.5296300000000  0.4722520000000 1.0
C      1  0.4464310000000  0.4424140000000  0.5452650000000 1.0
C      1  0.3909340000000  0.4914340000000  0.4835870000000 1.0
C      1  0.4847390000000  0.5645400000000  0.4924290000000 1.0
C      1  0.4089120000000  0.5139370000000  0.4996920000000 1.0
C      1  0.4809510000000  0.5230430000000  0.5987620000000 1.0
C      1  0.5133050000000  0.4070480000000  0.5260170000000 1.0
C      1  0.4303270000000  0.4711720000000  0.4074480000000 1.0
C      1  0.5557090000000  0.4215550000000  0.5445240000000 1.0
C      1  0.4874070000000  0.4896940000000  0.5960530000000 1.0
C      1  0.5379830000000  0.5455370000000  0.5122650000000 1.0
C      1  0.5655550000000  0.5841640000000  0.5274310000000 1.0
C      1  0.6001920000000  0.4938450000000  0.4761460000000 1.0
C      1  0.5285670000000  0.4234910000000  0.4483420000000 1.0
C      1  0.4541620000000  0.4747910000000  0.5669440000000 1.0
C      1  0.5692590000000  0.4271290000000  0.4895240000000 1.0
C      1  0.4129970000000  0.4202230000000  0.5293870000000 1.0
C      1  0.5858710000000  0.5510080000000  0.4538050000000 1.0
C      1  0.5751060000000  0.4541770000000  0.4447690000000 1.0
C      1  0.4401270000000  0.5726510000000  0.5400610000000 1.0
C      1  0.5640950000000  0.5058520000000  0.4258250000000 1.0
C      1  0.4964840000000  0.5918990000000  0.4515680000000 1.0
C      1  0.4346950000000  0.4560460000000  0.4352120000000 1.0
C      1  0.4306110000000  0.5010960000000  0.4097720000000 1.0
C      1  0.4715370000000  0.4601300000000  0.5902100000000 1.0
C      1  0.4054330000000  0.5456280000000  0.5021600000000 1.0
C      1  0.5620440000000  0.4923840000000  0.5170150000000 1.0
C      1  0.4956630000000  0.4791880000000  0.5113930000000 1.0
END
