TITL C-2778431-5191-1266 0.00619610574462903 125000 -755.906975376442 0 0 131 (C1) n - 1
REM
REM in /home/nfs/bkarasulu/CARBON/AIRSS/Generating-Clusters/REBO/Only-C1/SD-CG/HFTN-CG
REM
REM
REM
REM
REM
REM ./C.cell (11c1c37f851c82e70ff6c80c92926a4b)
REM
REM compiler GCC version 9.2.1 20190827 (Red Hat 9.2.1-1)
REM options -cpp -mtune=generic -march=x86-64 -g -O0 -fpre-include=/usr/include/finclude/math-vector-fortran.h
REM seed -1105816242 1504739819 1073871256 699536368 766031568 -1910869184 627184242 53420560 2078914436 246429311 874525531 -727784932 -907138925 -553972027 -512319608 1508852011 1426835106 -2065415899 854765846 -40467880 1363953725 1906748839 1385532528 222884274 -1641242947 1797416604 962777224 1713918696 153696529 -1555573877 -219486245 -1131989615 -236060871
REM
CELL 1.54180   50.00000   50.00000   50.00000   90.00000   90.00000   90.00000
LATT -1
SFAC C  
C      1  0.4538980000000  0.4657740000000  0.4327740000000 1.0
C      1  0.5135010000000  0.4694250000000  0.4582110000000 1.0
C      1  0.5007450000000  0.5079290000000  0.5476670000000 1.0
C      1  0.4218100000000  0.5465410000000  0.4860460000000 1.0
C      1  0.4496540000000  0.5181200000000  0.5289300000000 1.0
C      1  0.4514170000000  0.4657260000000  0.5356560000000 1.0
C      1  0.5745400000000  0.5392830000000  0.5218430000000 1.0
C      1  0.4401440000000  0.4801610000000  0.4872180000000 1.0
C      1  0.4965890000000  0.5904820000000  0.4832220000000 1.0
C      1  0.4526930000000  0.4859130000000  0.5792080000000 1.0
C      1  0.5210390000000  0.5342640000000  0.5050750000000 1.0
C      1  0.5352660000000  0.4315570000000  0.4324590000000 1.0
C      1  0.5231690000000  0.4196630000000  0.5463930000000 1.0
C      1  0.5654170000000  0.4504620000000  0.4681010000000 1.0
C      1  0.5418120000000  0.4858570000000  0.5031680000000 1.0
C      1  0.4570610000000  0.5432260000000  0.5077130000000 1.0
C      1  0.5860970000000  0.5474490000000  0.5462680000000 1.0
C      1  0.4960020000000  0.5583710000000  0.5362790000000 1.0
C      1  0.5694960000000  0.5536170000000  0.4372160000000 1.0
C      1  0.5556050000000  0.4543380000000  0.4295200000000 1.0
C      1  0.5139410000000  0.5741390000000  0.4656180000000 1.0
C      1  0.5042630000000  0.4203740000000  0.5202210000000 1.0
C      1  0.4923260000000  0.4232100000000  0.4580250000000 1.0
C      1  0.4887600000000  0.4840050000000  0.4303840000000 1.0
C      1  0.4251620000000  0.5321370000000  0.5670590000000 1.0
C      1  0.4783450000000  0.4374300000000  0.5657240000000 1.0
C      1  0.4087000000000  0.4833760000000  0.5207180000000 1.0
C      1  0.5346040000000  0.4568160000000  0.5033500000000 1.0
C      1  0.5559140000000  0.4334150000000  0.5159870000000 1.0
C      1  0.4756740000000  0.4050090000000  0.4818810000000 1.0
C      1  0.5521990000000  0.4772140000000  0.4540650000000 1.0
C      1  0.4241040000000  0.5983790000000  0.4252860000000 1.0
C      1  0.5314560000000  0.5509910000000  0.4799610000000 1.0
C      1  0.5979150000000  0.4575100000000  0.5196650000000 1.0
C      1  0.5017400000000  0.4996700000000  0.3860960000000 1.0
C      1  0.5407000000000  0.4462850000000  0.5430880000000 1.0
C      1  0.5399690000000  0.5084530000000  0.4160220000000 1.0
C      1  0.4685210000000  0.5909640000000  0.5247930000000 1.0
C      1  0.4237430000000  0.4256850000000  0.4947000000000 1.0
C      1  0.5654260000000  0.4481680000000  0.5652270000000 1.0
C      1  0.5634980000000  0.5741730000000  0.4564110000000 1.0
C      1  0.4906290000000  0.4624520000000  0.5840760000000 1.0
C      1  0.5111880000000  0.5243480000000  0.4061030000000 1.0
C      1  0.5827200000000  0.5021300000000  0.4492410000000 1.0
C      1  0.5637080000000  0.4872230000000  0.4249780000000 1.0
C      1  0.5468790000000  0.5641240000000  0.5072870000000 1.0
C      1  0.5728330000000  0.5213170000000  0.4758060000000 1.0
C      1  0.5886760000000  0.4759050000000  0.4700600000000 1.0
C      1  0.4205150000000  0.5124240000000  0.5326210000000 1.0
C      1  0.4825690000000  0.4824870000000  0.4621870000000 1.0
C      1  0.5739960000000  0.4206370000000  0.4901730000000 1.0
C      1  0.4563470000000  0.4626020000000  0.5636170000000 1.0
C      1  0.5158440000000  0.4557380000000  0.4278080000000 1.0
C      1  0.5492120000000  0.5078580000000  0.5705340000000 1.0
C      1  0.5395360000000  0.4566490000000  0.5812940000000 1.0
C      1  0.5713660000000  0.5548010000000  0.5683190000000 1.0
C      1  0.5800780000000  0.4440070000000  0.5373530000000 1.0
C      1  0.4546630000000  0.5511800000000  0.4307520000000 1.0
C      1  0.5587320000000  0.5241300000000  0.4386790000000 1.0
C      1  0.5184180000000  0.4997850000000  0.4682150000000 1.0
C      1  0.4921200000000  0.4957530000000  0.5186340000000 1.0
C      1  0.5698380000000  0.5689110000000  0.4838770000000 1.0
C      1  0.5230920000000  0.4158090000000  0.4543510000000 1.0
C      1  0.4292080000000  0.5497240000000  0.4538970000000 1.0
C      1  0.5751430000000  0.5089680000000  0.5606960000000 1.0
C      1  0.5048990000000  0.4891220000000  0.5727210000000 1.0
C      1  0.4746570000000  0.4929220000000  0.3842540000000 1.0
C      1  0.4810190000000  0.5297830000000  0.5362820000000 1.0
C      1  0.5388030000000  0.5881190000000  0.4524450000000 1.0
C      1  0.4793620000000  0.4936650000000  0.5928320000000 1.0
C      1  0.4258300000000  0.4597350000000  0.5255380000000 1.0
C      1  0.4954270000000  0.5827090000000  0.5120060000000 1.0
C      1  0.4184120000000  0.5494170000000  0.5473370000000 1.0
C      1  0.4711000000000  0.4193830000000  0.5415570000000 1.0
C      1  0.5446340000000  0.5594240000000  0.5714410000000 1.0
C      1  0.4586860000000  0.5192820000000  0.4232680000000 1.0
C      1  0.4562540000000  0.5557500000000  0.5585590000000 1.0
C      1  0.4611540000000  0.4996920000000  0.5051060000000 1.0
C      1  0.5246070000000  0.5740140000000  0.5252870000000 1.0
C      1  0.5121100000000  0.4386380000000  0.5721310000000 1.0
C      1  0.4857760000000  0.5388840000000  0.4239170000000 1.0
C      1  0.3964830000000  0.4955090000000  0.4939290000000 1.0
C      1  0.5166000000000  0.4854040000000  0.4122690000000 1.0
C      1  0.4827570000000  0.6110030000000  0.4739310000000 1.0
C      1  0.4502240000000  0.5289180000000  0.4801300000000 1.0
C      1  0.4629000000000  0.4618990000000  0.4712870000000 1.0
C      1  0.4788040000000  0.4671390000000  0.5199000000000 1.0
C      1  0.5070430000000  0.4523440000000  0.5203230000000 1.0
C      1  0.4832120000000  0.5250730000000  0.5930030000000 1.0
C      1  0.5405120000000  0.5244400000000  0.4655550000000 1.0
C      1  0.3977430000000  0.5233680000000  0.4916350000000 1.0
C      1  0.4890480000000  0.5363530000000  0.5037300000000 1.0
C      1  0.4522920000000  0.5665710000000  0.5298330000000 1.0
C      1  0.4615510000000  0.6157250000000  0.5301630000000 1.0
C      1  0.5332220000000  0.4087240000000  0.5147460000000 1.0
C      1  0.4751900000000  0.5079080000000  0.4757430000000 1.0
C      1  0.5317880000000  0.4492360000000  0.4737470000000 1.0
C      1  0.4806130000000  0.3998840000000  0.5151310000000 1.0
C      1  0.4394120000000  0.4890760000000  0.4540800000000 1.0
C      1  0.4482290000000  0.4151770000000  0.4996050000000 1.0
C      1  0.4033440000000  0.5367010000000  0.5198930000000 1.0
C      1  0.5804470000000  0.5432060000000  0.4942370000000 1.0
C      1  0.4751720000000  0.4385440000000  0.4818930000000 1.0
C      1  0.4992760000000  0.5276380000000  0.4724000000000 1.0
C      1  0.4352510000000  0.5080100000000  0.5751030000000 1.0
C      1  0.5409350000000  0.4172900000000  0.4826440000000 1.0
C      1  0.5248000000000  0.5425430000000  0.4297620000000 1.0
C      1  0.5606280000000  0.4920880000000  0.4810370000000 1.0
C      1  0.4420880000000  0.5183690000000  0.4496900000000 1.0
C      1  0.4134160000000  0.4357380000000  0.5319390000000 1.0
C      1  0.5340820000000  0.4843080000000  0.5788650000000 1.0
C      1  0.5396290000000  0.5026040000000  0.5320840000000 1.0
C      1  0.5145430000000  0.5037830000000  0.5005970000000 1.0
C      1  0.5959590000000  0.5010100000000  0.5455130000000 1.0
C      1  0.4687780000000  0.4373840000000  0.5136770000000 1.0
C      1  0.4232450000000  0.5627390000000  0.5159440000000 1.0
C      1  0.5038060000000  0.5482780000000  0.4512630000000 1.0
C      1  0.5916000000000  0.4497470000000  0.4906670000000 1.0
C      1  0.5230360000000  0.5628780000000  0.5564700000000 1.0
C      1  0.5450160000000  0.5320460000000  0.5250240000000 1.0
C      1  0.5265050000000  0.4741530000000  0.5381760000000 1.0
C      1  0.4838580000000  0.4502530000000  0.4387530000000 1.0
C      1  0.4642080000000  0.5411410000000  0.5795790000000 1.0
C      1  0.4218210000000  0.4513250000000  0.4862040000000 1.0
C      1  0.5104020000000  0.5333770000000  0.5893730000000 1.0
C      1  0.3992410000000  0.4960270000000  0.5509260000000 1.0
C      1  0.4321010000000  0.4565710000000  0.4561790000000 1.0
C      1  0.5240540000000  0.5234640000000  0.5660290000000 1.0
C      1  0.4627910000000  0.4918190000000  0.4127570000000 1.0
C      1  0.4326060000000  0.5756050000000  0.4333560000000 1.0
C      1  0.6067870000000  0.4825520000000  0.5287410000000 1.0
END
