TITL C-2778434-4341-143 0.00325657837242082 125000 -695.748595062188 0 0 122 (C1) n - 1
REM
REM in /home/nfs/bkarasulu/CARBON/AIRSS/Generating-Clusters/REBO/Only-C1/SD-CG/HFTN-CG
REM
REM
REM
REM
REM
REM ./C.cell (11c1c37f851c82e70ff6c80c92926a4b)
REM
REM compiler GCC version 9.2.1 20190827 (Red Hat 9.2.1-1)
REM options -cpp -mtune=generic -march=x86-64 -g -O0 -fpre-include=/usr/include/finclude/math-vector-fortran.h
REM seed -676982030 1983482843 -42644187 1976267200 1111311013 -1832891531 1115114978 1942130827 -2135890197 1312140203 -1828803403 1999784914 -1190168378 -56217520 -521941671 -172022781 -1787974041 21993457 -2052424571 -338413092 -627721483 -1887707047 668075804 -1838521756 698067954 1090619689 -1541925712 1339094201 -2000716308 1838739994 -807836638 -492260883 -1343281520
REM
CELL 1.54180   50.00000   50.00000   50.00000   90.00000   90.00000   90.00000
LATT -1
SFAC C  
C      1  0.5187850000000  0.5285970000000  0.5393580000000 1.0
C      1  0.4829490000000  0.4274050000000  0.4804590000000 1.0
C      1  0.5550560000000  0.4276640000000  0.5268620000000 1.0
C      1  0.5121710000000  0.4979530000000  0.6016650000000 1.0
C      1  0.4189860000000  0.5433470000000  0.5097630000000 1.0
C      1  0.4185650000000  0.5160960000000  0.5303780000000 1.0
C      1  0.4944170000000  0.5868800000000  0.4811310000000 1.0
C      1  0.4997650000000  0.5557460000000  0.4830100000000 1.0
C      1  0.4950640000000  0.5742380000000  0.5718830000000 1.0
C      1  0.5143680000000  0.5092520000000  0.5633650000000 1.0
C      1  0.5768190000000  0.4891400000000  0.4562520000000 1.0
C      1  0.5006020000000  0.4770330000000  0.5887120000000 1.0
C      1  0.5408860000000  0.4369600000000  0.4908230000000 1.0
C      1  0.4357150000000  0.4715850000000  0.5079730000000 1.0
C      1  0.5491880000000  0.4451480000000  0.4615470000000 1.0
C      1  0.4715750000000  0.4823140000000  0.5777560000000 1.0
C      1  0.5581910000000  0.5578900000000  0.5365010000000 1.0
C      1  0.4898580000000  0.5305010000000  0.4268500000000 1.0
C      1  0.5222740000000  0.5932470000000  0.5241840000000 1.0
C      1  0.5759700000000  0.4924580000000  0.4884200000000 1.0
C      1  0.5159390000000  0.5331810000000  0.5001330000000 1.0
C      1  0.5519990000000  0.5242180000000  0.4858820000000 1.0
C      1  0.5014880000000  0.5020650000000  0.5031680000000 1.0
C      1  0.5324680000000  0.4479910000000  0.4099810000000 1.0
C      1  0.5786100000000  0.4427390000000  0.4800840000000 1.0
C      1  0.5373940000000  0.5142610000000  0.5152500000000 1.0
C      1  0.4646860000000  0.4709950000000  0.4705190000000 1.0
C      1  0.5128510000000  0.5272950000000  0.5901360000000 1.0
C      1  0.5818020000000  0.5202270000000  0.4696170000000 1.0
C      1  0.5468230000000  0.4878240000000  0.5013950000000 1.0
C      1  0.4805700000000  0.6032430000000  0.4321890000000 1.0
C      1  0.5146510000000  0.4566520000000  0.5751000000000 1.0
C      1  0.4694100000000  0.5938210000000  0.5287930000000 1.0
C      1  0.5401540000000  0.4641240000000  0.5651030000000 1.0
C      1  0.4665920000000  0.5867010000000  0.5002560000000 1.0
C      1  0.5373830000000  0.5505800000000  0.5521580000000 1.0
C      1  0.5400330000000  0.4926110000000  0.5504280000000 1.0
C      1  0.4384960000000  0.4540880000000  0.4593070000000 1.0
C      1  0.4133280000000  0.5194620000000  0.4880860000000 1.0
C      1  0.4714690000000  0.5558230000000  0.5555400000000 1.0
C      1  0.4886280000000  0.4927400000000  0.5539310000000 1.0
C      1  0.4515960000000  0.5205910000000  0.5232710000000 1.0
C      1  0.4149360000000  0.4859200000000  0.4849320000000 1.0
C      1  0.4599010000000  0.4459020000000  0.4398890000000 1.0
C      1  0.5845350000000  0.5079610000000  0.5682920000000 1.0
C      1  0.4958640000000  0.5104150000000  0.4511860000000 1.0
C      1  0.5121360000000  0.5465710000000  0.4558420000000 1.0
C      1  0.4516330000000  0.5764110000000  0.5441500000000 1.0
C      1  0.5271110000000  0.5612680000000  0.5115850000000 1.0
C      1  0.5196420000000  0.4907100000000  0.4547170000000 1.0
C      1  0.5383010000000  0.4601260000000  0.5106790000000 1.0
C      1  0.4731840000000  0.4245550000000  0.5222960000000 1.0
C      1  0.4366800000000  0.4429070000000  0.5552830000000 1.0
C      1  0.4877650000000  0.4518030000000  0.4968720000000 1.0
C      1  0.5221570000000  0.5561530000000  0.5768070000000 1.0
C      1  0.5763190000000  0.4593040000000  0.4503140000000 1.0
C      1  0.5353220000000  0.5222440000000  0.4097830000000 1.0
C      1  0.5484500000000  0.4739610000000  0.4043010000000 1.0
C      1  0.5770120000000  0.4512480000000  0.5130740000000 1.0
C      1  0.5471100000000  0.5703300000000  0.4864410000000 1.0
C      1  0.4136290000000  0.4867170000000  0.5373930000000 1.0
C      1  0.5179340000000  0.4717730000000  0.4298220000000 1.0
C      1  0.4934700000000  0.4581980000000  0.4577130000000 1.0
C      1  0.5822890000000  0.4843050000000  0.5192460000000 1.0
C      1  0.4396740000000  0.5265370000000  0.5535030000000 1.0
C      1  0.4120220000000  0.4403660000000  0.5001420000000 1.0
C      1  0.4589660000000  0.4910900000000  0.4975550000000 1.0
C      1  0.5551160000000  0.5215520000000  0.4295020000000 1.0
C      1  0.4726050000000  0.4570630000000  0.5455950000000 1.0
C      1  0.4438650000000  0.5071930000000  0.4387660000000 1.0
C      1  0.4759250000000  0.5004710000000  0.5254960000000 1.0
C      1  0.5653230000000  0.5397930000000  0.4508610000000 1.0
C      1  0.4306350000000  0.5674090000000  0.5281890000000 1.0
C      1  0.5642910000000  0.5484300000000  0.5064810000000 1.0
C      1  0.4479440000000  0.5024810000000  0.5751230000000 1.0
C      1  0.4838940000000  0.5172320000000  0.4805150000000 1.0
C      1  0.4785300000000  0.5515400000000  0.4495540000000 1.0
C      1  0.4985170000000  0.4865580000000  0.4078130000000 1.0
C      1  0.4989540000000  0.4383520000000  0.5557390000000 1.0
C      1  0.5289200000000  0.4960340000000  0.4001950000000 1.0
C      1  0.5461800000000  0.3977330000000  0.4858760000000 1.0
C      1  0.4757460000000  0.3948470000000  0.5101490000000 1.0
C      1  0.4582130000000  0.5461980000000  0.4724280000000 1.0
C      1  0.5214860000000  0.4276870000000  0.5327700000000 1.0
C      1  0.4666230000000  0.4251330000000  0.5546680000000 1.0
C      1  0.4155860000000  0.5057220000000  0.4572760000000 1.0
C      1  0.5227500000000  0.4438590000000  0.4466410000000 1.0
C      1  0.4587260000000  0.4546350000000  0.5771660000000 1.0
C      1  0.4628690000000  0.4559350000000  0.5157350000000 1.0
C      1  0.5240820000000  0.5950430000000  0.4916780000000 1.0
C      1  0.5192500000000  0.4120000000000  0.4858950000000 1.0
C      1  0.5562280000000  0.4577450000000  0.5395180000000 1.0
C      1  0.5467470000000  0.5051930000000  0.4581010000000 1.0
C      1  0.4940440000000  0.5813150000000  0.4483250000000 1.0
C      1  0.4410870000000  0.5684000000000  0.4984640000000 1.0
C      1  0.5052170000000  0.5658160000000  0.5343660000000 1.0
C      1  0.4779830000000  0.4709020000000  0.4300910000000 1.0
C      1  0.4336540000000  0.5345370000000  0.4553520000000 1.0
C      1  0.4961930000000  0.5957020000000  0.5454750000000 1.0
C      1  0.4320560000000  0.4767530000000  0.5595760000000 1.0
C      1  0.5031180000000  0.4121470000000  0.5113260000000 1.0
C      1  0.5129960000000  0.4859610000000  0.5311040000000 1.0
C      1  0.4665310000000  0.4996340000000  0.4595480000000 1.0
C      1  0.4600600000000  0.5341240000000  0.5782630000000 1.0
C      1  0.5225060000000  0.5691750000000  0.4339120000000 1.0
C      1  0.5086660000000  0.4562390000000  0.5203390000000 1.0
C      1  0.5153510000000  0.5421230000000  0.4152180000000 1.0
C      1  0.5052540000000  0.4773810000000  0.4826420000000 1.0
C      1  0.5061630000000  0.4195970000000  0.4576490000000 1.0
C      1  0.5437380000000  0.5590990000000  0.4586520000000 1.0
C      1  0.4743350000000  0.4239980000000  0.4497100000000 1.0
C      1  0.4185880000000  0.4537200000000  0.5300860000000 1.0
C      1  0.5673450000000  0.4158710000000  0.4980170000000 1.0
C      1  0.5726510000000  0.4726960000000  0.4200990000000 1.0
C      1  0.4454750000000  0.5205000000000  0.4907780000000 1.0
C      1  0.4166720000000  0.4553770000000  0.4770940000000 1.0
C      1  0.4873260000000  0.5466670000000  0.5903120000000 1.0
C      1  0.5765440000000  0.5183240000000  0.5165590000000 1.0
C      1  0.5675030000000  0.5014160000000  0.5439940000000 1.0
C      1  0.4715790000000  0.5030460000000  0.4202970000000 1.0
C      1  0.4877310000000  0.5402670000000  0.5306910000000 1.0
C      1  0.4770150000000  0.5419180000000  0.5013000000000 1.0
END
