TITL C-2778433-5640-94 -0.00225733321629448 125000 -1061.21805113983 0 0 181 (C1) n - 1
REM
REM in /home/nfs/bkarasulu/CARBON/AIRSS/Generating-Clusters/REBO/Only-C1/SD-CG/HFTN-CG
REM
REM
REM
REM
REM
REM ./C.cell (11c1c37f851c82e70ff6c80c92926a4b)
REM
REM compiler GCC version 9.2.1 20190827 (Red Hat 9.2.1-1)
REM options -cpp -mtune=generic -march=x86-64 -g -O0 -fpre-include=/usr/include/finclude/math-vector-fortran.h
REM seed 1894800456 1000757497 -1782856440 -2055446275 1657769573 501277804 906596659 847804767 -293656669 441697102 1549946218 -806589161 2109681327 1090812953 -1109587018 1890716441 1751871763 -774165283 -349946827 -176064663 1529586212 -1470260371 -1407584636 -1138100501 1735091569 -1637173695 -48083907 -884812862 -1317061121 -122992217 1953781937 -141841677 -933991966
REM
CELL 1.54180   50.00000   50.00000   50.00000   90.00000   90.00000   90.00000
LATT -1
SFAC C  
C      1  0.5076230000000  0.6107060000000  0.4807780000000 1.0
C      1  0.5034200000000  0.4315800000000  0.4146290000000 1.0
C      1  0.5204620000000  0.5271010000000  0.5818390000000 1.0
C      1  0.4491250000000  0.5415400000000  0.4138330000000 1.0
C      1  0.4782130000000  0.5248330000000  0.5158090000000 1.0
C      1  0.5620740000000  0.5969080000000  0.4838530000000 1.0
C      1  0.5840400000000  0.4666700000000  0.4540160000000 1.0
C      1  0.5557460000000  0.5706090000000  0.5025510000000 1.0
C      1  0.5033550000000  0.4807450000000  0.5130910000000 1.0
C      1  0.4881820000000  0.3927690000000  0.5049990000000 1.0
C      1  0.4060500000000  0.4408820000000  0.4580490000000 1.0
C      1  0.4719520000000  0.4968710000000  0.4031010000000 1.0
C      1  0.4669600000000  0.5646150000000  0.6002200000000 1.0
C      1  0.4862320000000  0.4812950000000  0.4893230000000 1.0
C      1  0.4552170000000  0.6012910000000  0.4794110000000 1.0
C      1  0.4746370000000  0.5203490000000  0.4759690000000 1.0
C      1  0.4823320000000  0.4924660000000  0.4580000000000 1.0
C      1  0.5440000000000  0.5234160000000  0.6138520000000 1.0
C      1  0.4200880000000  0.4992270000000  0.5286390000000 1.0
C      1  0.4538490000000  0.4657180000000  0.5095190000000 1.0
C      1  0.5387760000000  0.4672730000000  0.4555760000000 1.0
C      1  0.4360430000000  0.5006740000000  0.5022870000000 1.0
C      1  0.4540100000000  0.5432890000000  0.5174670000000 1.0
C      1  0.4455250000000  0.5489970000000  0.5440380000000 1.0
C      1  0.4443140000000  0.4067230000000  0.5176260000000 1.0
C      1  0.4297320000000  0.5990220000000  0.4927920000000 1.0
C      1  0.4289380000000  0.4792920000000  0.4814190000000 1.0
C      1  0.5633390000000  0.4740930000000  0.4787090000000 1.0
C      1  0.4561180000000  0.5135230000000  0.6001770000000 1.0
C      1  0.4168430000000  0.5563390000000  0.5420190000000 1.0
C      1  0.4615310000000  0.3984750000000  0.4971700000000 1.0
C      1  0.4255490000000  0.4648330000000  0.5673570000000 1.0
C      1  0.4208890000000  0.4168470000000  0.5360420000000 1.0
C      1  0.5004420000000  0.4519390000000  0.5477180000000 1.0
C      1  0.3936380000000  0.4785190000000  0.4998890000000 1.0
C      1  0.4714150000000  0.4367910000000  0.4113480000000 1.0
C      1  0.4424040000000  0.5531700000000  0.4397090000000 1.0
C      1  0.5382040000000  0.4994610000000  0.4607630000000 1.0
C      1  0.5905760000000  0.5422420000000  0.4447990000000 1.0
C      1  0.5133370000000  0.4513280000000  0.4637330000000 1.0
C      1  0.6016290000000  0.4633670000000  0.4823090000000 1.0
C      1  0.5016010000000  0.4005090000000  0.5354020000000 1.0
C      1  0.5469820000000  0.4234830000000  0.4382610000000 1.0
C      1  0.5273450000000  0.5318610000000  0.5385620000000 1.0
C      1  0.5300770000000  0.4048920000000  0.5541500000000 1.0
C      1  0.5153540000000  0.5145420000000  0.6130770000000 1.0
C      1  0.4581210000000  0.4301570000000  0.5362230000000 1.0
C      1  0.5620700000000  0.4980260000000  0.4288610000000 1.0
C      1  0.5597100000000  0.4241870000000  0.4630270000000 1.0
C      1  0.5409600000000  0.5068090000000  0.5241130000000 1.0
C      1  0.4530570000000  0.5427180000000  0.6084430000000 1.0
C      1  0.5060590000000  0.5830520000000  0.4245480000000 1.0
C      1  0.3866150000000  0.5175820000000  0.5403510000000 1.0
C      1  0.4654740000000  0.4582340000000  0.4462080000000 1.0
C      1  0.4925590000000  0.4401830000000  0.4448310000000 1.0
C      1  0.4949430000000  0.5386030000000  0.5387300000000 1.0
C      1  0.4429740000000  0.5245200000000  0.4829010000000 1.0
C      1  0.4863910000000  0.4357680000000  0.5811120000000 1.0
C      1  0.5969540000000  0.4456650000000  0.5452170000000 1.0
C      1  0.5144980000000  0.5979790000000  0.4502870000000 1.0
C      1  0.4026990000000  0.4082700000000  0.4960030000000 1.0
C      1  0.4827060000000  0.4414750000000  0.5154680000000 1.0
C      1  0.5561330000000  0.5310300000000  0.5110410000000 1.0
C      1  0.4714880000000  0.5608200000000  0.4554400000000 1.0
C      1  0.4559870000000  0.4210500000000  0.4354720000000 1.0
C      1  0.4747020000000  0.5858440000000  0.4975430000000 1.0
C      1  0.5393350000000  0.5473430000000  0.4872370000000 1.0
C      1  0.5024130000000  0.5020680000000  0.5778990000000 1.0
C      1  0.4631300000000  0.4642080000000  0.4068070000000 1.0
C      1  0.5049750000000  0.4456770000000  0.4940770000000 1.0
C      1  0.5620310000000  0.4770990000000  0.5358270000000 1.0
C      1  0.5255690000000  0.5633810000000  0.5334860000000 1.0
C      1  0.5383150000000  0.5203330000000  0.4339230000000 1.0
C      1  0.4790670000000  0.5746750000000  0.4272690000000 1.0
C      1  0.4504820000000  0.5305920000000  0.5646820000000 1.0
C      1  0.5251350000000  0.4512160000000  0.4052650000000 1.0
C      1  0.5460340000000  0.5776850000000  0.5517600000000 1.0
C      1  0.4398150000000  0.4686860000000  0.4260200000000 1.0
C      1  0.5461530000000  0.5888890000000  0.4571260000000 1.0
C      1  0.5459630000000  0.4749180000000  0.5835710000000 1.0
C      1  0.5684800000000  0.5022820000000  0.5563430000000 1.0
C      1  0.5214860000000  0.4741400000000  0.3919930000000 1.0
C      1  0.5020840000000  0.5365930000000  0.4968530000000 1.0
C      1  0.3945280000000  0.5077220000000  0.5103160000000 1.0
C      1  0.4751640000000  0.5879510000000  0.5249640000000 1.0
C      1  0.4465220000000  0.5137130000000  0.4101480000000 1.0
C      1  0.4868260000000  0.5626990000000  0.4808770000000 1.0
C      1  0.5457090000000  0.5264140000000  0.5637730000000 1.0
C      1  0.5285120000000  0.5977950000000  0.5677760000000 1.0
C      1  0.5206180000000  0.4113390000000  0.4347300000000 1.0
C      1  0.5369840000000  0.4537340000000  0.5007380000000 1.0
C      1  0.5076390000000  0.3902500000000  0.4843080000000 1.0
C      1  0.5399160000000  0.4861330000000  0.4983110000000 1.0
C      1  0.5734720000000  0.5682260000000  0.4590540000000 1.0
C      1  0.5316320000000  0.4000750000000  0.4938320000000 1.0
C      1  0.5070460000000  0.5257820000000  0.4312080000000 1.0
C      1  0.4938680000000  0.5726530000000  0.5422170000000 1.0
C      1  0.5191800000000  0.4814380000000  0.5667760000000 1.0
C      1  0.5684420000000  0.5120960000000  0.4588100000000 1.0
C      1  0.5651300000000  0.5338210000000  0.5977780000000 1.0
C      1  0.5330700000000  0.3981030000000  0.5223980000000 1.0
C      1  0.4973180000000  0.5434580000000  0.5700340000000 1.0
C      1  0.5830640000000  0.5500900000000  0.5193110000000 1.0
C      1  0.5699220000000  0.4709850000000  0.4298600000000 1.0
C      1  0.5386080000000  0.4290580000000  0.5714450000000 1.0
C      1  0.5966250000000  0.5423320000000  0.5560050000000 1.0
C      1  0.5891580000000  0.5563090000000  0.4859340000000 1.0
C      1  0.5431060000000  0.5656250000000  0.3950280000000 1.0
C      1  0.5443010000000  0.6001580000000  0.5099110000000 1.0
C      1  0.4335300000000  0.4279800000000  0.4600630000000 1.0
C      1  0.5116610000000  0.4976490000000  0.4026680000000 1.0
C      1  0.4304950000000  0.4955650000000  0.4281600000000 1.0
C      1  0.5795790000000  0.4375930000000  0.4795800000000 1.0
C      1  0.6019260000000  0.5165970000000  0.4579960000000 1.0
C      1  0.4311620000000  0.4403750000000  0.5545220000000 1.0
C      1  0.5540080000000  0.4511820000000  0.5869100000000 1.0
C      1  0.4293670000000  0.6038390000000  0.5241080000000 1.0
C      1  0.4039100000000  0.5284540000000  0.4902870000000 1.0
C      1  0.4545330000000  0.6033910000000  0.5368660000000 1.0
C      1  0.5265970000000  0.5157440000000  0.4879100000000 1.0
C      1  0.5341700000000  0.4526090000000  0.5437300000000 1.0
C      1  0.5787580000000  0.4847980000000  0.5071360000000 1.0
C      1  0.4924820000000  0.4967130000000  0.4304780000000 1.0
C      1  0.4755560000000  0.5303540000000  0.4434850000000 1.0
C      1  0.6096300000000  0.4733040000000  0.5339110000000 1.0
C      1  0.5149390000000  0.4501090000000  0.5784750000000 1.0
C      1  0.4685090000000  0.4492420000000  0.5960880000000 1.0
C      1  0.5665980000000  0.4468530000000  0.5492430000000 1.0
C      1  0.4459530000000  0.5148490000000  0.4501160000000 1.0
C      1  0.5049410000000  0.3631920000000  0.4428360000000 1.0
C      1  0.4618270000000  0.4747250000000  0.6022910000000 1.0
C      1  0.5985340000000  0.4504780000000  0.5115900000000 1.0
C      1  0.5748330000000  0.5261170000000  0.4856070000000 1.0
C      1  0.5465560000000  0.4514830000000  0.4262550000000 1.0
C      1  0.4182300000000  0.4287720000000  0.4970030000000 1.0
C      1  0.5018880000000  0.5906840000000  0.5686090000000 1.0
C      1  0.5096220000000  0.5683720000000  0.5057670000000 1.0
C      1  0.5172850000000  0.5661120000000  0.4031480000000 1.0
C      1  0.4755240000000  0.4536240000000  0.4781830000000 1.0
C      1  0.4672760000000  0.4975150000000  0.5092680000000 1.0
C      1  0.4339960000000  0.4896350000000  0.5894410000000 1.0
C      1  0.3982850000000  0.5042220000000  0.4477390000000 1.0
C      1  0.4014820000000  0.4634470000000  0.4723660000000 1.0
C      1  0.4029910000000  0.5268750000000  0.4623870000000 1.0
C      1  0.5939760000000  0.5001290000000  0.5338630000000 1.0
C      1  0.5663330000000  0.4391240000000  0.5102360000000 1.0
C      1  0.6067800000000  0.5284260000000  0.4958030000000 1.0
C      1  0.4957860000000  0.5468530000000  0.3934820000000 1.0
C      1  0.4827390000000  0.6045540000000  0.4633310000000 1.0
C      1  0.4333150000000  0.4881930000000  0.5497060000000 1.0
C      1  0.4877260000000  0.5676120000000  0.5814110000000 1.0
C      1  0.4715100000000  0.5572140000000  0.4055340000000 1.0
C      1  0.4858800000000  0.4983120000000  0.6071440000000 1.0
C      1  0.4851870000000  0.4223960000000  0.5504670000000 1.0
C      1  0.5546970000000  0.4195490000000  0.5350330000000 1.0
C      1  0.5594440000000  0.5548910000000  0.5716510000000 1.0
C      1  0.4204690000000  0.4590730000000  0.5071870000000 1.0
C      1  0.4491800000000  0.4396740000000  0.4879120000000 1.0
C      1  0.4945680000000  0.5187650000000  0.3893360000000 1.0
C      1  0.4739350000000  0.4672410000000  0.5361320000000 1.0
C      1  0.5838410000000  0.5237140000000  0.5752070000000 1.0
C      1  0.5571010000000  0.5452110000000  0.4396310000000 1.0
C      1  0.4165500000000  0.5749090000000  0.5135180000000 1.0
C      1  0.5057560000000  0.3889300000000  0.4535250000000 1.0
C      1  0.6061530000000  0.5274620000000  0.5283370000000 1.0
C      1  0.5162420000000  0.5985990000000  0.5040420000000 1.0
C      1  0.5094170000000  0.5510950000000  0.4482610000000 1.0
C      1  0.4734450000000  0.5093180000000  0.5708770000000 1.0
C      1  0.4173250000000  0.5475880000000  0.4498400000000 1.0
C      1  0.5775360000000  0.5677790000000  0.5463020000000 1.0
C      1  0.4619300000000  0.4896770000000  0.5508610000000 1.0
C      1  0.5225530000000  0.4823420000000  0.5340940000000 1.0
C      1  0.4048890000000  0.5326180000000  0.5564680000000 1.0
C      1  0.5349080000000  0.5580220000000  0.4591950000000 1.0
C      1  0.6017730000000  0.4965980000000  0.4848390000000 1.0
C      1  0.4276290000000  0.5483490000000  0.4995550000000 1.0
C      1  0.4571970000000  0.4058650000000  0.4682820000000 1.0
C      1  0.4495590000000  0.4839320000000  0.4613380000000 1.0
C      1  0.5399290000000  0.4245290000000  0.4842140000000 1.0
C      1  0.4254140000000  0.5188620000000  0.5740690000000 1.0
C      1  0.4836020000000  0.4093440000000  0.4497150000000 1.0
END
