TITL C-2778431-5191-877 -8.78489509423907e-05 125000 -263.695850848958 0 0 48 (C1) n - 1
REM
REM in /home/nfs/bkarasulu/CARBON/AIRSS/Generating-Clusters/REBO/Only-C1/SD-CG/HFTN-CG
REM
REM
REM
REM
REM
REM ./C.cell (11c1c37f851c82e70ff6c80c92926a4b)
REM
REM compiler GCC version 9.2.1 20190827 (Red Hat 9.2.1-1)
REM options -cpp -mtune=generic -march=x86-64 -g -O0 -fpre-include=/usr/include/finclude/math-vector-fortran.h
REM seed -391193202 -2040666198 10576862 350379253 -1627344208 213050745 -772215378 -149055966 273705380 1869952696 1632396612 1252133079 -1510644677 -389378571 489079130 1744617562 -687318212 454584866 -1333796246 1393278422 1774245685 -1421654633 1278125128 -1906306148 -238485848 -818349505 620890084 -290492745 2060603862 -77007556 -117618436 -752072556 -128790594
REM
CELL 1.54180   50.00000   50.00000   50.00000   90.00000   90.00000   90.00000
LATT -1
SFAC C  
C      1  0.4781150000000  0.4802850000000  0.5476360000000 1.0
C      1  0.5149720000000  0.5310660000000  0.5476520000000 1.0
C      1  0.4551340000000  0.5771030000000  0.5059060000000 1.0
C      1  0.5224890000000  0.5017060000000  0.5626210000000 1.0
C      1  0.4626980000000  0.5258810000000  0.4590350000000 1.0
C      1  0.4506110000000  0.4801710000000  0.5453790000000 1.0
C      1  0.5455110000000  0.5018480000000  0.4834710000000 1.0
C      1  0.4507770000000  0.5193250000000  0.5201410000000 1.0
C      1  0.4911080000000  0.5067680000000  0.5549110000000 1.0
C      1  0.4367780000000  0.4506350000000  0.4476990000000 1.0
C      1  0.5243470000000  0.4973690000000  0.5285660000000 1.0
C      1  0.5026050000000  0.4823290000000  0.4967330000000 1.0
C      1  0.5474130000000  0.5286290000000  0.5369890000000 1.0
C      1  0.5184200000000  0.5387740000000  0.4550760000000 1.0
C      1  0.5501260000000  0.5374340000000  0.4551540000000 1.0
C      1  0.4758360000000  0.5309840000000  0.5401520000000 1.0
C      1  0.4296720000000  0.4877170000000  0.4700920000000 1.0
C      1  0.5043810000000  0.4141570000000  0.4466020000000 1.0
C      1  0.5067720000000  0.5119870000000  0.5054890000000 1.0
C      1  0.5775840000000  0.5086930000000  0.4916220000000 1.0
C      1  0.4623620000000  0.4950960000000  0.4646490000000 1.0
C      1  0.4075160000000  0.4746400000000  0.4605820000000 1.0
C      1  0.5693020000000  0.5303140000000  0.4688380000000 1.0
C      1  0.4727580000000  0.4566680000000  0.5035060000000 1.0
C      1  0.4808720000000  0.5263890000000  0.5071330000000 1.0
C      1  0.5313420000000  0.4735740000000  0.4888960000000 1.0
C      1  0.5277400000000  0.4473800000000  0.4733200000000 1.0
C      1  0.5522430000000  0.4972560000000  0.5500550000000 1.0
C      1  0.4850610000000  0.5414950000000  0.4587530000000 1.0
C      1  0.4723570000000  0.5590100000000  0.5120210000000 1.0
C      1  0.5039780000000  0.4333650000000  0.4658910000000 1.0
C      1  0.4833410000000  0.4818990000000  0.4744870000000 1.0
C      1  0.4516940000000  0.4543500000000  0.4703660000000 1.0
C      1  0.5136210000000  0.4455590000000  0.5356970000000 1.0
C      1  0.5201920000000  0.5550480000000  0.5049150000000 1.0
C      1  0.5048800000000  0.5596060000000  0.4776410000000 1.0
C      1  0.5629590000000  0.5039280000000  0.5191390000000 1.0
C      1  0.4796520000000  0.4422420000000  0.4776040000000 1.0
C      1  0.4914340000000  0.4637950000000  0.5263850000000 1.0
C      1  0.4454790000000  0.4752460000000  0.4967690000000 1.0
C      1  0.5384850000000  0.4495850000000  0.5328950000000 1.0
C      1  0.5002250000000  0.5528650000000  0.5296050000000 1.0
C      1  0.5463160000000  0.4749690000000  0.5174200000000 1.0
C      1  0.5474410000000  0.5531020000000  0.5208910000000 1.0
C      1  0.6034040000000  0.4990790000000  0.4899710000000 1.0
C      1  0.4411770000000  0.4924960000000  0.5215070000000 1.0
C      1  0.5264520000000  0.5271280000000  0.4856850000000 1.0
C      1  0.4323680000000  0.5210540000000  0.4644540000000 1.0
END
