TITL C-2778434-4341-1334 0.273238582270628 125000 -148.805758244732 0 0 26 (C1) n - 1
REM
REM in /home/nfs/bkarasulu/CARBON/AIRSS/Generating-Clusters/REBO/Only-C1/SD-CG/HFTN-CG
REM
REM
REM
REM
REM
REM ./C.cell (11c1c37f851c82e70ff6c80c92926a4b)
REM
REM compiler GCC version 9.2.1 20190827 (Red Hat 9.2.1-1)
REM options -cpp -mtune=generic -march=x86-64 -g -O0 -fpre-include=/usr/include/finclude/math-vector-fortran.h
REM seed -77810025 381775332 -1210730672 -124031489 -319451397 1577091999 -1525154610 -1239357512 -826563310 616254867 -1519498291 -1373154683 404974565 -1775123813 -908188740 786005091 -273417476 1825484108 1695445680 -166787935 1277464516 727822211 1163225095 2089539938 124771947 1145813084 1877232858 -92913123 -132489046 -1897751253 940698784 1701594055 1634544456
REM
CELL 1.54180   50.00000   50.00000   50.00000   90.00000   90.00000   90.00000
LATT -1
SFAC C  
C      1  0.4686960000000  0.5468490000000  0.5320390000000 1.0
C      1  0.5135940000000  0.4375320000000  0.4738420000000 1.0
C      1  0.5172330000000  0.5004060000000  0.4550520000000 1.0
C      1  0.4460870000000  0.4388490000000  0.5206390000000 1.0
C      1  0.4714310000000  0.4091970000000  0.5634310000000 1.0
C      1  0.5339840000000  0.5686870000000  0.5049910000000 1.0
C      1  0.5207420000000  0.5249380000000  0.4689330000000 1.0
C      1  0.5007260000000  0.5350780000000  0.4862560000000 1.0
C      1  0.4755110000000  0.5230830000000  0.4912380000000 1.0
C      1  0.5291880000000  0.4539290000000  0.4593850000000 1.0
C      1  0.4951310000000  0.4295900000000  0.4914990000000 1.0
C      1  0.5078650000000  0.5555710000000  0.5044580000000 1.0
C      1  0.5330370000000  0.5859770000000  0.5284660000000 1.0
C      1  0.4448020000000  0.4687270000000  0.5261020000000 1.0
C      1  0.5521430000000  0.5580830000000  0.4861820000000 1.0
C      1  0.4468900000000  0.4940530000000  0.5268140000000 1.0
C      1  0.5674710000000  0.5171810000000  0.4594030000000 1.0
C      1  0.5082770000000  0.5825240000000  0.5420860000000 1.0
C      1  0.5633200000000  0.4908980000000  0.4515670000000 1.0
C      1  0.4615360000000  0.5251740000000  0.5156030000000 1.0
C      1  0.4666320000000  0.4208380000000  0.5397120000000 1.0
C      1  0.4918420000000  0.5628010000000  0.5281210000000 1.0
C      1  0.5369520000000  0.4799120000000  0.4524100000000 1.0
C      1  0.4228630000000  0.4270180000000  0.5109760000000 1.0
C      1  0.5479480000000  0.5349460000000  0.4702170000000 1.0
C      1  0.4760980000000  0.4281570000000  0.5105790000000 1.0
END
