TITL C-2778434-4341-1164 -0.00407077764332295 125000 -764.06947777672 0 0 130 (C1) n - 1
REM
REM in /home/nfs/bkarasulu/CARBON/AIRSS/Generating-Clusters/REBO/Only-C1/SD-CG/HFTN-CG
REM
REM
REM
REM
REM
REM ./C.cell (11c1c37f851c82e70ff6c80c92926a4b)
REM
REM compiler GCC version 9.2.1 20190827 (Red Hat 9.2.1-1)
REM options -cpp -mtune=generic -march=x86-64 -g -O0 -fpre-include=/usr/include/finclude/math-vector-fortran.h
REM seed 2104590278 2039052668 -2052484348 -1401631173 53925867 1492233485 147892787 724088550 1259729530 1566306372 1975457415 -270464437 498912353 1027777902 -1787479811 1591665265 971066054 981713106 -1161545269 615218106 597680965 -1314324727 -72329820 1048060783 -1774651551 393294660 1570422051 -2097172958 -331894806 -17932612 -1058817828 853224179 -1212592176
REM
CELL 1.54180   50.00000   50.00000   50.00000   90.00000   90.00000   90.00000
LATT -1
SFAC C  
C      1  0.5920220000000  0.5045330000000  0.5396750000000 1.0
C      1  0.4459810000000  0.4597390000000  0.5589730000000 1.0
C      1  0.5534930000000  0.5024120000000  0.5496710000000 1.0
C      1  0.4371120000000  0.5330880000000  0.5625690000000 1.0
C      1  0.4545710000000  0.4452170000000  0.4880280000000 1.0
C      1  0.4299110000000  0.4244040000000  0.4903130000000 1.0
C      1  0.5056450000000  0.4974770000000  0.4929510000000 1.0
C      1  0.4823890000000  0.4336970000000  0.4969590000000 1.0
C      1  0.4533790000000  0.5431400000000  0.4968940000000 1.0
C      1  0.5283300000000  0.5831990000000  0.4499390000000 1.0
C      1  0.4593580000000  0.4265020000000  0.5288580000000 1.0
C      1  0.4528090000000  0.4090440000000  0.5073130000000 1.0
C      1  0.4885750000000  0.4633220000000  0.4816700000000 1.0
C      1  0.4776360000000  0.4568900000000  0.4115720000000 1.0
C      1  0.5703070000000  0.4105390000000  0.5354260000000 1.0
C      1  0.4747380000000  0.4615910000000  0.4445220000000 1.0
C      1  0.4952550000000  0.4736220000000  0.5641340000000 1.0
C      1  0.5924490000000  0.4925440000000  0.4930380000000 1.0
C      1  0.4562300000000  0.5072300000000  0.4715890000000 1.0
C      1  0.5087910000000  0.4022140000000  0.5053340000000 1.0
C      1  0.4838760000000  0.5766460000000  0.4723380000000 1.0
C      1  0.5377920000000  0.5765060000000  0.4850220000000 1.0
C      1  0.4395470000000  0.4461350000000  0.5350880000000 1.0
C      1  0.4359140000000  0.4852050000000  0.5621460000000 1.0
C      1  0.4910560000000  0.5977780000000  0.4953350000000 1.0
C      1  0.4887440000000  0.4900990000000  0.5150720000000 1.0
C      1  0.5102050000000  0.4281380000000  0.5600560000000 1.0
C      1  0.4279330000000  0.4847290000000  0.4417290000000 1.0
C      1  0.4539120000000  0.5070680000000  0.5484700000000 1.0
C      1  0.4263470000000  0.5536620000000  0.5404100000000 1.0
C      1  0.4661220000000  0.4307300000000  0.4526090000000 1.0
C      1  0.5501440000000  0.4552640000000  0.5489830000000 1.0
C      1  0.5904460000000  0.4648160000000  0.4929370000000 1.0
C      1  0.5378410000000  0.5050820000000  0.5214330000000 1.0
C      1  0.5809850000000  0.4475700000000  0.4706420000000 1.0
C      1  0.5761430000000  0.4770330000000  0.5453710000000 1.0
C      1  0.5342140000000  0.5440300000000  0.5140640000000 1.0
C      1  0.5156670000000  0.5642020000000  0.4297470000000 1.0
C      1  0.4662170000000  0.4616100000000  0.6036020000000 1.0
C      1  0.5072260000000  0.5632580000000  0.5227230000000 1.0
C      1  0.4004230000000  0.5339640000000  0.4966960000000 1.0
C      1  0.5303620000000  0.5230180000000  0.4631340000000 1.0
C      1  0.5761430000000  0.5255770000000  0.5531910000000 1.0
C      1  0.5688670000000  0.4990270000000  0.4530350000000 1.0
C      1  0.4895660000000  0.4289660000000  0.4273560000000 1.0
C      1  0.4759600000000  0.5176510000000  0.4456960000000 1.0
C      1  0.4993970000000  0.5282480000000  0.5509650000000 1.0
C      1  0.4991890000000  0.5026740000000  0.5710890000000 1.0
C      1  0.5601560000000  0.4260360000000  0.5554850000000 1.0
C      1  0.4712150000000  0.4559800000000  0.5763130000000 1.0
C      1  0.5120420000000  0.4596210000000  0.5038120000000 1.0
C      1  0.5245290000000  0.4562690000000  0.5646130000000 1.0
C      1  0.4164130000000  0.5080150000000  0.5615170000000 1.0
C      1  0.5683560000000  0.5253850000000  0.4356000000000 1.0
C      1  0.4784260000000  0.5505780000000  0.4671530000000 1.0
C      1  0.5115610000000  0.4151980000000  0.4768940000000 1.0
C      1  0.5605420000000  0.4545770000000  0.4514940000000 1.0
C      1  0.4445460000000  0.5044300000000  0.5015130000000 1.0
C      1  0.4525510000000  0.4764060000000  0.4248380000000 1.0
C      1  0.4586680000000  0.5623800000000  0.5462360000000 1.0
C      1  0.5439430000000  0.5018020000000  0.4323420000000 1.0
C      1  0.5343950000000  0.4803960000000  0.4904530000000 1.0
C      1  0.5304830000000  0.5835450000000  0.5120470000000 1.0
C      1  0.5295030000000  0.4912750000000  0.4614810000000 1.0
C      1  0.5264340000000  0.4764380000000  0.6127500000000 1.0
C      1  0.4842830000000  0.5294740000000  0.5029150000000 1.0
C      1  0.5473120000000  0.5461470000000  0.4763790000000 1.0
C      1  0.4882040000000  0.5530360000000  0.5568350000000 1.0
C      1  0.5303980000000  0.5415720000000  0.5755510000000 1.0
C      1  0.4752860000000  0.5558720000000  0.5191730000000 1.0
C      1  0.5763660000000  0.4250110000000  0.5123950000000 1.0
C      1  0.5996430000000  0.5116250000000  0.5131140000000 1.0
C      1  0.4937310000000  0.5206720000000  0.4736490000000 1.0
C      1  0.4596540000000  0.5338740000000  0.5846500000000 1.0
C      1  0.4160860000000  0.4744920000000  0.4954960000000 1.0
C      1  0.5771180000000  0.5703960000000  0.4869910000000 1.0
C      1  0.5016600000000  0.4776270000000  0.4564810000000 1.0
C      1  0.4372320000000  0.5660970000000  0.5129070000000 1.0
C      1  0.4472120000000  0.5420820000000  0.3994170000000 1.0
C      1  0.5328560000000  0.5086560000000  0.5716520000000 1.0
C      1  0.4633520000000  0.5014100000000  0.5221750000000 1.0
C      1  0.5234080000000  0.5070980000000  0.4121700000000 1.0
C      1  0.4748710000000  0.4986660000000  0.4192600000000 1.0
C      1  0.4266160000000  0.5366660000000  0.4422240000000 1.0
C      1  0.4292350000000  0.5515050000000  0.4182290000000 1.0
C      1  0.5070240000000  0.5466380000000  0.5915140000000 1.0
C      1  0.4284600000000  0.4755470000000  0.4685280000000 1.0
C      1  0.5702610000000  0.5031750000000  0.4797790000000 1.0
C      1  0.4856430000000  0.5274610000000  0.5883740000000 1.0
C      1  0.5436790000000  0.5605230000000  0.5577270000000 1.0
C      1  0.5092210000000  0.5234270000000  0.5230990000000 1.0
C      1  0.4893950000000  0.5837570000000  0.5435000000000 1.0
C      1  0.4224650000000  0.4506770000000  0.5106430000000 1.0
C      1  0.4785560000000  0.4001280000000  0.4935780000000 1.0
C      1  0.5934920000000  0.5382500000000  0.5035050000000 1.0
C      1  0.5670910000000  0.5503330000000  0.5453420000000 1.0
C      1  0.4889100000000  0.4374960000000  0.5276380000000 1.0
C      1  0.5787790000000  0.4216180000000  0.4841340000000 1.0
C      1  0.4127630000000  0.5038230000000  0.5071040000000 1.0
C      1  0.4487060000000  0.5908160000000  0.5151980000000 1.0
C      1  0.4867210000000  0.5455990000000  0.4287260000000 1.0
C      1  0.5027350000000  0.4874470000000  0.4135340000000 1.0
C      1  0.5196940000000  0.5378440000000  0.4079280000000 1.0
C      1  0.5319560000000  0.4523470000000  0.4510570000000 1.0
C      1  0.4587520000000  0.4752670000000  0.4783850000000 1.0
C      1  0.5984180000000  0.5482500000000  0.4750800000000 1.0
C      1  0.4030770000000  0.5376040000000  0.5260130000000 1.0
C      1  0.5595230000000  0.5800250000000  0.4594450000000 1.0
C      1  0.4376760000000  0.4241370000000  0.4592480000000 1.0
C      1  0.4986550000000  0.4664960000000  0.5337140000000 1.0
C      1  0.5352410000000  0.5837530000000  0.5422100000000 1.0
C      1  0.5218380000000  0.4419360000000  0.4765500000000 1.0
C      1  0.5723180000000  0.5491280000000  0.4539140000000 1.0
C      1  0.5762870000000  0.4556730000000  0.5188060000000 1.0
C      1  0.5081130000000  0.5967030000000  0.4677090000000 1.0
C      1  0.5146930000000  0.5328980000000  0.4414270000000 1.0
C      1  0.5523410000000  0.5209410000000  0.4963550000000 1.0
C      1  0.4930870000000  0.4108470000000  0.4558850000000 1.0
C      1  0.4693890000000  0.5289860000000  0.4081350000000 1.0
C      1  0.4166060000000  0.5103270000000  0.4382540000000 1.0
C      1  0.4195460000000  0.4182550000000  0.4409420000000 1.0
C      1  0.4853540000000  0.4279510000000  0.5721610000000 1.0
C      1  0.5276740000000  0.4797820000000  0.5866970000000 1.0
C      1  0.4008310000000  0.5103060000000  0.5383200000000 1.0
C      1  0.5464850000000  0.4721290000000  0.5195860000000 1.0
C      1  0.4471860000000  0.5383140000000  0.4642630000000 1.0
C      1  0.4760320000000  0.5978130000000  0.5192140000000 1.0
C      1  0.5667300000000  0.5541570000000  0.5146110000000 1.0
C      1  0.5114970000000  0.4155930000000  0.5318610000000 1.0
C      1  0.5095970000000  0.4564280000000  0.4257300000000 1.0
END
