TITL C-2778429-3646-196 -0.00298246530506016 125000 -445.258683626215 0 0 76 (C1) n - 1
REM
REM in /home/nfs/bkarasulu/CARBON/AIRSS/Generating-Clusters/REBO/Only-C1/SD-CG/HFTN-CG
REM
REM
REM
REM
REM
REM ./C.cell (11c1c37f851c82e70ff6c80c92926a4b)
REM
REM compiler GCC version 9.2.1 20190827 (Red Hat 9.2.1-1)
REM options -cpp -mtune=generic -march=x86-64 -g -O0 -fpre-include=/usr/include/finclude/math-vector-fortran.h
REM seed -1506840086 1160314686 -116807388 -2018903331 -1922552529 -1985652294 1988465943 1095565493 -417278406 1300859636 -5390686 532215128 -1532877297 -1467581236 1434656238 1634052704 1272715042 -1195580154 256039910 -530769202 -78357579 1687416987 471023356 1160317535 2140192815 -2100390718 -662390289 -127480608 1475030673 1829410190 1329827874 34945262 -2095966923
REM
CELL 1.54180   50.00000   50.00000   50.00000   90.00000   90.00000   90.00000
LATT -1
SFAC C  
C      1  0.5726430000000  0.5496170000000  0.5030580000000 1.0
C      1  0.4802880000000  0.5091530000000  0.4597930000000 1.0
C      1  0.5823020000000  0.4864520000000  0.4696870000000 1.0
C      1  0.4635290000000  0.4079620000000  0.4908640000000 1.0
C      1  0.4323040000000  0.4665870000000  0.5311880000000 1.0
C      1  0.5452940000000  0.4682970000000  0.4127270000000 1.0
C      1  0.5337280000000  0.4808310000000  0.4971730000000 1.0
C      1  0.4667240000000  0.5664310000000  0.4866280000000 1.0
C      1  0.4880180000000  0.5618610000000  0.4683620000000 1.0
C      1  0.5136450000000  0.4744290000000  0.5462780000000 1.0
C      1  0.4747510000000  0.4791080000000  0.4201500000000 1.0
C      1  0.4644160000000  0.4147390000000  0.4641210000000 1.0
C      1  0.4151220000000  0.5228940000000  0.5098560000000 1.0
C      1  0.5879260000000  0.4931120000000  0.5028680000000 1.0
C      1  0.4298700000000  0.5407080000000  0.5253150000000 1.0
C      1  0.4842630000000  0.4412910000000  0.5199920000000 1.0
C      1  0.5256710000000  0.5193560000000  0.5133410000000 1.0
C      1  0.4290350000000  0.4926450000000  0.4048840000000 1.0
C      1  0.4649630000000  0.4624940000000  0.4783280000000 1.0
C      1  0.4816760000000  0.4886840000000  0.4846510000000 1.0
C      1  0.5539910000000  0.5543280000000  0.5819630000000 1.0
C      1  0.5366300000000  0.5105560000000  0.5679360000000 1.0
C      1  0.4961930000000  0.5328330000000  0.4690460000000 1.0
C      1  0.4637490000000  0.5194360000000  0.5222490000000 1.0
C      1  0.5350090000000  0.5499040000000  0.5370660000000 1.0
C      1  0.4620950000000  0.5166950000000  0.5766670000000 1.0
C      1  0.5294020000000  0.4505200000000  0.4613700000000 1.0
C      1  0.5561640000000  0.5315290000000  0.5223290000000 1.0
C      1  0.5607110000000  0.5704400000000  0.4899790000000 1.0
C      1  0.4657060000000  0.4412820000000  0.4544950000000 1.0
C      1  0.5380290000000  0.5204000000000  0.4512210000000 1.0
C      1  0.5327600000000  0.5493570000000  0.4471950000000 1.0
C      1  0.4374690000000  0.4417220000000  0.5131590000000 1.0
C      1  0.4805450000000  0.4954040000000  0.5142570000000 1.0
C      1  0.4048020000000  0.5214090000000  0.4796070000000 1.0
C      1  0.5726920000000  0.5076690000000  0.5303810000000 1.0
C      1  0.5181250000000  0.4997620000000  0.4510070000000 1.0
C      1  0.5060390000000  0.4398010000000  0.5017940000000 1.0
C      1  0.4696910000000  0.4739860000000  0.5598020000000 1.0
C      1  0.4611540000000  0.4266790000000  0.5122840000000 1.0
C      1  0.5608780000000  0.4786080000000  0.5176750000000 1.0
C      1  0.4719560000000  0.4520890000000  0.4291370000000 1.0
C      1  0.5500010000000  0.4468650000000  0.4840730000000 1.0
C      1  0.5344240000000  0.4496710000000  0.5114170000000 1.0
C      1  0.4947800000000  0.4950090000000  0.4332300000000 1.0
C      1  0.5468550000000  0.4608120000000  0.4382130000000 1.0
C      1  0.5322340000000  0.5724300000000  0.4919040000000 1.0
C      1  0.4343840000000  0.5029080000000  0.5661810000000 1.0
C      1  0.4980600000000  0.4538650000000  0.4742100000000 1.0
C      1  0.5596420000000  0.4960620000000  0.5571260000000 1.0
C      1  0.5055540000000  0.5488590000000  0.5776180000000 1.0
C      1  0.4515440000000  0.5098070000000  0.4458570000000 1.0
C      1  0.4647490000000  0.5412010000000  0.5058170000000 1.0
C      1  0.5121020000000  0.4959980000000  0.5689000000000 1.0
C      1  0.5582300000000  0.4671710000000  0.5558540000000 1.0
C      1  0.5183330000000  0.5659820000000  0.4674190000000 1.0
C      1  0.5162380000000  0.5276680000000  0.4881600000000 1.0
C      1  0.4387250000000  0.4718520000000  0.4978780000000 1.0
C      1  0.5622100000000  0.5123360000000  0.4639620000000 1.0
C      1  0.4502310000000  0.4948940000000  0.4215110000000 1.0
C      1  0.4267030000000  0.4971950000000  0.4904510000000 1.0
C      1  0.4824240000000  0.5548820000000  0.5865630000000 1.0
C      1  0.5566660000000  0.5037750000000  0.4940060000000 1.0
C      1  0.5130610000000  0.4836870000000  0.4764170000000 1.0
C      1  0.5335750000000  0.5415640000000  0.5667820000000 1.0
C      1  0.5102800000000  0.4987730000000  0.5253590000000 1.0
C      1  0.5231170000000  0.5673000000000  0.5190700000000 1.0
C      1  0.4425310000000  0.5647250000000  0.5096140000000 1.0
C      1  0.5370910000000  0.4569800000000  0.5413210000000 1.0
C      1  0.5675110000000  0.4621020000000  0.4629710000000 1.0
C      1  0.4471110000000  0.5270270000000  0.5481900000000 1.0
C      1  0.4413190000000  0.4768520000000  0.5556010000000 1.0
C      1  0.4298750000000  0.5147230000000  0.4613340000000 1.0
C      1  0.4831870000000  0.4963440000000  0.5743530000000 1.0
C      1  0.4848780000000  0.4681020000000  0.5340630000000 1.0
C      1  0.5424160000000  0.5615220000000  0.4246940000000 1.0
END
