TITL C-2778425-5191-592 -0.000503675479771009 125000 -127.115793021556 0 0 23 (C1) n - 1
REM
REM in /home/nfs/bkarasulu/CARBON/AIRSS/Generating-Clusters/REBO/Only-C1/SD-CG/HFTN-CG
REM
REM
REM
REM
REM
REM ./C.cell (11c1c37f851c82e70ff6c80c92926a4b)
REM
REM compiler GCC version 9.2.1 20190827 (Red Hat 9.2.1-1)
REM options -cpp -mtune=generic -march=x86-64 -g -O0 -fpre-include=/usr/include/finclude/math-vector-fortran.h
REM seed -1895688489 1039443331 1733685530 455798305 1071610729 834212630 -1005101290 763260085 -2085122469 -718472250 -1925352992 -684816940 -923750847 -1762361425 1615926791 -731340925 742313158 1144466485 1719380429 1754947627 317470770 750981876 227331318 229048279 591358248 1898668281 1047548703 -1693030551 -1208858509 98997794 1656233684 -886118112 2099762372
REM
CELL 1.54180   50.00000   50.00000   50.00000   90.00000   90.00000   90.00000
LATT -1
SFAC C  
C      1  0.4989010000000  0.4611660000000  0.5710170000000 1.0
C      1  0.4914100000000  0.4587420000000  0.5455770000000 1.0
C      1  0.4686370000000  0.4513720000000  0.4682350000000 1.0
C      1  0.4754280000000  0.5129130000000  0.4780660000000 1.0
C      1  0.5401410000000  0.5357980000000  0.5233120000000 1.0
C      1  0.4703190000000  0.5470820000000  0.4787200000000 1.0
C      1  0.4636270000000  0.5218440000000  0.4348670000000 1.0
C      1  0.5621830000000  0.5379780000000  0.5380970000000 1.0
C      1  0.6062670000000  0.5423380000000  0.5676670000000 1.0
C      1  0.4679460000000  0.5006290000000  0.4536500000000 1.0
C      1  0.4554450000000  0.4325430000000  0.4270340000000 1.0
C      1  0.4659240000000  0.5468940000000  0.4466060000000 1.0
C      1  0.4839190000000  0.4563180000000  0.5201370000000 1.0
C      1  0.4646160000000  0.4733510000000  0.4488210000000 1.0
C      1  0.5842250000000  0.5401580000000  0.5528820000000 1.0
C      1  0.4564580000000  0.4606870000000  0.4235940000000 1.0
C      1  0.5062730000000  0.4635510000000  0.5960530000000 1.0
C      1  0.4958050000000  0.5314120000000  0.4935730000000 1.0
C      1  0.4627080000000  0.4264760000000  0.4537810000000 1.0
C      1  0.5180990000000  0.5336170000000  0.5085270000000 1.0
C      1  0.4572800000000  0.5667530000000  0.4928710000000 1.0
C      1  0.4764290000000  0.4538940000000  0.4946960000000 1.0
C      1  0.6279580000000  0.5444840000000  0.5822170000000 1.0
END
