TITL C-2778429-3646-577 0.00397826151499061 125000 -1084.57978080983 0 0 188 (C1) n - 1
REM
REM in /home/nfs/bkarasulu/CARBON/AIRSS/Generating-Clusters/REBO/Only-C1/SD-CG/HFTN-CG
REM
REM
REM
REM
REM
REM ./C.cell (11c1c37f851c82e70ff6c80c92926a4b)
REM
REM compiler GCC version 9.2.1 20190827 (Red Hat 9.2.1-1)
REM options -cpp -mtune=generic -march=x86-64 -g -O0 -fpre-include=/usr/include/finclude/math-vector-fortran.h
REM seed -1627705065 1832366915 -752440199 -411290017 -645770325 545965759 -1783498401 1653950324 -198954929 -337728534 -1354603842 -1408670708 37219102 -1639422724 1985364227 915908548 1593276232 -1317741443 -727520842 -1022790765 1887649532 113822138 -1088194201 -358471317 -234932390 -58540569 -1379995330 853371602 -1559163110 -1233366946 -997630448 710274859 316869682
REM
CELL 1.54180   50.00000   50.00000   50.00000   90.00000   90.00000   90.00000
LATT -1
SFAC C  
C      1  0.5424880000000  0.5380640000000  0.4763630000000 1.0
C      1  0.5359150000000  0.4067500000000  0.4596600000000 1.0
C      1  0.4423440000000  0.5214810000000  0.4614810000000 1.0
C      1  0.4236360000000  0.5329270000000  0.4141410000000 1.0
C      1  0.4753840000000  0.4449790000000  0.5896450000000 1.0
C      1  0.4979430000000  0.4808130000000  0.6166830000000 1.0
C      1  0.5965750000000  0.5060400000000  0.4966150000000 1.0
C      1  0.5001090000000  0.5403430000000  0.3571160000000 1.0
C      1  0.4404040000000  0.5818820000000  0.5418720000000 1.0
C      1  0.5218840000000  0.5980240000000  0.5341130000000 1.0
C      1  0.4955040000000  0.3838600000000  0.5170800000000 1.0
C      1  0.3989050000000  0.5596120000000  0.5141820000000 1.0
C      1  0.5299580000000  0.4447550000000  0.4704680000000 1.0
C      1  0.4506530000000  0.4128920000000  0.5195450000000 1.0
C      1  0.4033370000000  0.4672520000000  0.5548730000000 1.0
C      1  0.4317830000000  0.4947800000000  0.5176280000000 1.0
C      1  0.5882370000000  0.5195080000000  0.5537910000000 1.0
C      1  0.4399230000000  0.5829160000000  0.4960990000000 1.0
C      1  0.4532080000000  0.4255560000000  0.4656160000000 1.0
C      1  0.5278550000000  0.5245620000000  0.4487880000000 1.0
C      1  0.4730030000000  0.5864220000000  0.4891760000000 1.0
C      1  0.4788140000000  0.4419980000000  0.5615280000000 1.0
C      1  0.4773790000000  0.5353640000000  0.5533790000000 1.0
C      1  0.4256300000000  0.5787380000000  0.4680180000000 1.0
C      1  0.5116120000000  0.4001750000000  0.4751250000000 1.0
C      1  0.4833970000000  0.5633970000000  0.5198840000000 1.0
C      1  0.5690620000000  0.4375300000000  0.4385160000000 1.0
C      1  0.4755990000000  0.6005740000000  0.4419690000000 1.0
C      1  0.5212390000000  0.4730020000000  0.5528220000000 1.0
C      1  0.4786700000000  0.5070830000000  0.4530030000000 1.0
C      1  0.5432100000000  0.4194150000000  0.4365180000000 1.0
C      1  0.5504690000000  0.5569720000000  0.4286190000000 1.0
C      1  0.4199980000000  0.5469330000000  0.4603770000000 1.0
C      1  0.5589480000000  0.4421350000000  0.4843270000000 1.0
C      1  0.5936440000000  0.5492040000000  0.4646310000000 1.0
C      1  0.5690960000000  0.4696220000000  0.5650190000000 1.0
C      1  0.5806720000000  0.4673070000000  0.4518140000000 1.0
C      1  0.4638350000000  0.5634050000000  0.5672690000000 1.0
C      1  0.4613440000000  0.4968250000000  0.5005000000000 1.0
C      1  0.5191810000000  0.4965020000000  0.4838030000000 1.0
C      1  0.4737010000000  0.4680860000000  0.5478060000000 1.0
C      1  0.5332170000000  0.5652160000000  0.4946080000000 1.0
C      1  0.5038520000000  0.6087360000000  0.4926890000000 1.0
C      1  0.6167860000000  0.5037490000000  0.5308900000000 1.0
C      1  0.5999470000000  0.4554060000000  0.5309860000000 1.0
C      1  0.5007240000000  0.5671620000000  0.4156080000000 1.0
C      1  0.5111590000000  0.4445400000000  0.4002110000000 1.0
C      1  0.4253620000000  0.4697620000000  0.4262590000000 1.0
C      1  0.5227470000000  0.5557260000000  0.3545600000000 1.0
C      1  0.4552270000000  0.5156440000000  0.4314570000000 1.0
C      1  0.4795000000000  0.5597480000000  0.5956010000000 1.0
C      1  0.5220410000000  0.4634960000000  0.6186850000000 1.0
C      1  0.4536280000000  0.5421640000000  0.4139410000000 1.0
C      1  0.5534630000000  0.5881880000000  0.4821090000000 1.0
C      1  0.4518830000000  0.4507250000000  0.4163500000000 1.0
C      1  0.5062770000000  0.5096030000000  0.6021390000000 1.0
C      1  0.5542050000000  0.4508210000000  0.5169110000000 1.0
C      1  0.5181310000000  0.3875300000000  0.5008750000000 1.0
C      1  0.4739770000000  0.5045970000000  0.6158370000000 1.0
C      1  0.4987240000000  0.4700550000000  0.5051400000000 1.0
C      1  0.5558580000000  0.5608290000000  0.5800320000000 1.0
C      1  0.5205130000000  0.4239120000000  0.5318010000000 1.0
C      1  0.5282830000000  0.5018170000000  0.5146400000000 1.0
C      1  0.4481480000000  0.5151500000000  0.5358600000000 1.0
C      1  0.4189770000000  0.5028580000000  0.4189550000000 1.0
C      1  0.4605270000000  0.4673310000000  0.5175560000000 1.0
C      1  0.4175250000000  0.4437980000000  0.5063720000000 1.0
C      1  0.4856950000000  0.5228520000000  0.5830100000000 1.0
C      1  0.5745370000000  0.5019480000000  0.4707000000000 1.0
C      1  0.4974060000000  0.4839470000000  0.4395330000000 1.0
C      1  0.6159370000000  0.4768010000000  0.5328920000000 1.0
C      1  0.4557270000000  0.5917680000000  0.4606200000000 1.0
C      1  0.5428250000000  0.4797800000000  0.5766510000000 1.0
C      1  0.5184750000000  0.4365500000000  0.6092670000000 1.0
C      1  0.4901780000000  0.4213570000000  0.5441670000000 1.0
C      1  0.4364660000000  0.4617400000000  0.5605560000000 1.0
C      1  0.5476960000000  0.4031600000000  0.4917810000000 1.0
C      1  0.4084290000000  0.5475920000000  0.4317960000000 1.0
C      1  0.4421610000000  0.4328630000000  0.4956170000000 1.0
C      1  0.5432590000000  0.5533750000000  0.5508010000000 1.0
C      1  0.5672610000000  0.5307470000000  0.5732910000000 1.0
C      1  0.5212930000000  0.4721400000000  0.3960230000000 1.0
C      1  0.5833070000000  0.5243260000000  0.4464300000000 1.0
C      1  0.4863210000000  0.5053330000000  0.4831180000000 1.0
C      1  0.4793130000000  0.4964750000000  0.5648840000000 1.0
C      1  0.5259450000000  0.4586180000000  0.4993180000000 1.0
C      1  0.4425460000000  0.5470590000000  0.5322270000000 1.0
C      1  0.4055210000000  0.5601270000000  0.4882690000000 1.0
C      1  0.4292020000000  0.5944020000000  0.5193000000000 1.0
C      1  0.4130960000000  0.4674880000000  0.5246140000000 1.0
C      1  0.5190530000000  0.4445500000000  0.5581760000000 1.0
C      1  0.5095390000000  0.5567010000000  0.4637900000000 1.0
C      1  0.4119180000000  0.4987930000000  0.4499230000000 1.0
C      1  0.5721030000000  0.4839340000000  0.5278510000000 1.0
C      1  0.5348250000000  0.5579400000000  0.6029710000000 1.0
C      1  0.4690740000000  0.4748510000000  0.5994380000000 1.0
C      1  0.4978400000000  0.4454630000000  0.4498490000000 1.0
C      1  0.5038790000000  0.5756830000000  0.4983520000000 1.0
C      1  0.5900970000000  0.4453430000000  0.4715010000000 1.0
C      1  0.5335510000000  0.5102600000000  0.5885480000000 1.0
C      1  0.5277920000000  0.5275010000000  0.4146600000000 1.0
C      1  0.3911250000000  0.5129450000000  0.5446720000000 1.0
C      1  0.4437360000000  0.5237340000000  0.4929290000000 1.0
C      1  0.5266490000000  0.4264670000000  0.5012040000000 1.0
C      1  0.5670370000000  0.5826120000000  0.5114250000000 1.0
C      1  0.5102140000000  0.5093510000000  0.5562750000000 1.0
C      1  0.5526990000000  0.5097460000000  0.4072830000000 1.0
C      1  0.5062590000000  0.5241970000000  0.5121190000000 1.0
C      1  0.4965590000000  0.4839670000000  0.5313150000000 1.0
C      1  0.3989690000000  0.4948010000000  0.5648770000000 1.0
C      1  0.5595650000000  0.4641570000000  0.4201720000000 1.0
C      1  0.3903480000000  0.4719660000000  0.4717450000000 1.0
C      1  0.4100440000000  0.4814110000000  0.4952650000000 1.0
C      1  0.5226960000000  0.5940220000000  0.4683340000000 1.0
C      1  0.4630820000000  0.5602610000000  0.4694790000000 1.0
C      1  0.4219240000000  0.4653040000000  0.4683050000000 1.0
C      1  0.4296320000000  0.5610620000000  0.5667190000000 1.0
C      1  0.5456610000000  0.4248430000000  0.5548210000000 1.0
C      1  0.5473990000000  0.4819730000000  0.4023240000000 1.0
C      1  0.4626440000000  0.4578580000000  0.4871310000000 1.0
C      1  0.6010870000000  0.4909970000000  0.4519330000000 1.0
C      1  0.4741420000000  0.5464260000000  0.4485090000000 1.0
C      1  0.5797750000000  0.4124460000000  0.4984920000000 1.0
C      1  0.4883080000000  0.5338380000000  0.3814410000000 1.0
C      1  0.4816140000000  0.5146000000000  0.5294170000000 1.0
C      1  0.5020240000000  0.5829430000000  0.4431800000000 1.0
C      1  0.4855860000000  0.4154290000000  0.4739460000000 1.0
C      1  0.5445310000000  0.4778350000000  0.6089580000000 1.0
C      1  0.4976140000000  0.4876820000000  0.4083140000000 1.0
C      1  0.5740080000000  0.4169790000000  0.4651730000000 1.0
C      1  0.5432570000000  0.5139200000000  0.5558410000000 1.0
C      1  0.4728330000000  0.5841690000000  0.5417300000000 1.0
C      1  0.4222120000000  0.5341560000000  0.5852670000000 1.0
C      1  0.4164610000000  0.4364120000000  0.5494840000000 1.0
C      1  0.4839690000000  0.4468660000000  0.4069230000000 1.0
C      1  0.5084010000000  0.5546630000000  0.5911660000000 1.0
C      1  0.5947090000000  0.5281600000000  0.5222530000000 1.0
C      1  0.5938930000000  0.4431940000000  0.5032550000000 1.0
C      1  0.5697520000000  0.5580280000000  0.4805400000000 1.0
C      1  0.4952510000000  0.6037780000000  0.5252620000000 1.0
C      1  0.5762100000000  0.5527280000000  0.5135440000000 1.0
C      1  0.4702660000000  0.4756670000000  0.4003090000000 1.0
C      1  0.5407420000000  0.4799320000000  0.5294710000000 1.0
C      1  0.5520070000000  0.4861780000000  0.4867120000000 1.0
C      1  0.5847740000000  0.4915870000000  0.5530320000000 1.0
C      1  0.6099310000000  0.5195570000000  0.4684910000000 1.0
C      1  0.5382950000000  0.5686350000000  0.4513250000000 1.0
C      1  0.5554870000000  0.5310250000000  0.5290800000000 1.0
C      1  0.4787910000000  0.5518240000000  0.4041440000000 1.0
C      1  0.4204040000000  0.5029480000000  0.5818820000000 1.0
C      1  0.4117390000000  0.5551400000000  0.5377950000000 1.0
C      1  0.4718730000000  0.4682520000000  0.4559670000000 1.0
C      1  0.5313260000000  0.4310590000000  0.5850830000000 1.0
C      1  0.4487960000000  0.4851390000000  0.5759050000000 1.0
C      1  0.5717720000000  0.4425230000000  0.5452890000000 1.0
C      1  0.4994240000000  0.5176440000000  0.4061550000000 1.0
C      1  0.4707780000000  0.4061910000000  0.4449600000000 1.0
C      1  0.4462340000000  0.4424220000000  0.5341720000000 1.0
C      1  0.5274420000000  0.4254940000000  0.4137610000000 1.0
C      1  0.4562820000000  0.5527480000000  0.5025850000000 1.0
C      1  0.4121090000000  0.5212850000000  0.4951290000000 1.0
C      1  0.5320380000000  0.5700620000000  0.5261580000000 1.0
C      1  0.4958540000000  0.5295910000000  0.4378040000000 1.0
C      1  0.5462940000000  0.4676530000000  0.4512980000000 1.0
C      1  0.4773130000000  0.4026490000000  0.5278870000000 1.0
C      1  0.4388260000000  0.4465430000000  0.4475790000000 1.0
C      1  0.4437290000000  0.4873700000000  0.4569950000000 1.0
C      1  0.4491320000000  0.5263540000000  0.5681630000000 1.0
C      1  0.4918440000000  0.4463440000000  0.4824640000000 1.0
C      1  0.5152240000000  0.5413830000000  0.5634820000000 1.0
C      1  0.5291250000000  0.5587350000000  0.4054410000000 1.0
C      1  0.5659430000000  0.5322950000000  0.4248100000000 1.0
C      1  0.5084820000000  0.5484820000000  0.5319830000000 1.0
C      1  0.3990040000000  0.5200300000000  0.5197530000000 1.0
C      1  0.4004890000000  0.5118710000000  0.4708310000000 1.0
C      1  0.4941610000000  0.4216230000000  0.4355320000000 1.0
C      1  0.5256450000000  0.4908250000000  0.4529010000000 1.0
C      1  0.4601790000000  0.5318140000000  0.6004950000000 1.0
C      1  0.5022040000000  0.5356160000000  0.4814840000000 1.0
C      1  0.5540970000000  0.5298880000000  0.6047760000000 1.0
C      1  0.5361680000000  0.5650450000000  0.3764180000000 1.0
C      1  0.5504740000000  0.5182510000000  0.4981390000000 1.0
C      1  0.4286110000000  0.3921950000000  0.5242040000000 1.0
C      1  0.5820540000000  0.4751370000000  0.4993170000000 1.0
C      1  0.5559860000000  0.5005590000000  0.6201020000000 1.0
C      1  0.4906610000000  0.4294820000000  0.6079520000000 1.0
C      1  0.4481840000000  0.4903870000000  0.4133940000000 1.0
C      1  0.5904250000000  0.4209310000000  0.5585140000000 1.0
END
