TITL C-2778431-5191-91 0.000912759986851798 125000 -588.431951111698 0 0 102 (C1) n - 1
REM
REM in /home/nfs/bkarasulu/CARBON/AIRSS/Generating-Clusters/REBO/Only-C1/SD-CG/HFTN-CG
REM
REM
REM
REM
REM
REM ./C.cell (11c1c37f851c82e70ff6c80c92926a4b)
REM
REM compiler GCC version 9.2.1 20190827 (Red Hat 9.2.1-1)
REM options -cpp -mtune=generic -march=x86-64 -g -O0 -fpre-include=/usr/include/finclude/math-vector-fortran.h
REM seed -1756273269 -1808692769 433961688 656950213 1186897139 -1682800249 -1391510667 1198133682 1175746030 -1907257985 -1639814206 -1104265491 1925232424 -2011531285 980782265 -45197111 -215529930 -1740097471 501201453 -1403601325 1723221849 766476944 -115378290 120876143 632759218 515892490 -530737882 -1392554172 -897726667 -510674197 -946891607 349826949 -700778142
REM
CELL 1.54180   50.00000   50.00000   50.00000   90.00000   90.00000   90.00000
LATT -1
SFAC C  
C      1  0.4953160000000  0.5182130000000  0.5824100000000 1.0
C      1  0.4738410000000  0.5089980000000  0.5500470000000 1.0
C      1  0.5472880000000  0.5197220000000  0.4743890000000 1.0
C      1  0.5751360000000  0.4942950000000  0.4933120000000 1.0
C      1  0.4988260000000  0.5460340000000  0.5744810000000 1.0
C      1  0.5587950000000  0.4549520000000  0.5515040000000 1.0
C      1  0.4341690000000  0.5007140000000  0.4313380000000 1.0
C      1  0.4421350000000  0.5375190000000  0.5007640000000 1.0
C      1  0.5368370000000  0.5516630000000  0.4279240000000 1.0
C      1  0.5685220000000  0.5111550000000  0.5862880000000 1.0
C      1  0.4450650000000  0.5637090000000  0.5214810000000 1.0
C      1  0.5574290000000  0.4966280000000  0.4306440000000 1.0
C      1  0.4734630000000  0.4227050000000  0.4470860000000 1.0
C      1  0.4608300000000  0.4797690000000  0.5562100000000 1.0
C      1  0.5319050000000  0.4980300000000  0.4179400000000 1.0
C      1  0.4763290000000  0.5512250000000  0.5161840000000 1.0
C      1  0.5567290000000  0.5525420000000  0.5472310000000 1.0
C      1  0.4034280000000  0.5050970000000  0.5049040000000 1.0
C      1  0.4458870000000  0.4889100000000  0.4543700000000 1.0
C      1  0.4520730000000  0.5625000000000  0.5548270000000 1.0
C      1  0.5493010000000  0.5528290000000  0.4769650000000 1.0
C      1  0.5441260000000  0.4822680000000  0.5263720000000 1.0
C      1  0.5213560000000  0.5042380000000  0.4915830000000 1.0
C      1  0.4921640000000  0.5804080000000  0.5400920000000 1.0
C      1  0.5353250000000  0.4221620000000  0.4887420000000 1.0
C      1  0.5773170000000  0.4698580000000  0.4716900000000 1.0
C      1  0.4770710000000  0.4212130000000  0.4991950000000 1.0
C      1  0.4317490000000  0.5866720000000  0.5134000000000 1.0
C      1  0.4851810000000  0.4455150000000  0.4281520000000 1.0
C      1  0.5839220000000  0.5614270000000  0.5543410000000 1.0
C      1  0.4543900000000  0.5022350000000  0.4108920000000 1.0
C      1  0.5226860000000  0.4718080000000  0.4122050000000 1.0
C      1  0.5599510000000  0.5023320000000  0.5144610000000 1.0
C      1  0.4680380000000  0.5628670000000  0.4591860000000 1.0
C      1  0.5123300000000  0.5386060000000  0.4735570000000 1.0
C      1  0.4768710000000  0.4771850000000  0.5262000000000 1.0
C      1  0.5149850000000  0.4261840000000  0.4659400000000 1.0
C      1  0.4333030000000  0.5377730000000  0.5495420000000 1.0
C      1  0.5250010000000  0.4236910000000  0.4359810000000 1.0
C      1  0.5467310000000  0.4489150000000  0.4576170000000 1.0
C      1  0.5011860000000  0.5824270000000  0.5133850000000 1.0
C      1  0.4948570000000  0.4666750000000  0.4120160000000 1.0
C      1  0.6074630000000  0.5691190000000  0.5604960000000 1.0
C      1  0.4788210000000  0.4901740000000  0.4192030000000 1.0
C      1  0.5658830000000  0.4692050000000  0.4396890000000 1.0
C      1  0.5153780000000  0.5271420000000  0.4242380000000 1.0
C      1  0.3886820000000  0.4785930000000  0.5139250000000 1.0
C      1  0.5500900000000  0.4592880000000  0.4897440000000 1.0
C      1  0.4917090000000  0.5458440000000  0.4400770000000 1.0
C      1  0.4721630000000  0.4590460000000  0.5728810000000 1.0
C      1  0.4978000000000  0.4256630000000  0.5258330000000 1.0
C      1  0.5071120000000  0.4864440000000  0.4659220000000 1.0
C      1  0.5148490000000  0.4836450000000  0.5367590000000 1.0
C      1  0.4305180000000  0.4717060000000  0.5433690000000 1.0
C      1  0.5285560000000  0.5519870000000  0.5668460000000 1.0
C      1  0.4122520000000  0.4592910000000  0.5179980000000 1.0
C      1  0.5248510000000  0.5353690000000  0.5033420000000 1.0
C      1  0.5210270000000  0.5132330000000  0.4532370000000 1.0
C      1  0.5516910000000  0.4520860000000  0.5204920000000 1.0
C      1  0.5424120000000  0.4715000000000  0.5665970000000 1.0
C      1  0.5621540000000  0.4214790000000  0.4848280000000 1.0
C      1  0.5489930000000  0.5289460000000  0.5238630000000 1.0
C      1  0.5308380000000  0.5798900000000  0.5114300000000 1.0
C      1  0.4284340000000  0.4530520000000  0.4946740000000 1.0
C      1  0.4356860000000  0.4764030000000  0.4793830000000 1.0
C      1  0.4664500000000  0.5087060000000  0.5832620000000 1.0
C      1  0.5525090000000  0.5723510000000  0.4954640000000 1.0
C      1  0.5247010000000  0.4366700000000  0.5133830000000 1.0
C      1  0.4669220000000  0.5208880000000  0.4920110000000 1.0
C      1  0.4905390000000  0.5001220000000  0.5053780000000 1.0
C      1  0.4802220000000  0.5640090000000  0.5603920000000 1.0
C      1  0.4673100000000  0.4306150000000  0.5393710000000 1.0
C      1  0.5281630000000  0.5620100000000  0.4548580000000 1.0
C      1  0.4945570000000  0.4392030000000  0.5571940000000 1.0
C      1  0.4834880000000  0.4643090000000  0.4891220000000 1.0
C      1  0.5264730000000  0.5600860000000  0.5347280000000 1.0
C      1  0.5104420000000  0.4657510000000  0.5640210000000 1.0
C      1  0.4826950000000  0.4532510000000  0.4604960000000 1.0
C      1  0.4872660000000  0.4158050000000  0.4734280000000 1.0
C      1  0.4773160000000  0.4845870000000  0.4509250000000 1.0
C      1  0.5045460000000  0.4628100000000  0.5129460000000 1.0
C      1  0.4586810000000  0.5288800000000  0.5349400000000 1.0
C      1  0.4083420000000  0.5082320000000  0.4284980000000 1.0
C      1  0.5828630000000  0.4386350000000  0.4800560000000 1.0
C      1  0.4622730000000  0.4880080000000  0.4907380000000 1.0
C      1  0.4173390000000  0.5271820000000  0.4965400000000 1.0
C      1  0.4127780000000  0.5194720000000  0.5538470000000 1.0
C      1  0.5138540000000  0.4969450000000  0.5774000000000 1.0
C      1  0.5644970000000  0.5187820000000  0.4460420000000 1.0
C      1  0.4995060000000  0.5736490000000  0.4593140000000 1.0
C      1  0.5463410000000  0.5025490000000  0.5726700000000 1.0
C      1  0.4832900000000  0.5706380000000  0.4890940000000 1.0
C      1  0.4811770000000  0.5350880000000  0.4709380000000 1.0
C      1  0.5034970000000  0.5395070000000  0.5260230000000 1.0
C      1  0.5024170000000  0.5115840000000  0.5420030000000 1.0
C      1  0.4088810000000  0.4943670000000  0.5367630000000 1.0
C      1  0.5199500000000  0.4589850000000  0.4738190000000 1.0
C      1  0.4529470000000  0.4353090000000  0.5011600000000 1.0
C      1  0.4525550000000  0.4549740000000  0.5264000000000 1.0
C      1  0.5414170000000  0.4503660000000  0.4245720000000 1.0
C      1  0.5629520000000  0.5426990000000  0.4304510000000 1.0
C      1  0.5316410000000  0.5222040000000  0.5520810000000 1.0
END
