TITL C-2778436-5916-1225 -0.00213177012693598 125000 -425.782430669164 0 0 73 (C1) n - 1
REM
REM in /home/nfs/bkarasulu/CARBON/AIRSS/Generating-Clusters/REBO/Only-C1/SD-CG/HFTN-CG
REM
REM
REM
REM
REM
REM ./C.cell (11c1c37f851c82e70ff6c80c92926a4b)
REM
REM compiler GCC version 9.2.1 20190827 (Red Hat 9.2.1-1)
REM options -cpp -mtune=generic -march=x86-64 -g -O0 -fpre-include=/usr/include/finclude/math-vector-fortran.h
REM seed 986982889 844854563 1885889600 -2042203899 2138056775 -453611093 1373517884 1505874678 1202264972 1928490051 291569148 -2083633751 -2137608277 -1824410061 -287455301 2038594700 322591790 -385857356 18864253 1635199542 -995878283 -1938991020 221010161 560295535 715682332 -1475537136 -810129120 -1732187357 -1054122966 -786828019 228120108 -272092388 -1879527563
REM
CELL 1.54180   50.00000   50.00000   50.00000   90.00000   90.00000   90.00000
LATT -1
SFAC C  
C      1  0.5140520000000  0.4190570000000  0.5284520000000 1.0
C      1  0.5307440000000  0.5064820000000  0.5795560000000 1.0
C      1  0.5602810000000  0.4608020000000  0.5596050000000 1.0
C      1  0.5578280000000  0.4414780000000  0.5406980000000 1.0
C      1  0.4463120000000  0.4782080000000  0.5322270000000 1.0
C      1  0.4967840000000  0.5071660000000  0.5341630000000 1.0
C      1  0.5193480000000  0.4877080000000  0.4259160000000 1.0
C      1  0.4485310000000  0.5192950000000  0.5037390000000 1.0
C      1  0.5318700000000  0.4560540000000  0.4985260000000 1.0
C      1  0.4995630000000  0.5938560000000  0.4716290000000 1.0
C      1  0.5418680000000  0.4326870000000  0.5204150000000 1.0
C      1  0.5347210000000  0.4715280000000  0.5258190000000 1.0
C      1  0.5525320000000  0.5427400000000  0.4557410000000 1.0
C      1  0.4543960000000  0.5431270000000  0.4260540000000 1.0
C      1  0.4564090000000  0.4846100000000  0.5707530000000 1.0
C      1  0.5441620000000  0.5504120000000  0.5146960000000 1.0
C      1  0.4953120000000  0.4892010000000  0.4414500000000 1.0
C      1  0.4745870000000  0.4398660000000  0.5497150000000 1.0
C      1  0.4761420000000  0.5594770000000  0.5021750000000 1.0
C      1  0.4364200000000  0.5719570000000  0.4786910000000 1.0
C      1  0.5028900000000  0.5717410000000  0.4923520000000 1.0
C      1  0.5019170000000  0.5169270000000  0.5798540000000 1.0
C      1  0.4508610000000  0.5575840000000  0.5328500000000 1.0
C      1  0.5349210000000  0.5557260000000  0.4384100000000 1.0
C      1  0.5455640000000  0.5130880000000  0.4620580000000 1.0
C      1  0.4495020000000  0.5737200000000  0.5051600000000 1.0
C      1  0.5529320000000  0.4853740000000  0.5696030000000 1.0
C      1  0.4438690000000  0.4778150000000  0.4552200000000 1.0
C      1  0.4446920000000  0.4915300000000  0.5029730000000 1.0
C      1  0.4407820000000  0.5302320000000  0.5291830000000 1.0
C      1  0.4924780000000  0.4046140000000  0.5086440000000 1.0
C      1  0.5487550000000  0.4407480000000  0.4499570000000 1.0
C      1  0.5015500000000  0.4892900000000  0.4697890000000 1.0
C      1  0.5588470000000  0.4666030000000  0.4523170000000 1.0
C      1  0.5035740000000  0.5913820000000  0.4448490000000 1.0
C      1  0.5016740000000  0.4627280000000  0.4845870000000 1.0
C      1  0.4705470000000  0.4963170000000  0.4298970000000 1.0
C      1  0.4830480000000  0.4891040000000  0.5782830000000 1.0
C      1  0.5328940000000  0.5395650000000  0.5429490000000 1.0
C      1  0.5052020000000  0.4114280000000  0.4577920000000 1.0
C      1  0.5719880000000  0.4910440000000  0.4994380000000 1.0
C      1  0.4518150000000  0.4577200000000  0.5590100000000 1.0
C      1  0.4700090000000  0.5372740000000  0.4619680000000 1.0
C      1  0.4737150000000  0.5242440000000  0.5619750000000 1.0
C      1  0.5285290000000  0.4229010000000  0.4505390000000 1.0
C      1  0.5187920000000  0.5122530000000  0.4792550000000 1.0
C      1  0.5003150000000  0.4869180000000  0.5536040000000 1.0
C      1  0.4760340000000  0.5520630000000  0.5463980000000 1.0
C      1  0.5096200000000  0.4317680000000  0.4968490000000 1.0
C      1  0.5092220000000  0.5383890000000  0.4960130000000 1.0
C      1  0.5652640000000  0.4892780000000  0.4730730000000 1.0
C      1  0.5592100000000  0.5426860000000  0.4852030000000 1.0
C      1  0.4519840000000  0.5147070000000  0.4213330000000 1.0
C      1  0.5156480000000  0.4646690000000  0.5457170000000 1.0
C      1  0.5285540000000  0.5762600000000  0.5097770000000 1.0
C      1  0.4674080000000  0.4246940000000  0.4984600000000 1.0
C      1  0.4523540000000  0.4757380000000  0.4813560000000 1.0
C      1  0.5047450000000  0.5446400000000  0.5607590000000 1.0
C      1  0.4722370000000  0.4556240000000  0.4908240000000 1.0
C      1  0.5084570000000  0.5653000000000  0.4345920000000 1.0
C      1  0.4853810000000  0.5483450000000  0.4351600000000 1.0
C      1  0.5478030000000  0.5134460000000  0.5511670000000 1.0
C      1  0.5441300000000  0.4901850000000  0.4394490000000 1.0
C      1  0.4859940000000  0.4073770000000  0.4757920000000 1.0
C      1  0.4444670000000  0.5564130000000  0.4553030000000 1.0
C      1  0.4607890000000  0.4490870000000  0.5213690000000 1.0
C      1  0.5508580000000  0.4972380000000  0.5239200000000 1.0
C      1  0.5084790000000  0.5302930000000  0.5237740000000 1.0
C      1  0.5025700000000  0.4390970000000  0.5481260000000 1.0
C      1  0.4698960000000  0.5337820000000  0.4903540000000 1.0
C      1  0.5433730000000  0.5187820000000  0.5018560000000 1.0
C      1  0.4344770000000  0.4790690000000  0.4307770000000 1.0
C      1  0.4475230000000  0.5074890000000  0.5500650000000 1.0
END
