TITL C-2778428-5639-541 -0.0448254549527329 125000 -286.008435094474 0 0 51 (C1) n - 1
REM
REM in /home/nfs/bkarasulu/CARBON/AIRSS/Generating-Clusters/REBO/Only-C1/SD-CG/HFTN-CG
REM
REM
REM
REM
REM
REM ./C.cell (11c1c37f851c82e70ff6c80c92926a4b)
REM
REM compiler GCC version 9.2.1 20190827 (Red Hat 9.2.1-1)
REM options -cpp -mtune=generic -march=x86-64 -g -O0 -fpre-include=/usr/include/finclude/math-vector-fortran.h
REM seed 1978412422 856424000 -1898683590 -1072464061 441897891 1866386707 879265140 2016383805 806519284 1692511500 -621995765 -76570190 -244246937 -2070982263 -509134336 518546828 -1074575422 -402661164 -1020333237 -1931980908 -455275662 -948540417 1761720819 -488816849 -786276317 -1672767066 -1322457565 910067179 -1078663291 -1855615555 1154143348 -1419348323 -1053580898
REM
CELL 1.54180   50.00000   50.00000   50.00000   90.00000   90.00000   90.00000
LATT -1
SFAC C  
C      1  0.4623470000000  0.4901870000000  0.5097570000000 1.0
C      1  0.5664100000000  0.4994440000000  0.4886880000000 1.0
C      1  0.5465160000000  0.5523060000000  0.4771240000000 1.0
C      1  0.4001270000000  0.4819970000000  0.4327680000000 1.0
C      1  0.5520960000000  0.4567930000000  0.5024230000000 1.0
C      1  0.4995610000000  0.4882830000000  0.4804800000000 1.0
C      1  0.4526070000000  0.5052420000000  0.4898430000000 1.0
C      1  0.4715240000000  0.4680930000000  0.5303910000000 1.0
C      1  0.4712850000000  0.5195480000000  0.5580820000000 1.0
C      1  0.5037590000000  0.5350920000000  0.4540450000000 1.0
C      1  0.5066560000000  0.5110730000000  0.5926090000000 1.0
C      1  0.5403640000000  0.5141510000000  0.4870520000000 1.0
C      1  0.3831360000000  0.4744710000000  0.4142890000000 1.0
C      1  0.4785500000000  0.4422060000000  0.5322200000000 1.0
C      1  0.5290280000000  0.4935250000000  0.4230560000000 1.0
C      1  0.4749050000000  0.5451440000000  0.5139110000000 1.0
C      1  0.4661210000000  0.5461410000000  0.5449110000000 1.0
C      1  0.4646410000000  0.5343000000000  0.4879980000000 1.0
C      1  0.4765550000000  0.4899890000000  0.4556250000000 1.0
C      1  0.5277940000000  0.5431910000000  0.5254750000000 1.0
C      1  0.5523690000000  0.4944890000000  0.5364210000000 1.0
C      1  0.5469340000000  0.5219370000000  0.5420120000000 1.0
C      1  0.4806700000000  0.4997460000000  0.5351830000000 1.0
C      1  0.5098130000000  0.5146330000000  0.5291130000000 1.0
C      1  0.5438540000000  0.4584570000000  0.4718440000000 1.0
C      1  0.4173930000000  0.4896440000000  0.4515460000000 1.0
C      1  0.4860480000000  0.4106550000000  0.5341420000000 1.0
C      1  0.4491640000000  0.5527620000000  0.4735120000000 1.0
C      1  0.5043080000000  0.4844670000000  0.4160480000000 1.0
C      1  0.5126810000000  0.4612070000000  0.4711550000000 1.0
C      1  0.4763720000000  0.5150770000000  0.5896670000000 1.0
C      1  0.5533510000000  0.4367840000000  0.4564740000000 1.0
C      1  0.5431940000000  0.5547510000000  0.5016090000000 1.0
C      1  0.5052180000000  0.5135840000000  0.5625930000000 1.0
C      1  0.5090900000000  0.4321560000000  0.5268720000000 1.0
C      1  0.5328590000000  0.5295710000000  0.4589750000000 1.0
C      1  0.5282190000000  0.4795730000000  0.5248870000000 1.0
C      1  0.5291860000000  0.4496150000000  0.5204430000000 1.0
C      1  0.4975390000000  0.4411260000000  0.4628760000000 1.0
C      1  0.5178050000000  0.4996850000000  0.5018140000000 1.0
C      1  0.4853260000000  0.5177730000000  0.4705690000000 1.0
C      1  0.5246090000000  0.5068920000000  0.6118360000000 1.0
C      1  0.4867150000000  0.5688100000000  0.5542260000000 1.0
C      1  0.5658340000000  0.4811720000000  0.5115010000000 1.0
C      1  0.4571630000000  0.5151460000000  0.6092530000000 1.0
C      1  0.4809840000000  0.4823390000000  0.4302260000000 1.0
C      1  0.4950850000000  0.5532370000000  0.4370030000000 1.0
C      1  0.5001280000000  0.5572680000000  0.5282320000000 1.0
C      1  0.5562450000000  0.4859940000000  0.4635440000000 1.0
C      1  0.5432010000000  0.5029850000000  0.4453530000000 1.0
C      1  0.4346590000000  0.4972920000000  0.4703240000000 1.0
END
