TITL C-2778428-5639-679 0.00438544896421271 125000 -989.005197209182 0 0 169 (C1) n - 1
REM
REM in /home/nfs/bkarasulu/CARBON/AIRSS/Generating-Clusters/REBO/Only-C1/SD-CG/HFTN-CG
REM
REM
REM
REM
REM
REM ./C.cell (11c1c37f851c82e70ff6c80c92926a4b)
REM
REM compiler GCC version 9.2.1 20190827 (Red Hat 9.2.1-1)
REM options -cpp -mtune=generic -march=x86-64 -g -O0 -fpre-include=/usr/include/finclude/math-vector-fortran.h
REM seed -1451931293 899688309 -1714423119 278763675 446871298 343267854 -1664772097 518066603 814060055 -185648066 -876259238 1606225670 1232874224 -1699346535 -1931499214 1869989207 -1875618429 -1791896320 1184977039 315448358 419825598 546084250 1742509152 2034103806 -112211791 4646829 -1095484222 -2012802541 746434912 1819527997 -1612103681 1539244912 -1243609141
REM
CELL 1.54180   50.00000   50.00000   50.00000   90.00000   90.00000   90.00000
LATT -1
SFAC C  
C      1  0.5328430000000  0.3911870000000  0.5327990000000 1.0
C      1  0.5841540000000  0.4662500000000  0.4862450000000 1.0
C      1  0.5441490000000  0.5027750000000  0.4312280000000 1.0
C      1  0.5288490000000  0.4513640000000  0.5823440000000 1.0
C      1  0.5162500000000  0.5026520000000  0.5742990000000 1.0
C      1  0.5391300000000  0.5446800000000  0.5777900000000 1.0
C      1  0.4798210000000  0.4742880000000  0.5908810000000 1.0
C      1  0.5304380000000  0.5486650000000  0.4095140000000 1.0
C      1  0.5851770000000  0.4321620000000  0.5543350000000 1.0
C      1  0.5279270000000  0.4480320000000  0.4502520000000 1.0
C      1  0.4571030000000  0.4337590000000  0.5572630000000 1.0
C      1  0.5635350000000  0.5423740000000  0.5336150000000 1.0
C      1  0.5045930000000  0.4272000000000  0.4876620000000 1.0
C      1  0.4894900000000  0.5305620000000  0.3833070000000 1.0
C      1  0.4615260000000  0.5005930000000  0.5978850000000 1.0
C      1  0.5001650000000  0.5102530000000  0.4608210000000 1.0
C      1  0.5604980000000  0.5859040000000  0.5524130000000 1.0
C      1  0.4568250000000  0.4034140000000  0.5176700000000 1.0
C      1  0.5328420000000  0.5315920000000  0.5349490000000 1.0
C      1  0.4500720000000  0.5248220000000  0.4126850000000 1.0
C      1  0.4641900000000  0.5877340000000  0.5489080000000 1.0
C      1  0.5647640000000  0.4770210000000  0.5192060000000 1.0
C      1  0.3936190000000  0.5087930000000  0.4737220000000 1.0
C      1  0.5410100000000  0.5529310000000  0.4832870000000 1.0
C      1  0.4497460000000  0.5654520000000  0.5684230000000 1.0
C      1  0.5825860000000  0.5842760000000  0.5088460000000 1.0
C      1  0.5290880000000  0.5071230000000  0.5506100000000 1.0
C      1  0.4661730000000  0.5561830000000  0.4393820000000 1.0
C      1  0.4686910000000  0.5196080000000  0.4896310000000 1.0
C      1  0.5439820000000  0.5209360000000  0.4036730000000 1.0
C      1  0.5642320000000  0.4329490000000  0.4545410000000 1.0
C      1  0.6013630000000  0.4910090000000  0.5023850000000 1.0
C      1  0.4878620000000  0.4569770000000  0.4485490000000 1.0
C      1  0.4881420000000  0.4105370000000  0.5221000000000 1.0
C      1  0.4172490000000  0.5253480000000  0.5672710000000 1.0
C      1  0.4675910000000  0.4670180000000  0.5378590000000 1.0
C      1  0.5426700000000  0.5412870000000  0.4566790000000 1.0
C      1  0.5549790000000  0.4514590000000  0.4817200000000 1.0
C      1  0.5138360000000  0.4239920000000  0.5690100000000 1.0
C      1  0.4638090000000  0.5827060000000  0.4821590000000 1.0
C      1  0.4617850000000  0.5440090000000  0.5205010000000 1.0
C      1  0.4373720000000  0.5417150000000  0.4400900000000 1.0
C      1  0.5976370000000  0.5260700000000  0.5212070000000 1.0
C      1  0.5624420000000  0.5252520000000  0.5630880000000 1.0
C      1  0.5949240000000  0.4617440000000  0.5185180000000 1.0
C      1  0.5630330000000  0.4150050000000  0.5432870000000 1.0
C      1  0.5112930000000  0.5150530000000  0.4007330000000 1.0
C      1  0.5879450000000  0.5126730000000  0.5441560000000 1.0
C      1  0.5713340000000  0.5467330000000  0.4837060000000 1.0
C      1  0.5430370000000  0.4377950000000  0.5105280000000 1.0
C      1  0.5034770000000  0.4859950000000  0.4032050000000 1.0
C      1  0.4097350000000  0.5355310000000  0.5145970000000 1.0
C      1  0.5846380000000  0.5252360000000  0.4609160000000 1.0
C      1  0.4499060000000  0.4944820000000  0.4107060000000 1.0
C      1  0.5738560000000  0.4622950000000  0.5610430000000 1.0
C      1  0.4608760000000  0.4727910000000  0.5646470000000 1.0
C      1  0.4852370000000  0.3817570000000  0.5020260000000 1.0
C      1  0.4220420000000  0.5125060000000  0.4369250000000 1.0
C      1  0.5282300000000  0.4205430000000  0.4665530000000 1.0
C      1  0.4429170000000  0.4476710000000  0.4125850000000 1.0
C      1  0.4733360000000  0.5680220000000  0.4097040000000 1.0
C      1  0.4548570000000  0.4236350000000  0.4602790000000 1.0
C      1  0.5464080000000  0.5663210000000  0.4260780000000 1.0
C      1  0.5029170000000  0.4021680000000  0.4565190000000 1.0
C      1  0.4388410000000  0.4259410000000  0.5141060000000 1.0
C      1  0.4382060000000  0.4417610000000  0.4436340000000 1.0
C      1  0.4659450000000  0.4483690000000  0.6020110000000 1.0
C      1  0.5153760000000  0.5898510000000  0.5635410000000 1.0
C      1  0.5155290000000  0.5452760000000  0.4966950000000 1.0
C      1  0.5467640000000  0.4420330000000  0.5560520000000 1.0
C      1  0.4865470000000  0.5795430000000  0.5734600000000 1.0
C      1  0.4421490000000  0.5222410000000  0.4829360000000 1.0
C      1  0.5047750000000  0.5137740000000  0.5056200000000 1.0
C      1  0.4957200000000  0.5943610000000  0.5376090000000 1.0
C      1  0.4543600000000  0.3827840000000  0.4941140000000 1.0
C      1  0.5211140000000  0.4445020000000  0.5358320000000 1.0
C      1  0.4537330000000  0.5063570000000  0.4482360000000 1.0
C      1  0.4855860000000  0.4445720000000  0.5180850000000 1.0
C      1  0.4935140000000  0.5084610000000  0.6064970000000 1.0
C      1  0.5052890000000  0.3944750000000  0.4862320000000 1.0
C      1  0.5489010000000  0.6027080000000  0.4809440000000 1.0
C      1  0.5112090000000  0.4045120000000  0.5431430000000 1.0
C      1  0.5064420000000  0.4594850000000  0.4955810000000 1.0
C      1  0.5697110000000  0.4632540000000  0.4398250000000 1.0
C      1  0.4889380000000  0.5266860000000  0.5295230000000 1.0
C      1  0.4061460000000  0.4814550000000  0.4855790000000 1.0
C      1  0.4314910000000  0.4964860000000  0.4722540000000 1.0
C      1  0.4766100000000  0.6040720000000  0.5032610000000 1.0
C      1  0.5461250000000  0.4745300000000  0.4250260000000 1.0
C      1  0.5767830000000  0.5945900000000  0.4820920000000 1.0
C      1  0.4170430000000  0.4622380000000  0.4597250000000 1.0
C      1  0.4819320000000  0.5796950000000  0.4563430000000 1.0
C      1  0.5639860000000  0.4884550000000  0.4700890000000 1.0
C      1  0.5398860000000  0.6048880000000  0.5089110000000 1.0
C      1  0.5700160000000  0.5480090000000  0.4398640000000 1.0
C      1  0.4376140000000  0.4105510000000  0.4835390000000 1.0
C      1  0.5249200000000  0.4960660000000  0.6125840000000 1.0
C      1  0.4366560000000  0.5721110000000  0.4917510000000 1.0
C      1  0.4374230000000  0.4403440000000  0.5367940000000 1.0
C      1  0.4904380000000  0.4374460000000  0.5510330000000 1.0
C      1  0.5457510000000  0.4826830000000  0.5416310000000 1.0
C      1  0.4994640000000  0.5403140000000  0.4208730000000 1.0
C      1  0.5503340000000  0.5236130000000  0.5083800000000 1.0
C      1  0.4303700000000  0.4740450000000  0.4301050000000 1.0
C      1  0.4874320000000  0.5660790000000  0.5247520000000 1.0
C      1  0.5749100000000  0.4388460000000  0.5138760000000 1.0
C      1  0.5187340000000  0.4386360000000  0.4128060000000 1.0
C      1  0.4799170000000  0.4921490000000  0.4980650000000 1.0
C      1  0.4898700000000  0.5372840000000  0.4772950000000 1.0
C      1  0.4766950000000  0.5137010000000  0.5542760000000 1.0
C      1  0.4699730000000  0.4514940000000  0.4050060000000 1.0
C      1  0.4291110000000  0.4680960000000  0.5723400000000 1.0
C      1  0.5241820000000  0.4664560000000  0.4092460000000 1.0
C      1  0.5689990000000  0.5010210000000  0.4987170000000 1.0
C      1  0.4312980000000  0.5597950000000  0.5239460000000 1.0
C      1  0.5308610000000  0.5055610000000  0.4882470000000 1.0
C      1  0.4701120000000  0.4695160000000  0.4818680000000 1.0
C      1  0.4290330000000  0.5504270000000  0.5566600000000 1.0
C      1  0.5919480000000  0.4858540000000  0.5479920000000 1.0
C      1  0.5616240000000  0.5953950000000  0.5259940000000 1.0
C      1  0.3856930000000  0.5325450000000  0.5331150000000 1.0
C      1  0.5532830000000  0.4055190000000  0.5123370000000 1.0
C      1  0.5370090000000  0.4741740000000  0.4642470000000 1.0
C      1  0.3969100000000  0.5082850000000  0.4455120000000 1.0
C      1  0.5092930000000  0.5487590000000  0.5404340000000 1.0
C      1  0.4507520000000  0.5886390000000  0.5191880000000 1.0
C      1  0.4378650000000  0.5207390000000  0.5270140000000 1.0
C      1  0.5715880000000  0.5199760000000  0.4235360000000 1.0
C      1  0.5059820000000  0.4788480000000  0.4672900000000 1.0
C      1  0.5062680000000  0.5517520000000  0.5711610000000 1.0
C      1  0.4883030000000  0.4836470000000  0.5259840000000 1.0
C      1  0.5155820000000  0.4752460000000  0.5309830000000 1.0
C      1  0.5418400000000  0.4265630000000  0.4295140000000 1.0
C      1  0.5280880000000  0.5834780000000  0.4390620000000 1.0
C      1  0.4993760000000  0.5999540000000  0.4776240000000 1.0
C      1  0.4674350000000  0.5419150000000  0.3969670000000 1.0
C      1  0.4624630000000  0.4779160000000  0.4533930000000 1.0
C      1  0.5217050000000  0.5260760000000  0.5974400000000 1.0
C      1  0.5837590000000  0.5539760000000  0.5107430000000 1.0
C      1  0.4362740000000  0.5006670000000  0.5789820000000 1.0
C      1  0.4788880000000  0.4393250000000  0.4749690000000 1.0
C      1  0.4038840000000  0.4756750000000  0.5147360000000 1.0
C      1  0.5599080000000  0.4920800000000  0.5710020000000 1.0
C      1  0.6018140000000  0.5212140000000  0.4889870000000 1.0
C      1  0.5444130000000  0.4781290000000  0.5965360000000 1.0
C      1  0.5810980000000  0.4954070000000  0.4444100000000 1.0
C      1  0.4464350000000  0.4410630000000  0.5838260000000 1.0
C      1  0.4489960000000  0.5081180000000  0.5505020000000 1.0
C      1  0.5075100000000  0.4765440000000  0.5824230000000 1.0
C      1  0.4775160000000  0.5247540000000  0.4416890000000 1.0
C      1  0.5095430000000  0.6053880000000  0.5100160000000 1.0
C      1  0.4855280000000  0.5273120000000  0.5806660000000 1.0
C      1  0.4038200000000  0.5327600000000  0.4855990000000 1.0
C      1  0.4701790000000  0.5541470000000  0.5876950000000 1.0
C      1  0.5318840000000  0.5130540000000  0.4563880000000 1.0
C      1  0.3963060000000  0.4882370000000  0.5437150000000 1.0
C      1  0.4148470000000  0.4338130000000  0.4747840000000 1.0
C      1  0.5341820000000  0.4776490000000  0.5037800000000 1.0
C      1  0.5005280000000  0.5734080000000  0.4297150000000 1.0
C      1  0.4880920000000  0.5651980000000  0.4932390000000 1.0
C      1  0.4277800000000  0.5493960000000  0.4718030000000 1.0
C      1  0.5392950000000  0.5756520000000  0.5674130000000 1.0
C      1  0.4902820000000  0.4375680000000  0.4231300000000 1.0
C      1  0.4752610000000  0.4797500000000  0.4028850000000 1.0
C      1  0.3941740000000  0.5145290000000  0.5534100000000 1.0
C      1  0.5276850000000  0.5979260000000  0.4629550000000 1.0
C      1  0.4814900000000  0.4150310000000  0.4433830000000 1.0
C      1  0.4168860000000  0.4622410000000  0.5432760000000 1.0
C      1  0.5557640000000  0.4122410000000  0.4804280000000 1.0
END
