TITL C-2778437-8639-148 -0.00217949998506471 125000 -1135.63584685113 0 0 195 (C1) n - 1
REM
REM in /home/nfs/bkarasulu/CARBON/AIRSS/Generating-Clusters/REBO/Only-C1/SD-CG/HFTN-CG
REM
REM
REM
REM
REM
REM ./C.cell (11c1c37f851c82e70ff6c80c92926a4b)
REM
REM compiler GCC version 9.2.1 20190827 (Red Hat 9.2.1-1)
REM options -cpp -mtune=generic -march=x86-64 -g -O0 -fpre-include=/usr/include/finclude/math-vector-fortran.h
REM seed 104324536 -607847715 556021796 -92229633 -328153978 -1267018060 2003015512 2074809523 -1832852933 1559068318 -1991500768 1440909704 1068866061 120256987 -374977143 -599254724 -1422600433 944461559 1713974084 -1042202307 -669863759 1195799876 1026022599 -1079411208 1268003003 -1640655516 -1687420254 -1351113966 -720842530 -116705352 1613406098 1225608078 924633627
REM
CELL 1.54180   50.00000   50.00000   50.00000   90.00000   90.00000   90.00000
LATT -1
SFAC C  
C      1  0.4277570000000  0.5395650000000  0.5837020000000 1.0
C      1  0.6043250000000  0.4797740000000  0.5111770000000 1.0
C      1  0.5949510000000  0.5597830000000  0.5234540000000 1.0
C      1  0.4683050000000  0.4811430000000  0.6012790000000 1.0
C      1  0.5194390000000  0.4148400000000  0.4631010000000 1.0
C      1  0.3672870000000  0.4362220000000  0.4792170000000 1.0
C      1  0.4267360000000  0.5206340000000  0.5396220000000 1.0
C      1  0.4621420000000  0.5959080000000  0.5467880000000 1.0
C      1  0.5941130000000  0.4950810000000  0.4286020000000 1.0
C      1  0.5674080000000  0.4370540000000  0.4682430000000 1.0
C      1  0.5485710000000  0.3910620000000  0.4918650000000 1.0
C      1  0.4341100000000  0.5399310000000  0.4923290000000 1.0
C      1  0.5050980000000  0.4293870000000  0.5875220000000 1.0
C      1  0.3807650000000  0.4490740000000  0.5603530000000 1.0
C      1  0.5646180000000  0.3969800000000  0.5183890000000 1.0
C      1  0.5927450000000  0.4474610000000  0.5137100000000 1.0
C      1  0.5839700000000  0.4647830000000  0.4296940000000 1.0
C      1  0.5378620000000  0.4090580000000  0.4362240000000 1.0
C      1  0.5446140000000  0.4947780000000  0.4172910000000 1.0
C      1  0.4850980000000  0.4866080000000  0.5203290000000 1.0
C      1  0.3606260000000  0.4403820000000  0.5746960000000 1.0
C      1  0.5549660000000  0.4248700000000  0.4219470000000 1.0
C      1  0.4405130000000  0.4966040000000  0.5730530000000 1.0
C      1  0.4585280000000  0.5098750000000  0.4322060000000 1.0
C      1  0.4704370000000  0.5631800000000  0.5679080000000 1.0
C      1  0.5791850000000  0.5503690000000  0.5509460000000 1.0
C      1  0.3998110000000  0.5155440000000  0.5215530000000 1.0
C      1  0.4520020000000  0.4358260000000  0.5942440000000 1.0
C      1  0.4842060000000  0.5193950000000  0.3798940000000 1.0
C      1  0.5186760000000  0.5450360000000  0.5150850000000 1.0
C      1  0.4618830000000  0.4352020000000  0.4459500000000 1.0
C      1  0.5884130000000  0.5249640000000  0.5217130000000 1.0
C      1  0.4465810000000  0.5613300000000  0.5145280000000 1.0
C      1  0.5396440000000  0.4407860000000  0.4602440000000 1.0
C      1  0.5347440000000  0.5668880000000  0.4317470000000 1.0
C      1  0.4289150000000  0.5384000000000  0.4527350000000 1.0
C      1  0.4905340000000  0.5888510000000  0.5565910000000 1.0
C      1  0.6016300000000  0.5093200000000  0.4942750000000 1.0
C      1  0.4752870000000  0.4344170000000  0.5803780000000 1.0
C      1  0.3989100000000  0.5480980000000  0.5314740000000 1.0
C      1  0.4557440000000  0.5430460000000  0.5910910000000 1.0
C      1  0.4601140000000  0.5154740000000  0.5371370000000 1.0
C      1  0.4947110000000  0.5695080000000  0.4944710000000 1.0
C      1  0.4425600000000  0.4620310000000  0.5922910000000 1.0
C      1  0.5283470000000  0.5359020000000  0.4368280000000 1.0
C      1  0.5008500000000  0.4529810000000  0.4224710000000 1.0
C      1  0.4164030000000  0.5111970000000  0.4475160000000 1.0
C      1  0.5081810000000  0.5260030000000  0.3935080000000 1.0
C      1  0.4341380000000  0.4809970000000  0.5055370000000 1.0
C      1  0.3907500000000  0.4453870000000  0.4861600000000 1.0
C      1  0.5661790000000  0.4913390000000  0.5604820000000 1.0
C      1  0.4950900000000  0.4601040000000  0.6036460000000 1.0
C      1  0.4883990000000  0.5513780000000  0.5442770000000 1.0
C      1  0.4702570000000  0.3943060000000  0.5415180000000 1.0
C      1  0.4554620000000  0.5801790000000  0.4710070000000 1.0
C      1  0.5942370000000  0.5051490000000  0.4610900000000 1.0
C      1  0.5139700000000  0.4611890000000  0.4880890000000 1.0
C      1  0.5169990000000  0.5127500000000  0.4198980000000 1.0
C      1  0.5377630000000  0.5701680000000  0.4726950000000 1.0
C      1  0.5650490000000  0.5131810000000  0.5407450000000 1.0
C      1  0.5494030000000  0.4530370000000  0.5782190000000 1.0
C      1  0.5397780000000  0.4760750000000  0.4789650000000 1.0
C      1  0.4981050000000  0.5233660000000  0.5278570000000 1.0
C      1  0.5162440000000  0.5433450000000  0.5570690000000 1.0
C      1  0.4794350000000  0.4784800000000  0.4193360000000 1.0
C      1  0.5416570000000  0.5209550000000  0.5982220000000 1.0
C      1  0.4309140000000  0.5726160000000  0.4567460000000 1.0
C      1  0.5239130000000  0.4403170000000  0.5336150000000 1.0
C      1  0.5740470000000  0.5856750000000  0.4773100000000 1.0
C      1  0.5449750000000  0.5311370000000  0.4989940000000 1.0
C      1  0.5193100000000  0.4576540000000  0.3957430000000 1.0
C      1  0.4886790000000  0.5896760000000  0.4277350000000 1.0
C      1  0.4214240000000  0.5119530000000  0.5856180000000 1.0
C      1  0.3954110000000  0.4908370000000  0.5048740000000 1.0
C      1  0.5151350000000  0.5946630000000  0.5368710000000 1.0
C      1  0.5290140000000  0.6075490000000  0.4591350000000 1.0
C      1  0.5183610000000  0.5361300000000  0.5961930000000 1.0
C      1  0.4930110000000  0.5674830000000  0.4605510000000 1.0
C      1  0.4168250000000  0.5704300000000  0.5184790000000 1.0
C      1  0.5015400000000  0.4083920000000  0.4900780000000 1.0
C      1  0.5046150000000  0.6167460000000  0.5156010000000 1.0
C      1  0.4902600000000  0.5351920000000  0.4693390000000 1.0
C      1  0.4343750000000  0.4692080000000  0.4505580000000 1.0
C      1  0.6192710000000  0.4982260000000  0.4162380000000 1.0
C      1  0.4203450000000  0.4444060000000  0.4694420000000 1.0
C      1  0.5461580000000  0.5523910000000  0.4051720000000 1.0
C      1  0.4721580000000  0.3953240000000  0.4786680000000 1.0
C      1  0.5089390000000  0.4870590000000  0.5405010000000 1.0
C      1  0.3852860000000  0.5318530000000  0.4753180000000 1.0
C      1  0.4320740000000  0.4879270000000  0.5345750000000 1.0
C      1  0.4310950000000  0.4659180000000  0.5601740000000 1.0
C      1  0.5865520000000  0.4722910000000  0.5534380000000 1.0
C      1  0.4637560000000  0.4211100000000  0.4915910000000 1.0
C      1  0.4694420000000  0.5137580000000  0.5676980000000 1.0
C      1  0.4273320000000  0.4491780000000  0.5002060000000 1.0
C      1  0.5700380000000  0.5387010000000  0.4131190000000 1.0
C      1  0.4503510000000  0.4436540000000  0.5436570000000 1.0
C      1  0.5230300000000  0.4643620000000  0.4447690000000 1.0
C      1  0.5399050000000  0.4925790000000  0.4509370000000 1.0
C      1  0.4573760000000  0.6146980000000  0.5257120000000 1.0
C      1  0.4223020000000  0.5495750000000  0.5551960000000 1.0
C      1  0.5030570000000  0.4372580000000  0.5085610000000 1.0
C      1  0.5413720000000  0.4679030000000  0.5276300000000 1.0
C      1  0.5617330000000  0.3904880000000  0.5455820000000 1.0
C      1  0.4441470000000  0.4110970000000  0.5353970000000 1.0
C      1  0.5146210000000  0.5854650000000  0.4439160000000 1.0
C      1  0.5828960000000  0.4300440000000  0.4927030000000 1.0
C      1  0.5452840000000  0.5219550000000  0.4600750000000 1.0
C      1  0.4002100000000  0.4618440000000  0.5144940000000 1.0
C      1  0.5642770000000  0.4508450000000  0.4141560000000 1.0
C      1  0.5210250000000  0.4666970000000  0.6212390000000 1.0
C      1  0.5267460000000  0.5455870000000  0.3851800000000 1.0
C      1  0.4113680000000  0.6424460000000  0.5199190000000 1.0
C      1  0.4506790000000  0.4915600000000  0.4534260000000 1.0
C      1  0.4505380000000  0.4910150000000  0.4066800000000 1.0
C      1  0.3993070000000  0.5017610000000  0.4732520000000 1.0
C      1  0.5017160000000  0.4909070000000  0.4393950000000 1.0
C      1  0.5496930000000  0.5022100000000  0.4990180000000 1.0
C      1  0.5445830000000  0.5913810000000  0.5488800000000 1.0
C      1  0.5235800000000  0.3755930000000  0.4958120000000 1.0
C      1  0.4218950000000  0.4965480000000  0.4241650000000 1.0
C      1  0.5080240000000  0.5113460000000  0.5585100000000 1.0
C      1  0.4336800000000  0.6289890000000  0.5227280000000 1.0
C      1  0.5502450000000  0.5829070000000  0.5007090000000 1.0
C      1  0.5814790000000  0.5514180000000  0.4383470000000 1.0
C      1  0.4957790000000  0.4747130000000  0.3895240000000 1.0
C      1  0.5720160000000  0.5206460000000  0.5869820000000 1.0
C      1  0.5104340000000  0.4607860000000  0.5538550000000 1.0
C      1  0.5886810000000  0.5574990000000  0.4713130000000 1.0
C      1  0.4802100000000  0.4605070000000  0.5635560000000 1.0
C      1  0.4279960000000  0.5071040000000  0.4885880000000 1.0
C      1  0.4573920000000  0.5906630000000  0.4235170000000 1.0
C      1  0.5570430000000  0.5491960000000  0.5247270000000 1.0
C      1  0.5030670000000  0.4037000000000  0.5427100000000 1.0
C      1  0.4800120000000  0.4267620000000  0.5421580000000 1.0
C      1  0.4826620000000  0.4293000000000  0.4255840000000 1.0
C      1  0.4779050000000  0.6138490000000  0.5050050000000 1.0
C      1  0.5674500000000  0.5801470000000  0.5276950000000 1.0
C      1  0.4641470000000  0.4818190000000  0.5445030000000 1.0
C      1  0.4330680000000  0.5451260000000  0.4130250000000 1.0
C      1  0.4728540000000  0.4933780000000  0.3831410000000 1.0
C      1  0.4642320000000  0.4710450000000  0.4999430000000 1.0
C      1  0.5457310000000  0.4224770000000  0.5053220000000 1.0
C      1  0.4914710000000  0.5268360000000  0.5910830000000 1.0
C      1  0.5894680000000  0.4774360000000  0.4742690000000 1.0
C      1  0.4766090000000  0.5534960000000  0.5132520000000 1.0
C      1  0.6004450000000  0.5434380000000  0.4956270000000 1.0
C      1  0.5844330000000  0.4568670000000  0.4564640000000 1.0
C      1  0.6096210000000  0.5131510000000  0.5549720000000 1.0
C      1  0.5216220000000  0.4571320000000  0.5824750000000 1.0
C      1  0.5895510000000  0.5300850000000  0.5674110000000 1.0
C      1  0.5744730000000  0.5288590000000  0.4609900000000 1.0
C      1  0.5789720000000  0.4486140000000  0.5391150000000 1.0
C      1  0.5189080000000  0.4080070000000  0.5686320000000 1.0
C      1  0.5205120000000  0.5762960000000  0.5106920000000 1.0
C      1  0.4990160000000  0.4888480000000  0.4914310000000 1.0
C      1  0.4578950000000  0.5461700000000  0.4694710000000 1.0
C      1  0.5375690000000  0.5281940000000  0.5381870000000 1.0
C      1  0.4273350000000  0.4469600000000  0.4306160000000 1.0
C      1  0.5513340000000  0.6083840000000  0.4699360000000 1.0
C      1  0.4758330000000  0.4006100000000  0.4298380000000 1.0
C      1  0.4736440000000  0.4485340000000  0.5188290000000 1.0
C      1  0.4900900000000  0.4897180000000  0.5764390000000 1.0
C      1  0.5240340000000  0.4908830000000  0.5128170000000 1.0
C      1  0.4425640000000  0.4254610000000  0.5090600000000 1.0
C      1  0.5509270000000  0.4522000000000  0.5013080000000 1.0
C      1  0.5434840000000  0.5818170000000  0.5746320000000 1.0
C      1  0.4022400000000  0.5391400000000  0.4986360000000 1.0
C      1  0.5534840000000  0.4376050000000  0.5507420000000 1.0
C      1  0.5256500000000  0.5612730000000  0.5811190000000 1.0
C      1  0.5229770000000  0.5424660000000  0.4755190000000 1.0
C      1  0.4665260000000  0.5147770000000  0.6069260000000 1.0
C      1  0.5471800000000  0.4090040000000  0.5614390000000 1.0
C      1  0.5433800000000  0.4730910000000  0.6122530000000 1.0
C      1  0.6081190000000  0.4878450000000  0.5416680000000 1.0
C      1  0.5609280000000  0.5741740000000  0.4480960000000 1.0
C      1  0.4733670000000  0.4399290000000  0.4710740000000 1.0
C      1  0.4581330000000  0.3960660000000  0.4525970000000 1.0
C      1  0.4158860000000  0.5619660000000  0.4309460000000 1.0
C      1  0.5724760000000  0.4790020000000  0.5006730000000 1.0
C      1  0.4614950000000  0.5003010000000  0.4836840000000 1.0
C      1  0.5260260000000  0.5575760000000  0.3608220000000 1.0
C      1  0.5709530000000  0.5101640000000  0.4141280000000 1.0
C      1  0.4443680000000  0.5691510000000  0.5471790000000 1.0
C      1  0.4911110000000  0.5038950000000  0.4657680000000 1.0
C      1  0.5199900000000  0.4023520000000  0.5171410000000 1.0
C      1  0.4579060000000  0.5372160000000  0.4253270000000 1.0
C      1  0.5011260000000  0.4419880000000  0.4689410000000 1.0
C      1  0.4332170000000  0.4193160000000  0.4500130000000 1.0
C      1  0.4714160000000  0.5215220000000  0.5073680000000 1.0
C      1  0.5445060000000  0.4679600000000  0.4031630000000 1.0
C      1  0.4012670000000  0.4579230000000  0.5457510000000 1.0
C      1  0.4749960000000  0.5924140000000  0.4860990000000 1.0
C      1  0.4711550000000  0.5615810000000  0.4351690000000 1.0
C      1  0.5550160000000  0.4916740000000  0.5912610000000 1.0
END
