TITL C-2778432-5617-1324 0.00265645671168415 125000 -495.611798266772 0 0 85 (C1) n - 1
REM
REM in /home/nfs/bkarasulu/CARBON/AIRSS/Generating-Clusters/REBO/Only-C1/SD-CG/HFTN-CG
REM
REM
REM
REM
REM
REM ./C.cell (11c1c37f851c82e70ff6c80c92926a4b)
REM
REM compiler GCC version 9.2.1 20190827 (Red Hat 9.2.1-1)
REM options -cpp -mtune=generic -march=x86-64 -g -O0 -fpre-include=/usr/include/finclude/math-vector-fortran.h
REM seed 2105931826 -1014978610 -1404348287 52086549 -1635162720 -2105220753 -1226588011 1845251779 1214430810 1740386323 -80439986 2055981776 638205568 -193001187 1607072272 -1539157758 960210414 2039143649 -980454900 1856348865 475176424 67744734 178993560 852414309 466813063 528953895 -1066409293 -1343364615 2138582763 240343436 1646568066 1936166196 -380628381
REM
CELL 1.54180   50.00000   50.00000   50.00000   90.00000   90.00000   90.00000
LATT -1
SFAC C  
C      1  0.5399730000000  0.4821870000000  0.4347350000000 1.0
C      1  0.5591360000000  0.5514090000000  0.5714630000000 1.0
C      1  0.4334730000000  0.4970340000000  0.5516700000000 1.0
C      1  0.4603940000000  0.4323330000000  0.4858090000000 1.0
C      1  0.5512090000000  0.5031050000000  0.5688020000000 1.0
C      1  0.5151230000000  0.4178740000000  0.4991300000000 1.0
C      1  0.5578460000000  0.4750330000000  0.5193040000000 1.0
C      1  0.4611270000000  0.5852960000000  0.4742080000000 1.0
C      1  0.4859250000000  0.4934840000000  0.4253400000000 1.0
C      1  0.5731380000000  0.5058500000000  0.4808370000000 1.0
C      1  0.4352980000000  0.4559790000000  0.4821860000000 1.0
C      1  0.4559550000000  0.4977680000000  0.5693360000000 1.0
C      1  0.4281800000000  0.5196970000000  0.5337580000000 1.0
C      1  0.4350410000000  0.4705920000000  0.5333020000000 1.0
C      1  0.5122820000000  0.4802850000000  0.5500770000000 1.0
C      1  0.5830610000000  0.4796780000000  0.4997540000000 1.0
C      1  0.5091590000000  0.5047430000000  0.4768830000000 1.0
C      1  0.4607150000000  0.4718460000000  0.4342560000000 1.0
C      1  0.4859670000000  0.5421020000000  0.4625910000000 1.0
C      1  0.4283670000000  0.4798290000000  0.5020140000000 1.0
C      1  0.5506680000000  0.5515830000000  0.5110390000000 1.0
C      1  0.5128610000000  0.5305690000000  0.4448950000000 1.0
C      1  0.5392260000000  0.5432420000000  0.4863540000000 1.0
C      1  0.4645360000000  0.5477330000000  0.4871660000000 1.0
C      1  0.4939430000000  0.4999390000000  0.5307370000000 1.0
C      1  0.5675820000000  0.5286440000000  0.5278580000000 1.0
C      1  0.4563170000000  0.4935630000000  0.5192480000000 1.0
C      1  0.4362960000000  0.5356560000000  0.4832130000000 1.0
C      1  0.5295760000000  0.5064710000000  0.5872820000000 1.0
C      1  0.5690130000000  0.4768350000000  0.4439370000000 1.0
C      1  0.4849710000000  0.4619360000000  0.4754750000000 1.0
C      1  0.5341620000000  0.5257820000000  0.5365500000000 1.0
C      1  0.5098480000000  0.5126330000000  0.5082320000000 1.0
C      1  0.4985910000000  0.5851460000000  0.4921790000000 1.0
C      1  0.4936530000000  0.4365680000000  0.4562950000000 1.0
C      1  0.5662250000000  0.5258680000000  0.5601480000000 1.0
C      1  0.5278910000000  0.4545440000000  0.5354290000000 1.0
C      1  0.4435510000000  0.4446630000000  0.5130990000000 1.0
C      1  0.5812120000000  0.5000340000000  0.4523130000000 1.0
C      1  0.4929240000000  0.5597740000000  0.4982550000000 1.0
C      1  0.5223890000000  0.4377930000000  0.4451530000000 1.0
C      1  0.4810430000000  0.4520130000000  0.5494270000000 1.0
C      1  0.5137050000000  0.5404870000000  0.5549360000000 1.0
C      1  0.4617860000000  0.5730240000000  0.4495670000000 1.0
C      1  0.5851270000000  0.5116940000000  0.5111120000000 1.0
C      1  0.4744980000000  0.5236530000000  0.4362800000000 1.0
C      1  0.5059540000000  0.4410460000000  0.5544110000000 1.0
C      1  0.4911760000000  0.4209640000000  0.4854480000000 1.0
C      1  0.4729940000000  0.4486400000000  0.5226490000000 1.0
C      1  0.5024170000000  0.5080490000000  0.5908570000000 1.0
C      1  0.5270830000000  0.4828340000000  0.4640870000000 1.0
C      1  0.5191640000000  0.4570320000000  0.5061720000000 1.0
C      1  0.5710440000000  0.4555420000000  0.4633930000000 1.0
C      1  0.4840110000000  0.5396960000000  0.5580720000000 1.0
C      1  0.5461650000000  0.4355090000000  0.4653790000000 1.0
C      1  0.4780540000000  0.5162080000000  0.5782990000000 1.0
C      1  0.4531240000000  0.4470800000000  0.4559730000000 1.0
C      1  0.5655350000000  0.4503840000000  0.4968800000000 1.0
C      1  0.4303830000000  0.5379530000000  0.4562430000000 1.0
C      1  0.5421770000000  0.5130170000000  0.4847980000000 1.0
C      1  0.4541220000000  0.5711550000000  0.5307390000000 1.0
C      1  0.5262100000000  0.5110950000000  0.4332040000000 1.0
C      1  0.4749770000000  0.4421420000000  0.4303570000000 1.0
C      1  0.5349780000000  0.5627280000000  0.5605760000000 1.0
C      1  0.4815820000000  0.4922370000000  0.4707000000000 1.0
C      1  0.4557010000000  0.4991810000000  0.4492460000000 1.0
C      1  0.4719970000000  0.5680960000000  0.5545950000000 1.0
C      1  0.5453660000000  0.4804760000000  0.5492510000000 1.0
C      1  0.4961910000000  0.4653390000000  0.4173990000000 1.0
C      1  0.4799850000000  0.4824940000000  0.5568870000000 1.0
C      1  0.4573270000000  0.5026390000000  0.4885930000000 1.0
C      1  0.5401360000000  0.5005120000000  0.5150880000000 1.0
C      1  0.5184330000000  0.5505330000000  0.4689530000000 1.0
C      1  0.5309270000000  0.4607090000000  0.4804100000000 1.0
C      1  0.4312620000000  0.4995200000000  0.4672670000000 1.0
C      1  0.4911840000000  0.4567510000000  0.5030840000000 1.0
C      1  0.5417580000000  0.4257340000000  0.4961230000000 1.0
C      1  0.4528470000000  0.5474500000000  0.4407860000000 1.0
C      1  0.4258940000000  0.5137320000000  0.5036640000000 1.0
C      1  0.5229090000000  0.4587680000000  0.4252550000000 1.0
C      1  0.5111150000000  0.5444820000000  0.5147090000000 1.0
C      1  0.4679240000000  0.5183070000000  0.5373310000000 1.0
C      1  0.4451710000000  0.5435650000000  0.5380460000000 1.0
C      1  0.4574740000000  0.5772330000000  0.5034180000000 1.0
C      1  0.5322880000000  0.5651930000000  0.5300260000000 1.0
END
