TITL C-2778433-5640-1215 -0.00371861253271557 125000 -598.626106173927 0 0 103 (C1) n - 1
REM
REM in /home/nfs/bkarasulu/CARBON/AIRSS/Generating-Clusters/REBO/Only-C1/SD-CG/HFTN-CG
REM
REM
REM
REM
REM
REM ./C.cell (11c1c37f851c82e70ff6c80c92926a4b)
REM
REM compiler GCC version 9.2.1 20190827 (Red Hat 9.2.1-1)
REM options -cpp -mtune=generic -march=x86-64 -g -O0 -fpre-include=/usr/include/finclude/math-vector-fortran.h
REM seed -1868353706 564018399 1209845253 2113689494 -994280351 239458007 -995407244 1878111004 -1583427571 749931931 1129287285 -4063368 368444398 1020487078 712946658 -498159546 1684940174 -825721206 -100341094 915094631 -1334821840 -1301607359 -747956203 -1075163963 1216812776 -1261011354 -482678643 -788742478 1707466457 -1835121869 -1547621729 -853317710 -330170740
REM
CELL 1.54180   50.00000   50.00000   50.00000   90.00000   90.00000   90.00000
LATT -1
SFAC C  
C      1  0.4420310000000  0.4540390000000  0.5046280000000 1.0
C      1  0.5294120000000  0.5524170000000  0.5605260000000 1.0
C      1  0.4862140000000  0.4330970000000  0.5239750000000 1.0
C      1  0.5224880000000  0.4934520000000  0.5417120000000 1.0
C      1  0.4916170000000  0.4587190000000  0.4134030000000 1.0
C      1  0.4170640000000  0.4984410000000  0.4935510000000 1.0
C      1  0.5792970000000  0.5305070000000  0.4818390000000 1.0
C      1  0.4688470000000  0.5051410000000  0.4947370000000 1.0
C      1  0.5752760000000  0.4655870000000  0.5260820000000 1.0
C      1  0.5318270000000  0.5188000000000  0.4404550000000 1.0
C      1  0.5306600000000  0.5800050000000  0.4570830000000 1.0
C      1  0.5149510000000  0.5425620000000  0.5314310000000 1.0
C      1  0.5595970000000  0.5473310000000  0.4400150000000 1.0
C      1  0.5018660000000  0.5671790000000  0.5500160000000 1.0
C      1  0.4984040000000  0.5828850000000  0.5234280000000 1.0
C      1  0.5795410000000  0.5114530000000  0.5172660000000 1.0
C      1  0.4526280000000  0.4591960000000  0.5344770000000 1.0
C      1  0.4559590000000  0.4255980000000  0.4805820000000 1.0
C      1  0.4636750000000  0.5207090000000  0.5850550000000 1.0
C      1  0.4270870000000  0.5248220000000  0.4902560000000 1.0
C      1  0.4455290000000  0.4512980000000  0.5602410000000 1.0
C      1  0.5574280000000  0.5002710000000  0.5596740000000 1.0
C      1  0.5027600000000  0.4430750000000  0.5517110000000 1.0
C      1  0.5246100000000  0.4513780000000  0.4085990000000 1.0
C      1  0.5110410000000  0.4863440000000  0.5729870000000 1.0
C      1  0.5571410000000  0.4741490000000  0.5468480000000 1.0
C      1  0.4566130000000  0.4250490000000  0.5145380000000 1.0
C      1  0.4654190000000  0.4710410000000  0.4409870000000 1.0
C      1  0.5011140000000  0.4789150000000  0.4591670000000 1.0
C      1  0.5383140000000  0.4302010000000  0.5113920000000 1.0
C      1  0.4724870000000  0.5337630000000  0.5118830000000 1.0
C      1  0.5656250000000  0.5183310000000  0.4392640000000 1.0
C      1  0.4606320000000  0.5099770000000  0.4367200000000 1.0
C      1  0.4044170000000  0.4923470000000  0.5183810000000 1.0
C      1  0.5253720000000  0.5303640000000  0.4785360000000 1.0
C      1  0.4518010000000  0.5662700000000  0.5015900000000 1.0
C      1  0.4775010000000  0.4730370000000  0.5338130000000 1.0
C      1  0.5735010000000  0.4826940000000  0.4737540000000 1.0
C      1  0.4739610000000  0.4883180000000  0.4139580000000 1.0
C      1  0.5402350000000  0.5041830000000  0.5161470000000 1.0
C      1  0.5151680000000  0.5018520000000  0.4208050000000 1.0
C      1  0.5280380000000  0.4610160000000  0.5410620000000 1.0
C      1  0.4569600000000  0.4933470000000  0.4648730000000 1.0
C      1  0.4545830000000  0.5351300000000  0.4323100000000 1.0
C      1  0.5029980000000  0.4481030000000  0.4718350000000 1.0
C      1  0.4805380000000  0.5319470000000  0.4675120000000 1.0
C      1  0.3958050000000  0.4724620000000  0.5419790000000 1.0
C      1  0.5361080000000  0.4999860000000  0.4672290000000 1.0
C      1  0.5816260000000  0.4856000000000  0.5067180000000 1.0
C      1  0.4518100000000  0.5417670000000  0.4786320000000 1.0
C      1  0.5114410000000  0.3755820000000  0.4836130000000 1.0
C      1  0.5243690000000  0.4596160000000  0.5083440000000 1.0
C      1  0.4670930000000  0.4730600000000  0.4956060000000 1.0
C      1  0.4302610000000  0.4802750000000  0.4768300000000 1.0
C      1  0.5225240000000  0.4205240000000  0.5367750000000 1.0
C      1  0.4984940000000  0.5627200000000  0.4411000000000 1.0
C      1  0.4659590000000  0.4634060000000  0.5816980000000 1.0
C      1  0.4859640000000  0.4452390000000  0.4441080000000 1.0
C      1  0.5519600000000  0.5673270000000  0.5176240000000 1.0
C      1  0.5533680000000  0.5491230000000  0.5401440000000 1.0
C      1  0.4753210000000  0.5570490000000  0.5581710000000 1.0
C      1  0.4996060000000  0.5929170000000  0.4550380000000 1.0
C      1  0.4313950000000  0.4487340000000  0.4740810000000 1.0
C      1  0.5373200000000  0.4145410000000  0.4825630000000 1.0
C      1  0.5550900000000  0.5295830000000  0.5052760000000 1.0
C      1  0.5598800000000  0.4563720000000  0.4903610000000 1.0
C      1  0.5076870000000  0.4781810000000  0.4326010000000 1.0
C      1  0.4539990000000  0.4409070000000  0.4511920000000 1.0
C      1  0.5388020000000  0.5540060000000  0.4581100000000 1.0
C      1  0.4964690000000  0.5051410000000  0.4664860000000 1.0
C      1  0.5299290000000  0.5325840000000  0.5836900000000 1.0
C      1  0.5008800000000  0.3986100000000  0.4866810000000 1.0
C      1  0.4737490000000  0.5810000000000  0.5115240000000 1.0
C      1  0.5474120000000  0.4699690000000  0.4553840000000 1.0
C      1  0.5053070000000  0.5385190000000  0.4319570000000 1.0
C      1  0.4355730000000  0.5269830000000  0.5423620000000 1.0
C      1  0.5421380000000  0.4593350000000  0.4252180000000 1.0
C      1  0.4906830000000  0.5179510000000  0.4116440000000 1.0
C      1  0.4802740000000  0.4990920000000  0.5428500000000 1.0
C      1  0.4880980000000  0.4264740000000  0.4903930000000 1.0
C      1  0.4799500000000  0.6109550000000  0.4494740000000 1.0
C      1  0.4105390000000  0.4860130000000  0.5677140000000 1.0
C      1  0.4885350000000  0.5492410000000  0.4922600000000 1.0
C      1  0.5026770000000  0.5123540000000  0.4974680000000 1.0
C      1  0.4702510000000  0.5476160000000  0.5843840000000 1.0
C      1  0.5176920000000  0.5529290000000  0.5029660000000 1.0
C      1  0.5667960000000  0.5226500000000  0.5427760000000 1.0
C      1  0.5251900000000  0.5841490000000  0.5067630000000 1.0
C      1  0.5687530000000  0.5585720000000  0.4940870000000 1.0
C      1  0.5792210000000  0.5102720000000  0.4625660000000 1.0
C      1  0.4935370000000  0.4638120000000  0.5734070000000 1.0
C      1  0.4321300000000  0.5440900000000  0.5131340000000 1.0
C      1  0.5213840000000  0.5980280000000  0.4807820000000 1.0
C      1  0.5694220000000  0.4383060000000  0.5153730000000 1.0
C      1  0.4332630000000  0.4731270000000  0.5797780000000 1.0
C      1  0.5390530000000  0.4830640000000  0.4938680000000 1.0
C      1  0.4637660000000  0.5424370000000  0.5370220000000 1.0
C      1  0.4128100000000  0.5078410000000  0.5447670000000 1.0
C      1  0.4944270000000  0.4613910000000  0.5085640000000 1.0
C      1  0.5351100000000  0.5052160000000  0.5776950000000 1.0
C      1  0.5337440000000  0.4441640000000  0.4726810000000 1.0
C      1  0.5038670000000  0.5151410000000  0.5282540000000 1.0
C      1  0.4592560000000  0.5096600000000  0.5591280000000 1.0
END
