TITL C-2778422-5617-313 0.00134877437512141 125000 -987.192640246501 0 0 167 (C1) n - 1
REM
REM in /home/nfs/bkarasulu/CARBON/AIRSS/Generating-Clusters/REBO/Only-C1/SD-CG/HFTN-CG
REM
REM
REM
REM
REM
REM ./C.cell (11c1c37f851c82e70ff6c80c92926a4b)
REM
REM compiler GCC version 9.2.1 20190827 (Red Hat 9.2.1-1)
REM options -cpp -mtune=generic -march=x86-64 -g -O0 -fpre-include=/usr/include/finclude/math-vector-fortran.h
REM seed -2050864150 -448674786 542221774 -1102032574 -410046550 -916358304 -2024782338 -1568110112 -1173209556 -1350890753 1070418189 -1264899856 2049452358 1300660746 -1882501756 297314653 619171917 -1973732607 1643313693 1590306450 -1982072013 2014382676 -723869233 -810387481 -695448115 -1180058902 -1558275159 -1831555875 -328461370 542340072 -1991070425 -1962701872 -1993640956
REM
CELL 1.54180   50.00000   50.00000   50.00000   90.00000   90.00000   90.00000
LATT -1
SFAC C  
C      1  0.4180680000000  0.4247050000000  0.4579550000000 1.0
C      1  0.4845270000000  0.5563860000000  0.5314310000000 1.0
C      1  0.5347790000000  0.4996070000000  0.4854900000000 1.0
C      1  0.4063540000000  0.5124190000000  0.4650610000000 1.0
C      1  0.5469850000000  0.5566250000000  0.5085100000000 1.0
C      1  0.4355900000000  0.5069880000000  0.5697430000000 1.0
C      1  0.4356310000000  0.4972360000000  0.5177460000000 1.0
C      1  0.4187050000000  0.4206340000000  0.4921060000000 1.0
C      1  0.5977650000000  0.5251620000000  0.5393080000000 1.0
C      1  0.5785110000000  0.5672820000000  0.5011600000000 1.0
C      1  0.4533990000000  0.5280500000000  0.5524780000000 1.0
C      1  0.5051320000000  0.5998340000000  0.4942210000000 1.0
C      1  0.4549100000000  0.4959780000000  0.5437900000000 1.0
C      1  0.4966870000000  0.5558360000000  0.4793370000000 1.0
C      1  0.3971930000000  0.4430990000000  0.4777260000000 1.0
C      1  0.5188220000000  0.5576000000000  0.4574070000000 1.0
C      1  0.5328200000000  0.4583390000000  0.4223460000000 1.0
C      1  0.4213060000000  0.4732240000000  0.5918440000000 1.0
C      1  0.4923340000000  0.4805780000000  0.4421320000000 1.0
C      1  0.4831460000000  0.5955550000000  0.5150240000000 1.0
C      1  0.4671500000000  0.5336880000000  0.4353100000000 1.0
C      1  0.4828920000000  0.4110570000000  0.4550310000000 1.0
C      1  0.5051730000000  0.5061610000000  0.5249760000000 1.0
C      1  0.4813140000000  0.4319080000000  0.4838570000000 1.0
C      1  0.4541610000000  0.4590360000000  0.5582780000000 1.0
C      1  0.5589760000000  0.5346040000000  0.5395390000000 1.0
C      1  0.4207390000000  0.4272380000000  0.5313660000000 1.0
C      1  0.5492820000000  0.5418300000000  0.4139880000000 1.0
C      1  0.4889160000000  0.5456340000000  0.5772450000000 1.0
C      1  0.3894720000000  0.5212890000000  0.4855210000000 1.0
C      1  0.5351410000000  0.5531710000000  0.5862620000000 1.0
C      1  0.4891570000000  0.5186420000000  0.5798780000000 1.0
C      1  0.5586520000000  0.4961510000000  0.5502370000000 1.0
C      1  0.4546800000000  0.5505910000000  0.5196890000000 1.0
C      1  0.4805380000000  0.4769810000000  0.5460520000000 1.0
C      1  0.5799330000000  0.4868180000000  0.4233020000000 1.0
C      1  0.5945320000000  0.4925100000000  0.4747030000000 1.0
C      1  0.4537790000000  0.5837300000000  0.4977010000000 1.0
C      1  0.5680100000000  0.4215860000000  0.5436350000000 1.0
C      1  0.5600270000000  0.4115030000000  0.4634060000000 1.0
C      1  0.5005150000000  0.4997900000000  0.5582130000000 1.0
C      1  0.5321450000000  0.4994870000000  0.5969070000000 1.0
C      1  0.4400900000000  0.4808980000000  0.4891940000000 1.0
C      1  0.5754010000000  0.4458910000000  0.4766900000000 1.0
C      1  0.6069620000000  0.5033810000000  0.4305890000000 1.0
C      1  0.5905620000000  0.4784970000000  0.5666670000000 1.0
C      1  0.5428030000000  0.6011090000000  0.4650130000000 1.0
C      1  0.5215970000000  0.4747130000000  0.6068480000000 1.0
C      1  0.4810010000000  0.5241510000000  0.5332780000000 1.0
C      1  0.4747790000000  0.5353730000000  0.4684970000000 1.0
C      1  0.5803390000000  0.4591070000000  0.5497140000000 1.0
C      1  0.5535380000000  0.5889300000000  0.5116410000000 1.0
C      1  0.4942650000000  0.5942590000000  0.4680650000000 1.0
C      1  0.4351870000000  0.4900740000000  0.4176400000000 1.0
C      1  0.5120760000000  0.4797850000000  0.4686390000000 1.0
C      1  0.5437540000000  0.4746940000000  0.4989170000000 1.0
C      1  0.5684070000000  0.4593440000000  0.4399100000000 1.0
C      1  0.4450860000000  0.5171030000000  0.5972680000000 1.0
C      1  0.4575340000000  0.4740830000000  0.4047580000000 1.0
C      1  0.4986190000000  0.4257300000000  0.4356010000000 1.0
C      1  0.4793890000000  0.5098670000000  0.4905370000000 1.0
C      1  0.4960850000000  0.4374380000000  0.5760570000000 1.0
C      1  0.4871770000000  0.4502680000000  0.4285530000000 1.0
C      1  0.5111740000000  0.4170970000000  0.4822620000000 1.0
C      1  0.5488590000000  0.4485040000000  0.5410700000000 1.0
C      1  0.6080460000000  0.5121580000000  0.4580850000000 1.0
C      1  0.4035130000000  0.4837380000000  0.5738480000000 1.0
C      1  0.5161770000000  0.4214620000000  0.5621950000000 1.0
C      1  0.4666380000000  0.5889720000000  0.4689740000000 1.0
C      1  0.4571210000000  0.5190870000000  0.5112730000000 1.0
C      1  0.5622250000000  0.5676600000000  0.5372600000000 1.0
C      1  0.4637400000000  0.3964610000000  0.4976470000000 1.0
C      1  0.4300660000000  0.4587730000000  0.5359890000000 1.0
C      1  0.5113760000000  0.5075870000000  0.4335930000000 1.0
C      1  0.4818800000000  0.5745900000000  0.4100280000000 1.0
C      1  0.5309850000000  0.4999690000000  0.5658690000000 1.0
C      1  0.4391700000000  0.5441440000000  0.6031860000000 1.0
C      1  0.5059680000000  0.5609350000000  0.4054260000000 1.0
C      1  0.4741990000000  0.4430130000000  0.5109060000000 1.0
C      1  0.4601430000000  0.4483180000000  0.4175290000000 1.0
C      1  0.5817290000000  0.4910990000000  0.5259780000000 1.0
C      1  0.5705810000000  0.5122420000000  0.4441220000000 1.0
C      1  0.4491120000000  0.4602920000000  0.5109900000000 1.0
C      1  0.5339480000000  0.6023290000000  0.4925480000000 1.0
C      1  0.5079140000000  0.4749980000000  0.4055120000000 1.0
C      1  0.5675050000000  0.4844510000000  0.4611460000000 1.0
C      1  0.4580750000000  0.4026310000000  0.4704580000000 1.0
C      1  0.5189420000000  0.5941710000000  0.5571260000000 1.0
C      1  0.5315190000000  0.5688820000000  0.4215710000000 1.0
C      1  0.5219150000000  0.4395100000000  0.5269870000000 1.0
C      1  0.4822660000000  0.4892060000000  0.4044050000000 1.0
C      1  0.4393280000000  0.5693030000000  0.5924610000000 1.0
C      1  0.6058440000000  0.5398480000000  0.4643850000000 1.0
C      1  0.5755460000000  0.5410950000000  0.4136900000000 1.0
C      1  0.4282390000000  0.5610780000000  0.4940910000000 1.0
C      1  0.5468520000000  0.5272170000000  0.5902540000000 1.0
C      1  0.5507180000000  0.5608730000000  0.4490700000000 1.0
C      1  0.5672560000000  0.5225040000000  0.5686130000000 1.0
C      1  0.4395720000000  0.4055920000000  0.5129120000000 1.0
C      1  0.4554570000000  0.5836510000000  0.5309320000000 1.0
C      1  0.5980320000000  0.4615220000000  0.5215910000000 1.0
C      1  0.5683660000000  0.5872670000000  0.4576210000000 1.0
C      1  0.5761580000000  0.4096310000000  0.5127880000000 1.0
C      1  0.5105520000000  0.5277910000000  0.4523820000000 1.0
C      1  0.4297670000000  0.5614220000000  0.4610080000000 1.0
C      1  0.5329170000000  0.4277370000000  0.4995630000000 1.0
C      1  0.4680520000000  0.4320490000000  0.5618350000000 1.0
C      1  0.4081950000000  0.5510570000000  0.5380420000000 1.0
C      1  0.4584410000000  0.4837190000000  0.4434330000000 1.0
C      1  0.4810740000000  0.5184460000000  0.4100810000000 1.0
C      1  0.5381210000000  0.4699860000000  0.4539260000000 1.0
C      1  0.5527590000000  0.4758640000000  0.5264230000000 1.0
C      1  0.4922170000000  0.3993320000000  0.5040970000000 1.0
C      1  0.5567080000000  0.5230660000000  0.4893930000000 1.0
C      1  0.5325620000000  0.4628050000000  0.6288420000000 1.0
C      1  0.5042340000000  0.4115110000000  0.5335010000000 1.0
C      1  0.4322680000000  0.5099360000000  0.4783590000000 1.0
C      1  0.4108480000000  0.5064870000000  0.4350310000000 1.0
C      1  0.5300400000000  0.5187740000000  0.4076370000000 1.0
C      1  0.4500190000000  0.5773820000000  0.4487510000000 1.0
C      1  0.5745130000000  0.5209960000000  0.5142340000000 1.0
C      1  0.5948700000000  0.5065960000000  0.5631860000000 1.0
C      1  0.4548920000000  0.4366170000000  0.4659890000000 1.0
C      1  0.4352530000000  0.5529610000000  0.5460590000000 1.0
C      1  0.4426640000000  0.4660100000000  0.4630500000000 1.0
C      1  0.5200490000000  0.5888500000000  0.4468760000000 1.0
C      1  0.4128830000000  0.4584210000000  0.4529350000000 1.0
C      1  0.5325180000000  0.4901390000000  0.3983190000000 1.0
C      1  0.4017210000000  0.4755860000000  0.4338310000000 1.0
C      1  0.5004780000000  0.4846880000000  0.5003160000000 1.0
C      1  0.4975820000000  0.4615600000000  0.5937480000000 1.0
C      1  0.4441310000000  0.5139970000000  0.4385390000000 1.0
C      1  0.4720760000000  0.5059490000000  0.5989210000000 1.0
C      1  0.4049350000000  0.5407850000000  0.5086000000000 1.0
C      1  0.5499860000000  0.4503920000000  0.4866360000000 1.0
C      1  0.5086270000000  0.5178410000000  0.4801830000000 1.0
C      1  0.4725620000000  0.4769370000000  0.5981900000000 1.0
C      1  0.4938820000000  0.5931570000000  0.5452240000000 1.0
C      1  0.4449880000000  0.5365450000000  0.4774850000000 1.0
C      1  0.5430890000000  0.4167190000000  0.5644400000000 1.0
C      1  0.6034120000000  0.4778590000000  0.4951870000000 1.0
C      1  0.4482410000000  0.4673060000000  0.5865840000000 1.0
C      1  0.5478950000000  0.4336090000000  0.4410800000000 1.0
C      1  0.5265010000000  0.5365680000000  0.4977530000000 1.0
C      1  0.5291780000000  0.5211390000000  0.5403430000000 1.0
C      1  0.4790390000000  0.5697160000000  0.5598530000000 1.0
C      1  0.5035810000000  0.5331690000000  0.4015600000000 1.0
C      1  0.5662270000000  0.5352970000000  0.4622090000000 1.0
C      1  0.4746110000000  0.4212060000000  0.5322250000000 1.0
C      1  0.4029710000000  0.4457540000000  0.5098510000000 1.0
C      1  0.5571530000000  0.4750230000000  0.4052840000000 1.0
C      1  0.4030320000000  0.4750580000000  0.5218290000000 1.0
C      1  0.5956510000000  0.4308160000000  0.5269000000000 1.0
C      1  0.5288880000000  0.5677520000000  0.5622230000000 1.0
C      1  0.4966270000000  0.4617340000000  0.5220700000000 1.0
C      1  0.5230290000000  0.5517220000000  0.5397840000000 1.0
C      1  0.4152410000000  0.4947040000000  0.5453320000000 1.0
C      1  0.5587950000000  0.4117460000000  0.4911730000000 1.0
C      1  0.4414170000000  0.4367870000000  0.4359340000000 1.0
C      1  0.5216680000000  0.4204370000000  0.4531120000000 1.0
C      1  0.4461360000000  0.4114120000000  0.5458090000000 1.0
C      1  0.5923560000000  0.5536280000000  0.5290140000000 1.0
C      1  0.4632580000000  0.5636660000000  0.4279420000000 1.0
C      1  0.5835340000000  0.5626770000000  0.4718310000000 1.0
C      1  0.4480440000000  0.5763110000000  0.5634730000000 1.0
C      1  0.3971420000000  0.5074750000000  0.5133570000000 1.0
C      1  0.5072390000000  0.5602190000000  0.5108410000000 1.0
END
