TITL C-2778437-8639-686 0.50151615321683 125000 -1071.52261965968 0 0 186 (C1) n - 1
REM
REM in /home/nfs/bkarasulu/CARBON/AIRSS/Generating-Clusters/REBO/Only-C1/SD-CG/HFTN-CG
REM
REM
REM
REM
REM
REM ./C.cell (11c1c37f851c82e70ff6c80c92926a4b)
REM
REM compiler GCC version 9.2.1 20190827 (Red Hat 9.2.1-1)
REM options -cpp -mtune=generic -march=x86-64 -g -O0 -fpre-include=/usr/include/finclude/math-vector-fortran.h
REM seed 868068631 -1149409534 -1788001102 -1821255735 -1138664427 -1988860487 656536711 -997935172 -849082847 798118980 768828336 597936785 -1037147708 -2145121888 -744368576 -104733596 1894978779 -1325886103 -1423736837 -1389752790 1107551473 1054080978 1612871935 1349856667 1360532858 -1272331150 -513653233 1306420757 1728378449 -2118817752 -2018266650 1214899022 1273734225
REM
CELL 1.54180   50.00000   50.00000   50.00000   90.00000   90.00000   90.00000
LATT -1
SFAC C  
C      1  0.4472910000000  0.4158960000000  0.5324460000000 1.0
C      1  0.4486150000000  0.5609370000000  0.5206700000000 1.0
C      1  0.4758780000000  0.5615690000000  0.4914400000000 1.0
C      1  0.5736190000000  0.4151320000000  0.5112880000000 1.0
C      1  0.5743570000000  0.4442360000000  0.4636950000000 1.0
C      1  0.4821030000000  0.4112000000000  0.4664160000000 1.0
C      1  0.4528000000000  0.4166680000000  0.4499360000000 1.0
C      1  0.4186450000000  0.5183880000000  0.4213710000000 1.0
C      1  0.5680730000000  0.4610590000000  0.5779820000000 1.0
C      1  0.4849370000000  0.4365050000000  0.5691260000000 1.0
C      1  0.4507030000000  0.5058990000000  0.4414560000000 1.0
C      1  0.4838880000000  0.4908120000000  0.6032360000000 1.0
C      1  0.5475020000000  0.5247450000000  0.4058620000000 1.0
C      1  0.4167760000000  0.5056370000000  0.5601470000000 1.0
C      1  0.5474790000000  0.4916580000000  0.4441040000000 1.0
C      1  0.5364470000000  0.4528540000000  0.5875980000000 1.0
C      1  0.4070070000000  0.4324680000000  0.5056280000000 1.0
C      1  0.4508750000000  0.4587690000000  0.5832370000000 1.0
C      1  0.4221080000000  0.4895050000000  0.5052450000000 1.0
C      1  0.4437570000000  0.4864570000000  0.5659890000000 1.0
C      1  0.4671390000000  0.5485950000000  0.5993890000000 1.0
C      1  0.4314370000000  0.5523170000000  0.4587540000000 1.0
C      1  0.6114200000000  0.4853280000000  0.4773820000000 1.0
C      1  0.5535700000000  0.4379750000000  0.5490060000000 1.0
C      1  0.5237560000000  0.5446180000000  0.5396520000000 1.0
C      1  0.4059000000000  0.5366710000000  0.5590530000000 1.0
C      1  0.5866810000000  0.4980400000000  0.4487300000000 1.0
C      1  0.5808090000000  0.4759980000000  0.4260450000000 1.0
C      1  0.5036230000000  0.4381570000000  0.4131820000000 1.0
C      1  0.4661190000000  0.5083650000000  0.3920270000000 1.0
C      1  0.4744280000000  0.5307720000000  0.5019970000000 1.0
C      1  0.5047510000000  0.5991570000000  0.5655580000000 1.0
C      1  0.5611840000000  0.5278960000000  0.5083700000000 1.0
C      1  0.4817580000000  0.5459920000000  0.4554300000000 1.0
C      1  0.4979310000000  0.5066040000000  0.4303790000000 1.0
C      1  0.4616070000000  0.4623520000000  0.4254910000000 1.0
C      1  0.5650920000000  0.5041880000000  0.4159870000000 1.0
C      1  0.4329270000000  0.4461860000000  0.5326090000000 1.0
C      1  0.5554180000000  0.5492120000000  0.4237530000000 1.0
C      1  0.4207800000000  0.5682250000000  0.4852620000000 1.0
C      1  0.4714890000000  0.5022970000000  0.4236400000000 1.0
C      1  0.4279330000000  0.4213450000000  0.4700920000000 1.0
C      1  0.5856740000000  0.5623940000000  0.4642110000000 1.0
C      1  0.5005170000000  0.4664150000000  0.5767870000000 1.0
C      1  0.5029050000000  0.5430170000000  0.5142650000000 1.0
C      1  0.5179950000000  0.4817500000000  0.4807590000000 1.0
C      1  0.4706950000000  0.6280240000000  0.5153210000000 1.0
C      1  0.5839830000000  0.5159570000000  0.5778210000000 1.0
C      1  0.5957870000000  0.5219250000000  0.4381390000000 1.0
C      1  0.5049790000000  0.5590010000000  0.4773360000000 1.0
C      1  0.4315100000000  0.4139830000000  0.5021930000000 1.0
C      1  0.5363310000000  0.4079730000000  0.4763010000000 1.0
C      1  0.5109570000000  0.4113610000000  0.5512230000000 1.0
C      1  0.4962480000000  0.5142450000000  0.6202890000000 1.0
C      1  0.5277030000000  0.5250780000000  0.5029510000000 1.0
C      1  0.4997260000000  0.5477900000000  0.4089840000000 1.0
C      1  0.5918490000000  0.5175440000000  0.5121070000000 1.0
C      1  0.3874500000000  0.4693150000000  0.5509130000000 1.0
C      1  0.6054470000000  0.4672590000000  0.5125290000000 1.0
C      1  0.4270440000000  0.5547660000000  0.5537480000000 1.0
C      1  0.5057700000000  0.4400400000000  0.5960030000000 1.0
C      1  0.4317750000000  0.5843700000000  0.5395750000000 1.0
C      1  0.5492390000000  0.5965470000000  0.4933100000000 1.0
C      1  0.4356620000000  0.4973380000000  0.5344860000000 1.0
C      1  0.5175980000000  0.5145000000000  0.4036730000000 1.0
C      1  0.6066930000000  0.5078700000000  0.4864410000000 1.0
C      1  0.4461820000000  0.4564780000000  0.4725910000000 1.0
C      1  0.5595550000000  0.4950450000000  0.5310020000000 1.0
C      1  0.5841730000000  0.4427960000000  0.5551010000000 1.0
C      1  0.4538920000000  0.5221710000000  0.5280480000000 1.0
C      1  0.4062900000000  0.4508710000000  0.5477320000000 1.0
C      1  0.5528800000000  0.4669860000000  0.4089560000000 1.0
C      1  0.4782730000000  0.4800380000000  0.4786730000000 1.0
C      1  0.5073190000000  0.3900150000000  0.4750590000000 1.0
C      1  0.5150480000000  0.6012130000000  0.5331460000000 1.0
C      1  0.5473520000000  0.5261120000000  0.5376390000000 1.0
C      1  0.5989130000000  0.4909610000000  0.5281670000000 1.0
C      1  0.4924270000000  0.5360100000000  0.5521180000000 1.0
C      1  0.4376710000000  0.5244430000000  0.4016150000000 1.0
C      1  0.4849080000000  0.3845750000000  0.4960500000000 1.0
C      1  0.4811400000000  0.4971620000000  0.5187450000000 1.0
C      1  0.4795950000000  0.4155350000000  0.5431110000000 1.0
C      1  0.3823700000000  0.4916930000000  0.5015890000000 1.0
C      1  0.5522290000000  0.5675700000000  0.5113080000000 1.0
C      1  0.4218190000000  0.4897660000000  0.4363140000000 1.0
C      1  0.4513900000000  0.5392760000000  0.5539270000000 1.0
C      1  0.4518160000000  0.5750390000000  0.4718040000000 1.0
C      1  0.5844740000000  0.5481820000000  0.4370070000000 1.0
C      1  0.4779700000000  0.5586740000000  0.5312790000000 1.0
C      1  0.3877530000000  0.5200360000000  0.4967510000000 1.0
C      1  0.5539440000000  0.4110050000000  0.5333100000000 1.0
C      1  0.4351110000000  0.5370090000000  0.5056730000000 1.0
C      1  0.4994470000000  0.4545240000000  0.4870500000000 1.0
C      1  0.5243860000000  0.4707000000000  0.5137250000000 1.0
C      1  0.5164700000000  0.5187460000000  0.5688520000000 1.0
C      1  0.5083530000000  0.4178680000000  0.4466970000000 1.0
C      1  0.3750100000000  0.4871430000000  0.5283330000000 1.0
C      1  0.4290740000000  0.4579480000000  0.5008540000000 1.0
C      1  0.5479140000000  0.4646360000000  0.4608640000000 1.0
C      1  0.5649200000000  0.4156980000000  0.4786590000000 1.0
C      1  0.5455950000000  0.5738330000000  0.4163160000000 1.0
C      1  0.3846460000000  0.5029100000000  0.5561630000000 1.0
C      1  0.5757010000000  0.4902720000000  0.5906780000000 1.0
C      1  0.4526910000000  0.4892950000000  0.4937160000000 1.0
C      1  0.4951040000000  0.4904270000000  0.3940140000000 1.0
C      1  0.4962850000000  0.5501540000000  0.5830240000000 1.0
C      1  0.4588800000000  0.6043220000000  0.5338230000000 1.0
C      1  0.5376730000000  0.4385380000000  0.4163320000000 1.0
C      1  0.5773580000000  0.5840360000000  0.4788540000000 1.0
C      1  0.5689240000000  0.4986930000000  0.4770010000000 1.0
C      1  0.4040690000000  0.5416700000000  0.4981640000000 1.0
C      1  0.5732650000000  0.5241580000000  0.5570770000000 1.0
C      1  0.5008950000000  0.5909910000000  0.4441130000000 1.0
C      1  0.4355700000000  0.5883580000000  0.5058740000000 1.0
C      1  0.5418790000000  0.5403750000000  0.5754950000000 1.0
C      1  0.4890520000000  0.6137260000000  0.4924740000000 1.0
C      1  0.5096690000000  0.4712510000000  0.4522210000000 1.0
C      1  0.5675580000000  0.4458260000000  0.4317280000000 1.0
C      1  0.4673310000000  0.5595060000000  0.4291480000000 1.0
C      1  0.4771900000000  0.4588240000000  0.6011510000000 1.0
C      1  0.5428910000000  0.4847730000000  0.5975890000000 1.0
C      1  0.5450000000000  0.5692030000000  0.4609630000000 1.0
C      1  0.5969970000000  0.4233360000000  0.4879580000000 1.0
C      1  0.5235690000000  0.4938130000000  0.5483460000000 1.0
C      1  0.5143670000000  0.5666740000000  0.5639120000000 1.0
C      1  0.5071420000000  0.4500780000000  0.5348440000000 1.0
C      1  0.4847750000000  0.5873220000000  0.5407100000000 1.0
C      1  0.4083110000000  0.4447620000000  0.4681390000000 1.0
C      1  0.5474760000000  0.5182510000000  0.5939700000000 1.0
C      1  0.5908680000000  0.5455480000000  0.5284430000000 1.0
C      1  0.5438020000000  0.4533140000000  0.4917800000000 1.0
C      1  0.5199790000000  0.4297420000000  0.4927570000000 1.0
C      1  0.4552740000000  0.5300340000000  0.4596870000000 1.0
C      1  0.5066460000000  0.5585030000000  0.4358830000000 1.0
C      1  0.4656310000000  0.4669450000000  0.5140110000000 1.0
C      1  0.5369580000000  0.5907770000000  0.5574630000000 1.0
C      1  0.6017620000000  0.4552980000000  0.4807500000000 1.0
C      1  0.5138980000000  0.4934450000000  0.5870370000000 1.0
C      1  0.5307670000000  0.5864190000000  0.4512370000000 1.0
C      1  0.5536720000000  0.5622910000000  0.5593640000000 1.0
C      1  0.4693770000000  0.4024870000000  0.5032150000000 1.0
C      1  0.5039570000000  0.4687400000000  0.4190850000000 1.0
C      1  0.5955300000000  0.4435560000000  0.5288820000000 1.0
C      1  0.4758670000000  0.5983330000000  0.4653860000000 1.0
C      1  0.4687550000000  0.4697680000000  0.4005380000000 1.0
C      1  0.4028130000000  0.4753530000000  0.4564020000000 1.0
C      1  0.4895970000000  0.4948220000000  0.5514180000000 1.0
C      1  0.5532140000000  0.5502230000000  0.4838230000000 1.0
C      1  0.5802370000000  0.4834140000000  0.5549530000000 1.0
C      1  0.5370770000000  0.5051040000000  0.4802120000000 1.0
C      1  0.4985860000000  0.4262710000000  0.5163310000000 1.0
C      1  0.5684160000000  0.5598770000000  0.5346880000000 1.0
C      1  0.4796190000000  0.4629720000000  0.4502920000000 1.0
C      1  0.5438980000000  0.4684440000000  0.5425760000000 1.0
C      1  0.4695960000000  0.5886130000000  0.4331130000000 1.0
C      1  0.3761950000000  0.5348830000000  0.5597430000000 1.0
C      1  0.4868230000000  0.5092790000000  0.4787030000000 1.0
C      1  0.4401250000000  0.4658420000000  0.4458370000000 1.0
C      1  0.5176110000000  0.6055250000000  0.5031240000000 1.0
C      1  0.5750110000000  0.5303430000000  0.4711640000000 1.0
C      1  0.5041960000000  0.5131060000000  0.4565230000000 1.0
C      1  0.4163710000000  0.5262160000000  0.4512620000000 1.0
C      1  0.3931810000000  0.4689030000000  0.4871370000000 1.0
C      1  0.4572590000000  0.4485920000000  0.5530120000000 1.0
C      1  0.4708920000000  0.5014510000000  0.5755360000000 1.0
C      1  0.4694760000000  0.5902160000000  0.5039010000000 1.0
C      1  0.5278350000000  0.3909040000000  0.4480320000000 1.0
C      1  0.5232980000000  0.5744230000000  0.4940810000000 1.0
C      1  0.4672360000000  0.5404200000000  0.4036750000000 1.0
C      1  0.5691460000000  0.4819190000000  0.5031770000000 1.0
C      1  0.4738560000000  0.4407580000000  0.4734280000000 1.0
C      1  0.5033650000000  0.5361690000000  0.6107510000000 1.0
C      1  0.5712630000000  0.4484050000000  0.5053160000000 1.0
C      1  0.5293500000000  0.4866490000000  0.4158580000000 1.0
C      1  0.5258130000000  0.4433110000000  0.4460520000000 1.0
C      1  0.4142840000000  0.5009520000000  0.4739210000000 1.0
C      1  0.5502130000000  0.5254810000000  0.4484120000000 1.0
C      1  0.5307930000000  0.3969070000000  0.5382830000000 1.0
C      1  0.4791700000000  0.4227130000000  0.4290810000000 1.0
C      1  0.5237370000000  0.4389440000000  0.5602870000000 1.0
C      1  0.4822360000000  0.4649870000000  0.5414970000000 1.0
C      1  0.4414820000000  0.5171180000000  0.4838050000000 1.0
C      1  0.5121880000000  0.5019680000000  0.5191950000000 1.0
C      1  0.4621660000000  0.5300640000000  0.5774530000000 1.0
C      1  0.4661300000000  0.4355460000000  0.5116880000000 1.0
C      1  0.5214140000000  0.5372690000000  0.4571750000000 1.0
END
