TITL C-2778431-5191-939 -0.0017093194364299 125000 -786.300378227593 0 0 135 (C1) n - 1
REM
REM in /home/nfs/bkarasulu/CARBON/AIRSS/Generating-Clusters/REBO/Only-C1/SD-CG/HFTN-CG
REM
REM
REM
REM
REM
REM ./C.cell (11c1c37f851c82e70ff6c80c92926a4b)
REM
REM compiler GCC version 9.2.1 20190827 (Red Hat 9.2.1-1)
REM options -cpp -mtune=generic -march=x86-64 -g -O0 -fpre-include=/usr/include/finclude/math-vector-fortran.h
REM seed -215834315 756334682 759248397 1001411014 -1685479165 -813572191 2005842843 -51993556 463796649 -716289109 -1264762161 1560250097 -2013626362 842982565 -49104362 -885002239 1197362241 -1855963949 323554518 1253074588 451853814 918313564 -1712053643 -2001626768 -2127030719 548420108 971488857 1069430790 -1108418388 609248324 1861115646 -1372704958 -123217477
REM
CELL 1.54180   50.00000   50.00000   50.00000   90.00000   90.00000   90.00000
LATT -1
SFAC C  
C      1  0.4196450000000  0.4264650000000  0.4760100000000 1.0
C      1  0.4854040000000  0.4095650000000  0.4706560000000 1.0
C      1  0.4976690000000  0.3972390000000  0.5189100000000 1.0
C      1  0.5588970000000  0.4982150000000  0.5323030000000 1.0
C      1  0.4707900000000  0.5553370000000  0.5031060000000 1.0
C      1  0.4464530000000  0.4725630000000  0.5322330000000 1.0
C      1  0.5413170000000  0.4200360000000  0.4391730000000 1.0
C      1  0.3994410000000  0.5289570000000  0.5172630000000 1.0
C      1  0.4757790000000  0.4585830000000  0.4320010000000 1.0
C      1  0.5319780000000  0.4042760000000  0.4859260000000 1.0
C      1  0.5776810000000  0.5475120000000  0.5506570000000 1.0
C      1  0.4707840000000  0.5947170000000  0.4656840000000 1.0
C      1  0.4603500000000  0.5157000000000  0.5686330000000 1.0
C      1  0.5720120000000  0.4997210000000  0.5055880000000 1.0
C      1  0.5618000000000  0.5715030000000  0.4585260000000 1.0
C      1  0.5636210000000  0.4423210000000  0.4789350000000 1.0
C      1  0.5570500000000  0.4839080000000  0.4128350000000 1.0
C      1  0.4884900000000  0.6100460000000  0.5077550000000 1.0
C      1  0.5173100000000  0.5568560000000  0.5082200000000 1.0
C      1  0.5440800000000  0.5858460000000  0.4732370000000 1.0
C      1  0.5679460000000  0.4667400000000  0.4554180000000 1.0
C      1  0.4138460000000  0.5583310000000  0.4830780000000 1.0
C      1  0.4850050000000  0.5677840000000  0.5638860000000 1.0
C      1  0.4895200000000  0.4181850000000  0.4417030000000 1.0
C      1  0.4441120000000  0.6039690000000  0.4766590000000 1.0
C      1  0.4683490000000  0.4636770000000  0.5953500000000 1.0
C      1  0.5425640000000  0.5129590000000  0.4618270000000 1.0
C      1  0.5498070000000  0.4281820000000  0.5392960000000 1.0
C      1  0.5371880000000  0.4883840000000  0.5643850000000 1.0
C      1  0.5012350000000  0.4326490000000  0.5555220000000 1.0
C      1  0.5527250000000  0.4588450000000  0.5345780000000 1.0
C      1  0.4955410000000  0.5340810000000  0.5964240000000 1.0
C      1  0.4425110000000  0.4426410000000  0.5574770000000 1.0
C      1  0.4600470000000  0.5755740000000  0.4402970000000 1.0
C      1  0.5284960000000  0.5362060000000  0.4504200000000 1.0
C      1  0.5069970000000  0.4525940000000  0.4828130000000 1.0
C      1  0.4342090000000  0.4974740000000  0.5013240000000 1.0
C      1  0.4301150000000  0.5206660000000  0.5258490000000 1.0
C      1  0.5975420000000  0.5074470000000  0.4762390000000 1.0
C      1  0.4853970000000  0.5668030000000  0.4229760000000 1.0
C      1  0.4393290000000  0.4151210000000  0.4536490000000 1.0
C      1  0.4362270000000  0.4666230000000  0.5020440000000 1.0
C      1  0.5446930000000  0.4829870000000  0.5972240000000 1.0
C      1  0.4000130000000  0.4744960000000  0.4620890000000 1.0
C      1  0.5760350000000  0.4764600000000  0.5482070000000 1.0
C      1  0.4511680000000  0.4126730000000  0.5056030000000 1.0
C      1  0.4251840000000  0.4243910000000  0.5039770000000 1.0
C      1  0.4822020000000  0.5352050000000  0.5414950000000 1.0
C      1  0.4387230000000  0.5391860000000  0.4708890000000 1.0
C      1  0.5434480000000  0.5217710000000  0.5289480000000 1.0
C      1  0.5195430000000  0.4167120000000  0.5363400000000 1.0
C      1  0.4498630000000  0.5454460000000  0.5205930000000 1.0
C      1  0.4759140000000  0.4213080000000  0.5222020000000 1.0
C      1  0.4371600000000  0.5291070000000  0.4427270000000 1.0
C      1  0.4969470000000  0.4645410000000  0.5473600000000 1.0
C      1  0.5502640000000  0.4649330000000  0.6146630000000 1.0
C      1  0.5591310000000  0.5391460000000  0.5750770000000 1.0
C      1  0.4254030000000  0.5069520000000  0.4296650000000 1.0
C      1  0.3966970000000  0.5529340000000  0.5027090000000 1.0
C      1  0.4265590000000  0.4823570000000  0.4443750000000 1.0
C      1  0.5156080000000  0.4941930000000  0.5099960000000 1.0
C      1  0.5253970000000  0.4765570000000  0.5373950000000 1.0
C      1  0.4200070000000  0.5147050000000  0.4027110000000 1.0
C      1  0.4315780000000  0.5397340000000  0.3974230000000 1.0
C      1  0.5723460000000  0.5490640000000  0.5048360000000 1.0
C      1  0.5671270000000  0.5462160000000  0.4509790000000 1.0
C      1  0.5637780000000  0.4760000000000  0.4857290000000 1.0
C      1  0.4763340000000  0.4915720000000  0.5504130000000 1.0
C      1  0.5946850000000  0.5264410000000  0.5397730000000 1.0
C      1  0.5776860000000  0.4607720000000  0.5115100000000 1.0
C      1  0.5308280000000  0.5552410000000  0.5722950000000 1.0
C      1  0.4864170000000  0.4849800000000  0.5970160000000 1.0
C      1  0.4918680000000  0.5946310000000  0.4838700000000 1.0
C      1  0.5401910000000  0.5164380000000  0.5924920000000 1.0
C      1  0.4551240000000  0.5214170000000  0.4891760000000 1.0
C      1  0.5463600000000  0.4189150000000  0.4667610000000 1.0
C      1  0.4966390000000  0.5645260000000  0.5320470000000 1.0
C      1  0.4810340000000  0.5378160000000  0.4155450000000 1.0
C      1  0.4971030000000  0.5149910000000  0.4150060000000 1.0
C      1  0.5842570000000  0.4944870000000  0.4492770000000 1.0
C      1  0.5940580000000  0.5248190000000  0.5057840000000 1.0
C      1  0.5150340000000  0.5748590000000  0.4833670000000 1.0
C      1  0.5679390000000  0.4303950000000  0.5104830000000 1.0
C      1  0.5250570000000  0.5205490000000  0.4142060000000 1.0
C      1  0.5715400000000  0.5044530000000  0.4247580000000 1.0
C      1  0.4487820000000  0.4375530000000  0.4354580000000 1.0
C      1  0.4825300000000  0.4141660000000  0.5646610000000 1.0
C      1  0.4938400000000  0.4427800000000  0.5075880000000 1.0
C      1  0.5212920000000  0.4767950000000  0.4844640000000 1.0
C      1  0.4857810000000  0.4901230000000  0.5186970000000 1.0
C      1  0.5015820000000  0.4383900000000  0.4204830000000 1.0
C      1  0.5912880000000  0.5026830000000  0.5551440000000 1.0
C      1  0.4756710000000  0.5127660000000  0.5946470000000 1.0
C      1  0.5541860000000  0.5291820000000  0.4271930000000 1.0
C      1  0.5186680000000  0.5609870000000  0.4550860000000 1.0
C      1  0.4483880000000  0.4492070000000  0.5832170000000 1.0
C      1  0.4869330000000  0.5344340000000  0.4892630000000 1.0
C      1  0.4757380000000  0.6340770000000  0.5075230000000 1.0
C      1  0.5297050000000  0.5353770000000  0.5483700000000 1.0
C      1  0.4562510000000  0.4562430000000  0.4808080000000 1.0
C      1  0.4689590000000  0.4483390000000  0.5382800000000 1.0
C      1  0.4968990000000  0.5976890000000  0.5317200000000 1.0
C      1  0.5336890000000  0.4862740000000  0.4614750000000 1.0
C      1  0.4866340000000  0.4883910000000  0.4196370000000 1.0
C      1  0.4034210000000  0.5044550000000  0.5009370000000 1.0
C      1  0.5431990000000  0.4085360000000  0.5129920000000 1.0
C      1  0.5651660000000  0.5062320000000  0.5722090000000 1.0
C      1  0.4548010000000  0.4717000000000  0.4550850000000 1.0
C      1  0.4212970000000  0.4502660000000  0.4518190000000 1.0
C      1  0.5698840000000  0.5241190000000  0.4739960000000 1.0
C      1  0.4812660000000  0.3915220000000  0.5481620000000 1.0
C      1  0.4259410000000  0.4458750000000  0.5276210000000 1.0
C      1  0.5046720000000  0.3979300000000  0.4885230000000 1.0
C      1  0.5117200000000  0.5002270000000  0.5830150000000 1.0
C      1  0.5153950000000  0.5242560000000  0.5006860000000 1.0
C      1  0.4760330000000  0.4669420000000  0.5035970000000 1.0
C      1  0.4595850000000  0.5481610000000  0.5629110000000 1.0
C      1  0.5290290000000  0.4421290000000  0.4262840000000 1.0
C      1  0.6008060000000  0.4823600000000  0.4990030000000 1.0
C      1  0.5219390000000  0.5993010000000  0.4246240000000 1.0
C      1  0.5241560000000  0.5914560000000  0.5428400000000 1.0
C      1  0.4502960000000  0.5484890000000  0.4220740000000 1.0
C      1  0.5100810000000  0.5762920000000  0.4326970000000 1.0
C      1  0.3896260000000  0.4892330000000  0.4817830000000 1.0
C      1  0.5417590000000  0.4675400000000  0.4349330000000 1.0
C      1  0.5048630000000  0.5591440000000  0.5831190000000 1.0
C      1  0.4649210000000  0.4252220000000  0.4826020000000 1.0
C      1  0.5464300000000  0.5319370000000  0.4968170000000 1.0
C      1  0.4433730000000  0.5001550000000  0.5453720000000 1.0
C      1  0.4694120000000  0.5163680000000  0.5198380000000 1.0
C      1  0.5031830000000  0.5247510000000  0.5628160000000 1.0
C      1  0.4377080000000  0.5727750000000  0.4658440000000 1.0
C      1  0.5377120000000  0.5701780000000  0.5298930000000 1.0
C      1  0.5649230000000  0.5616980000000  0.5295060000000 1.0
C      1  0.4943890000000  0.4466190000000  0.4588370000000 1.0
END
