TITL C-2778432-5617-646 0.00247411932685907 125000 -577.789154037338 0 0 102 (C1) n - 1
REM
REM in /home/nfs/bkarasulu/CARBON/AIRSS/Generating-Clusters/REBO/Only-C1/SD-CG/HFTN-CG
REM
REM
REM
REM
REM
REM ./C.cell (11c1c37f851c82e70ff6c80c92926a4b)
REM
REM compiler GCC version 9.2.1 20190827 (Red Hat 9.2.1-1)
REM options -cpp -mtune=generic -march=x86-64 -g -O0 -fpre-include=/usr/include/finclude/math-vector-fortran.h
REM seed 1323207354 118115098 1748219857 -2059078575 2011200044 -567525380 240996021 -682283259 159491487 638760570 2056442422 -276413260 -1793885891 -1472151092 690544282 -1609888595 -2070618503 -1203281678 -807518804 -515554723 409924396 982823069 90978691 -107537724 -748567554 1347623540 -1300555837 687255644 350054777 -685634713 -1951872737 945585682 -539589765
REM
CELL 1.54180   50.00000   50.00000   50.00000   90.00000   90.00000   90.00000
LATT -1
SFAC C  
C      1  0.5223920000000  0.5134300000000  0.5752800000000 1.0
C      1  0.5251570000000  0.5616520000000  0.4384770000000 1.0
C      1  0.4838660000000  0.4395700000000  0.5221910000000 1.0
C      1  0.4908270000000  0.4806290000000  0.4035970000000 1.0
C      1  0.5031120000000  0.4272490000000  0.5668820000000 1.0
C      1  0.5531540000000  0.4693150000000  0.5339250000000 1.0
C      1  0.4263830000000  0.4687690000000  0.5407540000000 1.0
C      1  0.5608000000000  0.4641750000000  0.4940180000000 1.0
C      1  0.4267280000000  0.4958770000000  0.5380010000000 1.0
C      1  0.5838350000000  0.5186760000000  0.5075590000000 1.0
C      1  0.5005650000000  0.4136370000000  0.5372040000000 1.0
C      1  0.5493850000000  0.5022020000000  0.4973060000000 1.0
C      1  0.5516140000000  0.5284210000000  0.5807780000000 1.0
C      1  0.5528640000000  0.4308890000000  0.4655970000000 1.0
C      1  0.4515550000000  0.5901950000000  0.5263830000000 1.0
C      1  0.4368720000000  0.4731020000000  0.4510260000000 1.0
C      1  0.5119010000000  0.4577990000000  0.5610650000000 1.0
C      1  0.5226400000000  0.4859360000000  0.6043130000000 1.0
C      1  0.4395940000000  0.5113240000000  0.5194620000000 1.0
C      1  0.5256090000000  0.4581900000000  0.4500610000000 1.0
C      1  0.4889420000000  0.5599340000000  0.5160940000000 1.0
C      1  0.5227820000000  0.5153860000000  0.4099700000000 1.0
C      1  0.5345130000000  0.5406530000000  0.4982760000000 1.0
C      1  0.5075600000000  0.5329660000000  0.5145540000000 1.0
C      1  0.5109500000000  0.4519060000000  0.5046840000000 1.0
C      1  0.5022220000000  0.5394980000000  0.4618420000000 1.0
C      1  0.4301820000000  0.4556640000000  0.5164460000000 1.0
C      1  0.4416660000000  0.5664450000000  0.5170070000000 1.0
C      1  0.5050670000000  0.4142530000000  0.5033610000000 1.0
C      1  0.5293390000000  0.5330310000000  0.5483090000000 1.0
C      1  0.4187510000000  0.5113860000000  0.4553560000000 1.0
C      1  0.4740000000000  0.4181060000000  0.4900180000000 1.0
C      1  0.4891990000000  0.4656900000000  0.5392580000000 1.0
C      1  0.5491780000000  0.5557990000000  0.5322170000000 1.0
C      1  0.4926260000000  0.5100730000000  0.4027080000000 1.0
C      1  0.4249720000000  0.4542010000000  0.4694590000000 1.0
C      1  0.5191080000000  0.5203310000000  0.4786000000000 1.0
C      1  0.4701020000000  0.5259040000000  0.4227850000000 1.0
C      1  0.4528450000000  0.4948080000000  0.4661510000000 1.0
C      1  0.5084080000000  0.5337290000000  0.4308110000000 1.0
C      1  0.4965330000000  0.5463890000000  0.5665360000000 1.0
C      1  0.4469860000000  0.5390910000000  0.5315550000000 1.0
C      1  0.4785410000000  0.5896070000000  0.5283710000000 1.0
C      1  0.5986620000000  0.5427860000000  0.5478040000000 1.0
C      1  0.5481850000000  0.4415070000000  0.5148490000000 1.0
C      1  0.5539780000000  0.4841320000000  0.5579360000000 1.0
C      1  0.4329110000000  0.5400000000000  0.4551530000000 1.0
C      1  0.4892800000000  0.4747620000000  0.4430080000000 1.0
C      1  0.4800750000000  0.4355110000000  0.4327680000000 1.0
C      1  0.5590800000000  0.4580710000000  0.4528110000000 1.0
C      1  0.5318630000000  0.5723000000000  0.4868790000000 1.0
C      1  0.5365980000000  0.4927660000000  0.4216820000000 1.0
C      1  0.4839010000000  0.4693160000000  0.4765730000000 1.0
C      1  0.5079370000000  0.5720040000000  0.4660060000000 1.0
C      1  0.5218900000000  0.4400540000000  0.5345060000000 1.0
C      1  0.5779290000000  0.4881870000000  0.5009410000000 1.0
C      1  0.4551830000000  0.4370800000000  0.5094490000000 1.0
C      1  0.4750580000000  0.5313530000000  0.5469580000000 1.0
C      1  0.5805940000000  0.5237060000000  0.5385920000000 1.0
C      1  0.4588240000000  0.4999440000000  0.4960140000000 1.0
C      1  0.4692820000000  0.4622050000000  0.4183380000000 1.0
C      1  0.4827350000000  0.5223460000000  0.4978660000000 1.0
C      1  0.4664990000000  0.5276750000000  0.5808140000000 1.0
C      1  0.5490060000000  0.5170030000000  0.5270150000000 1.0
C      1  0.5095330000000  0.5809860000000  0.5332840000000 1.0
C      1  0.5361130000000  0.4217350000000  0.4939110000000 1.0
C      1  0.5094690000000  0.5055420000000  0.6127280000000 1.0
C      1  0.5584500000000  0.5592210000000  0.4726040000000 1.0
C      1  0.4665020000000  0.4230140000000  0.4571320000000 1.0
C      1  0.4198590000000  0.4715270000000  0.4940960000000 1.0
C      1  0.4687080000000  0.4848910000000  0.5548130000000 1.0
C      1  0.5086210000000  0.4332350000000  0.4351710000000 1.0
C      1  0.5680270000000  0.5376620000000  0.4928310000000 1.0
C      1  0.5656800000000  0.5093560000000  0.5624690000000 1.0
C      1  0.5355200000000  0.5758670000000  0.5178750000000 1.0
C      1  0.4836630000000  0.4807620000000  0.5091890000000 1.0
C      1  0.4384060000000  0.5298940000000  0.5617850000000 1.0
C      1  0.5154670000000  0.4699930000000  0.4215150000000 1.0
C      1  0.4460780000000  0.5080770000000  0.4350380000000 1.0
C      1  0.4625290000000  0.5492310000000  0.4961270000000 1.0
C      1  0.4763710000000  0.5587460000000  0.4665170000000 1.0
C      1  0.4509900000000  0.5005300000000  0.5694370000000 1.0
C      1  0.5177650000000  0.5034510000000  0.5244290000000 1.0
C      1  0.5272870000000  0.4798380000000  0.5733330000000 1.0
C      1  0.5207880000000  0.4214570000000  0.4642540000000 1.0
C      1  0.4537800000000  0.4542500000000  0.4819710000000 1.0
C      1  0.4193590000000  0.5010220000000  0.4866440000000 1.0
C      1  0.4431620000000  0.4765770000000  0.4221360000000 1.0
C      1  0.5515620000000  0.4883200000000  0.4465960000000 1.0
C      1  0.4966080000000  0.5264290000000  0.5930530000000 1.0
C      1  0.4916100000000  0.5026930000000  0.4733460000000 1.0
C      1  0.4864650000000  0.5048670000000  0.5336350000000 1.0
C      1  0.4939430000000  0.4370770000000  0.4719210000000 1.0
C      1  0.4896830000000  0.5072900000000  0.4422610000000 1.0
C      1  0.4575050000000  0.5483980000000  0.4434700000000 1.0
C      1  0.4358740000000  0.5307970000000  0.4851960000000 1.0
C      1  0.5197400000000  0.5644750000000  0.5577490000000 1.0
C      1  0.5280510000000  0.4758740000000  0.5182560000000 1.0
C      1  0.5523960000000  0.5596570000000  0.4444400000000 1.0
C      1  0.5318460000000  0.4604200000000  0.4819600000000 1.0
C      1  0.5423520000000  0.5022970000000  0.4690590000000 1.0
C      1  0.5474410000000  0.5559480000000  0.5755620000000 1.0
END
