TITL C-2778436-5916-565 -0.000903660543014819 125000 -446.352606390123 0 0 78 (C1) n - 1
REM
REM in /home/nfs/bkarasulu/CARBON/AIRSS/Generating-Clusters/REBO/Only-C1/SD-CG/HFTN-CG
REM
REM
REM
REM
REM
REM ./C.cell (11c1c37f851c82e70ff6c80c92926a4b)
REM
REM compiler GCC version 9.2.1 20190827 (Red Hat 9.2.1-1)
REM options -cpp -mtune=generic -march=x86-64 -g -O0 -fpre-include=/usr/include/finclude/math-vector-fortran.h
REM seed 1000677933 -166665053 -560393809 300475518 -248242080 -1505132093 -1785630248 -2041147191 276291594 -1074170553 -1017408098 -880871364 1513471496 402552510 989284016 137870451 -1804504299 -979923717 7916197 2117254474 -1275550270 -54453924 782570200 -2028391856 -1568496744 -447309622 -1865937180 -1395618377 -1222982183 -228087834 2012962195 -1944054737 106850407
REM
CELL 1.54180   50.00000   50.00000   50.00000   90.00000   90.00000   90.00000
LATT -1
SFAC C  
C      1  0.4551130000000  0.5488370000000  0.5414320000000 1.0
C      1  0.4706870000000  0.4627580000000  0.4549730000000 1.0
C      1  0.4579390000000  0.5073580000000  0.4928680000000 1.0
C      1  0.4436160000000  0.5195070000000  0.5459210000000 1.0
C      1  0.5096590000000  0.5422690000000  0.5332520000000 1.0
C      1  0.4976880000000  0.4342290000000  0.5541980000000 1.0
C      1  0.5024350000000  0.4600470000000  0.4790890000000 1.0
C      1  0.4910560000000  0.5135540000000  0.4978610000000 1.0
C      1  0.5193870000000  0.5716700000000  0.4963270000000 1.0
C      1  0.5624650000000  0.5838620000000  0.4714050000000 1.0
C      1  0.5686680000000  0.4892660000000  0.5199920000000 1.0
C      1  0.5070430000000  0.5100920000000  0.5772780000000 1.0
C      1  0.5644570000000  0.5147960000000  0.4793890000000 1.0
C      1  0.4973370000000  0.5078520000000  0.4589800000000 1.0
C      1  0.5320130000000  0.4104300000000  0.4897690000000 1.0
C      1  0.5309290000000  0.5311300000000  0.5647820000000 1.0
C      1  0.4641890000000  0.4508900000000  0.4852810000000 1.0
C      1  0.5307710000000  0.5227630000000  0.4421290000000 1.0
C      1  0.4844720000000  0.4927440000000  0.4324740000000 1.0
C      1  0.5080380000000  0.5420510000000  0.4933940000000 1.0
C      1  0.5581310000000  0.4888200000000  0.4701940000000 1.0
C      1  0.5050450000000  0.5177500000000  0.4213700000000 1.0
C      1  0.5099750000000  0.4896180000000  0.4824570000000 1.0
C      1  0.4858870000000  0.4648140000000  0.5069860000000 1.0
C      1  0.4441490000000  0.5308180000000  0.4639870000000 1.0
C      1  0.5037360000000  0.4100390000000  0.4718370000000 1.0
C      1  0.5042610000000  0.4799740000000  0.5314560000000 1.0
C      1  0.5339270000000  0.4428820000000  0.4614550000000 1.0
C      1  0.5221320000000  0.4414100000000  0.5439100000000 1.0
C      1  0.5234900000000  0.5772300000000  0.4652070000000 1.0
C      1  0.4694160000000  0.4780120000000  0.5628140000000 1.0
C      1  0.4653790000000  0.4826220000000  0.5234540000000 1.0
C      1  0.4557300000000  0.5099890000000  0.4391810000000 1.0
C      1  0.4369650000000  0.5122260000000  0.5185400000000 1.0
C      1  0.4775280000000  0.5196650000000  0.5826640000000 1.0
C      1  0.5488630000000  0.5461110000000  0.5392250000000 1.0
C      1  0.5254000000000  0.4666120000000  0.4444360000000 1.0
C      1  0.5197030000000  0.5540270000000  0.4501510000000 1.0
C      1  0.5387890000000  0.4905100000000  0.4495120000000 1.0
C      1  0.5278100000000  0.4305220000000  0.5169600000000 1.0
C      1  0.4335990000000  0.4985100000000  0.4625230000000 1.0
C      1  0.4756250000000  0.5293160000000  0.4203270000000 1.0
C      1  0.5550110000000  0.5600690000000  0.4826530000000 1.0
C      1  0.4548980000000  0.4574690000000  0.5419810000000 1.0
C      1  0.5100380000000  0.5727890000000  0.5350780000000 1.0
C      1  0.4744200000000  0.4167220000000  0.5167490000000 1.0
C      1  0.5606500000000  0.4682660000000  0.4943260000000 1.0
C      1  0.5599590000000  0.4912510000000  0.5506850000000 1.0
C      1  0.4405950000000  0.4671400000000  0.4677390000000 1.0
C      1  0.5033430000000  0.4781480000000  0.5655930000000 1.0
C      1  0.4692890000000  0.5481970000000  0.4549530000000 1.0
C      1  0.5131850000000  0.5101030000000  0.5446130000000 1.0
C      1  0.5295080000000  0.5244750000000  0.5118020000000 1.0
C      1  0.4776310000000  0.5091180000000  0.5269110000000 1.0
C      1  0.5417270000000  0.4698640000000  0.5227610000000 1.0
C      1  0.5013370000000  0.4371750000000  0.4565110000000 1.0
C      1  0.4808460000000  0.5331330000000  0.5417540000000 1.0
C      1  0.4729150000000  0.4320800000000  0.5404350000000 1.0
C      1  0.4695890000000  0.5580600000000  0.4272480000000 1.0
C      1  0.5598450000000  0.5193410000000  0.5570930000000 1.0
C      1  0.4690000000000  0.5813270000000  0.5081650000000 1.0
C      1  0.5344870000000  0.4690420000000  0.5550310000000 1.0
C      1  0.5604620000000  0.5164570000000  0.5074290000000 1.0
C      1  0.4947630000000  0.4625040000000  0.4344300000000 1.0
C      1  0.5517780000000  0.5361210000000  0.4656610000000 1.0
C      1  0.4965340000000  0.5865760000000  0.5129390000000 1.0
C      1  0.5018110000000  0.4113060000000  0.5058480000000 1.0
C      1  0.5239770000000  0.4943080000000  0.5094970000000 1.0
C      1  0.4720630000000  0.4914430000000  0.4704480000000 1.0
C      1  0.4586100000000  0.5046600000000  0.5663590000000 1.0
C      1  0.5462570000000  0.5604290000000  0.5143750000000 1.0
C      1  0.4510150000000  0.5602620000000  0.5146540000000 1.0
C      1  0.4411910000000  0.5371550000000  0.4957280000000 1.0
C      1  0.4349110000000  0.4725370000000  0.5181980000000 1.0
C      1  0.4962960000000  0.5367860000000  0.4635680000000 1.0
C      1  0.4254550000000  0.4828250000000  0.4921260000000 1.0
C      1  0.5462390000000  0.4413360000000  0.4902570000000 1.0
C      1  0.4568590000000  0.4239420000000  0.4969650000000 1.0
END
