TITL C-2778422-5617-590 0.00100155277976527 125000 -840.717757592342 0 0 143 (C1) n - 1
REM
REM in /home/nfs/bkarasulu/CARBON/AIRSS/Generating-Clusters/REBO/Only-C1/SD-CG/HFTN-CG
REM
REM
REM
REM
REM
REM ./C.cell (11c1c37f851c82e70ff6c80c92926a4b)
REM
REM compiler GCC version 9.2.1 20190827 (Red Hat 9.2.1-1)
REM options -cpp -mtune=generic -march=x86-64 -g -O0 -fpre-include=/usr/include/finclude/math-vector-fortran.h
REM seed 1931519321 88741377 2012458902 -740631862 531755033 800479072 995159469 -288753761 1501137557 -2098894899 -2138766476 1418841781 409060723 1541318036 72620660 -31659356 60628600 -1881639971 -246220660 -184313937 -382930508 -1122937823 1386204013 941685419 -1852111010 -1010435028 1694502230 -990051561 487378815 -171311386 -1966564359 -647570992 383566374
REM
CELL 1.54180   50.00000   50.00000   50.00000   90.00000   90.00000   90.00000
LATT -1
SFAC C  
C      1  0.4971190000000  0.5419140000000  0.5742480000000 1.0
C      1  0.4760690000000  0.4768320000000  0.5820880000000 1.0
C      1  0.4437450000000  0.5850150000000  0.5535610000000 1.0
C      1  0.4500110000000  0.4832300000000  0.5659440000000 1.0
C      1  0.4943350000000  0.4916670000000  0.5295180000000 1.0
C      1  0.5445180000000  0.5011460000000  0.4500320000000 1.0
C      1  0.4797360000000  0.3955490000000  0.4883880000000 1.0
C      1  0.5197950000000  0.4355230000000  0.4507930000000 1.0
C      1  0.4511560000000  0.4724690000000  0.5102560000000 1.0
C      1  0.4523890000000  0.4052890000000  0.5156880000000 1.0
C      1  0.5965350000000  0.5087350000000  0.4674300000000 1.0
C      1  0.5874990000000  0.4792370000000  0.5352980000000 1.0
C      1  0.4719410000000  0.5963550000000  0.4789440000000 1.0
C      1  0.4530040000000  0.6075130000000  0.5420900000000 1.0
C      1  0.5097760000000  0.5743820000000  0.5030160000000 1.0
C      1  0.5305240000000  0.4549700000000  0.4175870000000 1.0
C      1  0.5704910000000  0.4868690000000  0.4329550000000 1.0
C      1  0.5594380000000  0.4724680000000  0.5534860000000 1.0
C      1  0.4931900000000  0.5388050000000  0.4188100000000 1.0
C      1  0.4319580000000  0.5535110000000  0.5587520000000 1.0
C      1  0.5467680000000  0.5410350000000  0.5735700000000 1.0
C      1  0.5164530000000  0.3946790000000  0.5428200000000 1.0
C      1  0.4773440000000  0.5076590000000  0.5502410000000 1.0
C      1  0.4178620000000  0.4604470000000  0.5405860000000 1.0
C      1  0.4315320000000  0.5267450000000  0.4403100000000 1.0
C      1  0.4473860000000  0.5668420000000  0.4677190000000 1.0
C      1  0.5158480000000  0.5720820000000  0.5423200000000 1.0
C      1  0.4826850000000  0.4248770000000  0.4183760000000 1.0
C      1  0.5508260000000  0.5706600000000  0.4592070000000 1.0
C      1  0.4853010000000  0.5844990000000  0.5369930000000 1.0
C      1  0.5744390000000  0.4494880000000  0.5250080000000 1.0
C      1  0.4885000000000  0.4310950000000  0.5752840000000 1.0
C      1  0.4785290000000  0.6137470000000  0.5269850000000 1.0
C      1  0.5433110000000  0.5831210000000  0.5381490000000 1.0
C      1  0.4911420000000  0.6025230000000  0.5018090000000 1.0
C      1  0.4480970000000  0.4084980000000  0.4869050000000 1.0
C      1  0.4323910000000  0.4504010000000  0.5047700000000 1.0
C      1  0.5462930000000  0.5248900000000  0.4174640000000 1.0
C      1  0.4601680000000  0.5110960000000  0.4704460000000 1.0
C      1  0.4794270000000  0.5659750000000  0.4915580000000 1.0
C      1  0.5552220000000  0.4567020000000  0.4366550000000 1.0
C      1  0.5216740000000  0.4718240000000  0.4894410000000 1.0
C      1  0.4855930000000  0.5059670000000  0.5008350000000 1.0
C      1  0.6033340000000  0.5311310000000  0.5152060000000 1.0
C      1  0.5706680000000  0.4597230000000  0.4926340000000 1.0
C      1  0.4940860000000  0.4660960000000  0.4478630000000 1.0
C      1  0.5277020000000  0.4257800000000  0.5074400000000 1.0
C      1  0.5526890000000  0.5310130000000  0.4565050000000 1.0
C      1  0.5476840000000  0.5107390000000  0.5860380000000 1.0
C      1  0.4944780000000  0.5723640000000  0.5674180000000 1.0
C      1  0.5325970000000  0.4132810000000  0.4686600000000 1.0
C      1  0.4487230000000  0.6002630000000  0.4620460000000 1.0
C      1  0.5098210000000  0.5607230000000  0.4249710000000 1.0
C      1  0.4721940000000  0.5286720000000  0.5837680000000 1.0
C      1  0.4566710000000  0.5138290000000  0.5097410000000 1.0
C      1  0.5459500000000  0.4515520000000  0.5722600000000 1.0
C      1  0.4961520000000  0.5829610000000  0.4413880000000 1.0
C      1  0.5887800000000  0.4388140000000  0.4757370000000 1.0
C      1  0.5577450000000  0.4355400000000  0.4631930000000 1.0
C      1  0.4447140000000  0.5298070000000  0.5777000000000 1.0
C      1  0.4876620000000  0.4668820000000  0.5524470000000 1.0
C      1  0.4128320000000  0.4910050000000  0.5264120000000 1.0
C      1  0.4187950000000  0.5529330000000  0.5077160000000 1.0
C      1  0.5635500000000  0.5521980000000  0.5534360000000 1.0
C      1  0.4422530000000  0.4860920000000  0.4190910000000 1.0
C      1  0.4310090000000  0.5081900000000  0.4881240000000 1.0
C      1  0.4687750000000  0.5392610000000  0.4764210000000 1.0
C      1  0.5198790000000  0.4798550000000  0.4076630000000 1.0
C      1  0.5666130000000  0.5004230000000  0.5664190000000 1.0
C      1  0.4809160000000  0.4971260000000  0.4481310000000 1.0
C      1  0.4411610000000  0.5693770000000  0.5011610000000 1.0
C      1  0.5183000000000  0.5725510000000  0.4641320000000 1.0
C      1  0.5130950000000  0.4022840000000  0.4907430000000 1.0
C      1  0.5380470000000  0.5519620000000  0.4340210000000 1.0
C      1  0.4597600000000  0.5362730000000  0.4246160000000 1.0
C      1  0.5393340000000  0.5754700000000  0.4910970000000 1.0
C      1  0.4256530000000  0.4974150000000  0.4403980000000 1.0
C      1  0.4389540000000  0.4477520000000  0.5511820000000 1.0
C      1  0.4683960000000  0.5048280000000  0.4195650000000 1.0
C      1  0.4951110000000  0.3959560000000  0.5189600000000 1.0
C      1  0.4634120000000  0.4680270000000  0.4053470000000 1.0
C      1  0.5143430000000  0.5033950000000  0.4513390000000 1.0
C      1  0.4560150000000  0.4838780000000  0.5358470000000 1.0
C      1  0.5052960000000  0.4207340000000  0.5539290000000 1.0
C      1  0.4634170000000  0.4804690000000  0.4799760000000 1.0
C      1  0.4318470000000  0.5043840000000  0.5730770000000 1.0
C      1  0.5851470000000  0.5573040000000  0.5271320000000 1.0
C      1  0.4681170000000  0.5643040000000  0.5209810000000 1.0
C      1  0.5544230000000  0.4748690000000  0.4667340000000 1.0
C      1  0.4905250000000  0.4726660000000  0.4950770000000 1.0
C      1  0.5234710000000  0.4653400000000  0.4590150000000 1.0
C      1  0.4150100000000  0.5345490000000  0.4851310000000 1.0
C      1  0.4326030000000  0.5151380000000  0.5283850000000 1.0
C      1  0.5950610000000  0.4952460000000  0.4424290000000 1.0
C      1  0.4078340000000  0.5030770000000  0.5572690000000 1.0
C      1  0.4762460000000  0.4232200000000  0.5266000000000 1.0
C      1  0.4186730000000  0.4777690000000  0.4614860000000 1.0
C      1  0.5063260000000  0.5156900000000  0.4235050000000 1.0
C      1  0.5564770000000  0.4332670000000  0.5472950000000 1.0
C      1  0.5231070000000  0.4945110000000  0.5894480000000 1.0
C      1  0.5112050000000  0.4418220000000  0.5322380000000 1.0
C      1  0.5395420000000  0.4461020000000  0.4901810000000 1.0
C      1  0.4644020000000  0.5599720000000  0.5603710000000 1.0
C      1  0.5962430000000  0.5524380000000  0.4894640000000 1.0
C      1  0.5215860000000  0.4934180000000  0.5127420000000 1.0
C      1  0.5397780000000  0.4140420000000  0.5350840000000 1.0
C      1  0.5604860000000  0.5357710000000  0.5254230000000 1.0
C      1  0.5195190000000  0.5272530000000  0.5634350000000 1.0
C      1  0.4615890000000  0.4627840000000  0.4540410000000 1.0
C      1  0.6128840000000  0.5261280000000  0.4828260000000 1.0
C      1  0.4912620000000  0.4832370000000  0.4059930000000 1.0
C      1  0.5590230000000  0.5072550000000  0.5339860000000 1.0
C      1  0.5300180000000  0.5007740000000  0.5506970000000 1.0
C      1  0.4027810000000  0.4558410000000  0.5120880000000 1.0
C      1  0.4110440000000  0.4831310000000  0.4932590000000 1.0
C      1  0.5122150000000  0.4314010000000  0.4196540000000 1.0
C      1  0.4690770000000  0.4397490000000  0.5502940000000 1.0
C      1  0.5583580000000  0.5748710000000  0.5156950000000 1.0
C      1  0.5210380000000  0.5242040000000  0.5031780000000 1.0
C      1  0.5684350000000  0.5117740000000  0.4801470000000 1.0
C      1  0.4706880000000  0.5608030000000  0.4432990000000 1.0
C      1  0.4239060000000  0.5454980000000  0.4601060000000 1.0
C      1  0.5687340000000  0.5516680000000  0.4783900000000 1.0
C      1  0.4216280000000  0.5406750000000  0.5332370000000 1.0
C      1  0.5464250000000  0.4717520000000  0.5219450000000 1.0
C      1  0.4355480000000  0.4335330000000  0.4806990000000 1.0
C      1  0.5039640000000  0.5207150000000  0.4762920000000 1.0
C      1  0.5392860000000  0.5011180000000  0.4064750000000 1.0
C      1  0.5056130000000  0.5465020000000  0.5221980000000 1.0
C      1  0.4868800000000  0.4329910000000  0.4503350000000 1.0
C      1  0.4830340000000  0.4262700000000  0.4798740000000 1.0
C      1  0.5198740000000  0.4700800000000  0.5492810000000 1.0
C      1  0.4928450000000  0.5029280000000  0.5806370000000 1.0
C      1  0.4776510000000  0.5371310000000  0.5392940000000 1.0
C      1  0.4348480000000  0.4526560000000  0.4584270000000 1.0
C      1  0.5984860000000  0.5033390000000  0.5288670000000 1.0
C      1  0.5494090000000  0.5337920000000  0.4977360000000 1.0
C      1  0.4641890000000  0.4398320000000  0.4035270000000 1.0
C      1  0.5243690000000  0.4642490000000  0.5885250000000 1.0
C      1  0.4970250000000  0.4539140000000  0.5890950000000 1.0
C      1  0.4975010000000  0.5484590000000  0.4609260000000 1.0
C      1  0.5658710000000  0.4920540000000  0.5042080000000 1.0
C      1  0.4902900000000  0.4437830000000  0.5051890000000 1.0
END
