TITL C-2778430-5657-25 0.00989546210629359 125000 -202.7578825853 0 0 37 (C1) n - 1
REM
REM in /home/nfs/bkarasulu/CARBON/AIRSS/Generating-Clusters/REBO/Only-C1/SD-CG/HFTN-CG
REM
REM
REM
REM
REM
REM ./C.cell (11c1c37f851c82e70ff6c80c92926a4b)
REM
REM compiler GCC version 9.2.1 20190827 (Red Hat 9.2.1-1)
REM options -cpp -mtune=generic -march=x86-64 -g -O0 -fpre-include=/usr/include/finclude/math-vector-fortran.h
REM seed -2082077586 -185867228 -1012758090 -2102183339 -1419146078 1241836437 -221987208 -1583472335 -1165658806 604202367 843064064 1072904380 -1703720211 83665003 -1253594230 -237301818 -991789577 -1007588423 1696486378 -1459968050 -1606680593 -165427176 -1909674880 1300612302 968990798 1214016297 1899575145 -346786411 -1593791772 1005678608 -2050364764 -1828201394 558080624
REM
CELL 1.54180   50.00000   50.00000   50.00000   90.00000   90.00000   90.00000
LATT -1
SFAC C  
C      1  0.4524470000000  0.5354870000000  0.5267520000000 1.0
C      1  0.5038930000000  0.5231750000000  0.4195620000000 1.0
C      1  0.5251300000000  0.4534320000000  0.5429540000000 1.0
C      1  0.4588180000000  0.5085880000000  0.5203160000000 1.0
C      1  0.4924650000000  0.5233400000000  0.4445850000000 1.0
C      1  0.4585670000000  0.5527200000000  0.5057340000000 1.0
C      1  0.4612960000000  0.4767830000000  0.4968200000000 1.0
C      1  0.5121570000000  0.5759940000000  0.5541330000000 1.0
C      1  0.5052880000000  0.5252090000000  0.5491210000000 1.0
C      1  0.5467200000000  0.5586810000000  0.4991850000000 1.0
C      1  0.4807410000000  0.5452850000000  0.4582250000000 1.0
C      1  0.4700280000000  0.5391050000000  0.4835740000000 1.0
C      1  0.4976240000000  0.4557380000000  0.4376930000000 1.0
C      1  0.5371760000000  0.4820430000000  0.4954710000000 1.0
C      1  0.4846590000000  0.4284170000000  0.5044940000000 1.0
C      1  0.5398970000000  0.4578590000000  0.5121770000000 1.0
C      1  0.4753900000000  0.4694110000000  0.5476850000000 1.0
C      1  0.5204440000000  0.4615160000000  0.4475290000000 1.0
C      1  0.4520450000000  0.4659550000000  0.4708410000000 1.0
C      1  0.4907810000000  0.4979790000000  0.4622960000000 1.0
C      1  0.5277600000000  0.5887180000000  0.5358520000000 1.0
C      1  0.5116780000000  0.4420220000000  0.5145090000000 1.0
C      1  0.4747160000000  0.4740950000000  0.4474900000000 1.0
C      1  0.5414640000000  0.5807270000000  0.5138320000000 1.0
C      1  0.5202030000000  0.4858800000000  0.4667430000000 1.0
C      1  0.4421600000000  0.4668100000000  0.4406020000000 1.0
C      1  0.4838970000000  0.4606920000000  0.5096680000000 1.0
C      1  0.4730220000000  0.5073170000000  0.4893540000000 1.0
C      1  0.5039260000000  0.5505120000000  0.5582240000000 1.0
C      1  0.4555700000000  0.4801680000000  0.5304530000000 1.0
C      1  0.5437270000000  0.5317930000000  0.4942510000000 1.0
C      1  0.5657080000000  0.4424370000000  0.5086340000000 1.0
C      1  0.5319360000000  0.5093840000000  0.5117200000000 1.0
C      1  0.4965640000000  0.4522390000000  0.5615320000000 1.0
C      1  0.5038310000000  0.4772460000000  0.5317580000000 1.0
C      1  0.5444180000000  0.5080920000000  0.4742330000000 1.0
C      1  0.5138550000000  0.5051500000000  0.5319990000000 1.0
END
