TITL C-2778425-5191-419 -0.00621862147252093 125000 -1029.33267579575 0 0 178 (C1) n - 1
REM
REM in /home/nfs/bkarasulu/CARBON/AIRSS/Generating-Clusters/REBO/Only-C1/SD-CG/HFTN-CG
REM
REM
REM
REM
REM
REM ./C.cell (11c1c37f851c82e70ff6c80c92926a4b)
REM
REM compiler GCC version 9.2.1 20190827 (Red Hat 9.2.1-1)
REM options -cpp -mtune=generic -march=x86-64 -g -O0 -fpre-include=/usr/include/finclude/math-vector-fortran.h
REM seed -698267146 1902826200 -1618672636 267064588 -216372996 -1686029549 -1050995448 1747368215 991012722 -1746651668 -1487600061 666271495 -1564290847 -1318288260 -401346771 -1491709086 -925147428 1475268570 2018182004 -2075393836 617005540 -862877267 -784970460 832667841 -537056961 1726999786 -711098533 -1106563860 536007814 -608597945 1505775148 -1559350675 1604301116
REM
CELL 1.54180   50.00000   50.00000   50.00000   90.00000   90.00000   90.00000
LATT -1
SFAC C  
C      1  0.4371910000000  0.5290600000000  0.5748040000000 1.0
C      1  0.5748680000000  0.5004240000000  0.4682300000000 1.0
C      1  0.4333200000000  0.4872110000000  0.5000010000000 1.0
C      1  0.4812180000000  0.5808470000000  0.5085170000000 1.0
C      1  0.5500620000000  0.5530360000000  0.4676070000000 1.0
C      1  0.5722690000000  0.5349920000000  0.5588980000000 1.0
C      1  0.5207280000000  0.5221270000000  0.5611240000000 1.0
C      1  0.5351630000000  0.5977050000000  0.4543810000000 1.0
C      1  0.4752020000000  0.5286140000000  0.3802650000000 1.0
C      1  0.5257290000000  0.4402130000000  0.4129110000000 1.0
C      1  0.5356480000000  0.5274970000000  0.4939560000000 1.0
C      1  0.4662720000000  0.5004810000000  0.4816800000000 1.0
C      1  0.4836670000000  0.5991000000000  0.4549470000000 1.0
C      1  0.4969480000000  0.5593990000000  0.5900350000000 1.0
C      1  0.5369770000000  0.4948930000000  0.4034880000000 1.0
C      1  0.4666900000000  0.4159790000000  0.4600520000000 1.0
C      1  0.4423820000000  0.4348230000000  0.4270050000000 1.0
C      1  0.5831400000000  0.5653060000000  0.5620450000000 1.0
C      1  0.4132090000000  0.4451170000000  0.5255260000000 1.0
C      1  0.4104190000000  0.5690610000000  0.4651860000000 1.0
C      1  0.4730300000000  0.5497400000000  0.4265980000000 1.0
C      1  0.5331440000000  0.4025840000000  0.5530310000000 1.0
C      1  0.4630120000000  0.4330310000000  0.5375860000000 1.0
C      1  0.4906140000000  0.5626040000000  0.4697140000000 1.0
C      1  0.4967690000000  0.4040260000000  0.5380650000000 1.0
C      1  0.4520730000000  0.4600390000000  0.5227880000000 1.0
C      1  0.5004520000000  0.4844140000000  0.4159690000000 1.0
C      1  0.5699640000000  0.4454750000000  0.4841910000000 1.0
C      1  0.4792030000000  0.3962800000000  0.4751450000000 1.0
C      1  0.4398130000000  0.4034860000000  0.4871320000000 1.0
C      1  0.4366330000000  0.4409360000000  0.5004810000000 1.0
C      1  0.5088620000000  0.4919830000000  0.5501020000000 1.0
C      1  0.5504610000000  0.4602010000000  0.5155500000000 1.0
C      1  0.5336510000000  0.5011620000000  0.5300020000000 1.0
C      1  0.4168250000000  0.4242790000000  0.4771780000000 1.0
C      1  0.5271630000000  0.5618230000000  0.5640020000000 1.0
C      1  0.5486470000000  0.4659220000000  0.4574130000000 1.0
C      1  0.5177310000000  0.3832470000000  0.5295100000000 1.0
C      1  0.4504730000000  0.5521970000000  0.5455140000000 1.0
C      1  0.4417160000000  0.4665800000000  0.5767530000000 1.0
C      1  0.5829540000000  0.4492010000000  0.4468160000000 1.0
C      1  0.5112440000000  0.5320020000000  0.5922880000000 1.0
C      1  0.5556660000000  0.4331730000000  0.4555950000000 1.0
C      1  0.5789420000000  0.5488890000000  0.4506180000000 1.0
C      1  0.5154180000000  0.4624740000000  0.5970200000000 1.0
C      1  0.4734890000000  0.4934430000000  0.5315400000000 1.0
C      1  0.4745040000000  0.4646510000000  0.4661920000000 1.0
C      1  0.6037660000000  0.5329460000000  0.5200680000000 1.0
C      1  0.6026600000000  0.4636020000000  0.5586450000000 1.0
C      1  0.5529370000000  0.4055240000000  0.5254500000000 1.0
C      1  0.4890300000000  0.5139980000000  0.4717440000000 1.0
C      1  0.5098630000000  0.5718980000000  0.5410330000000 1.0
C      1  0.5010770000000  0.4202460000000  0.4255700000000 1.0
C      1  0.5701330000000  0.4320300000000  0.5154860000000 1.0
C      1  0.4846990000000  0.4290890000000  0.5820120000000 1.0
C      1  0.5416400000000  0.5166930000000  0.5902270000000 1.0
C      1  0.5101560000000  0.4370640000000  0.4875110000000 1.0
C      1  0.5523310000000  0.5452500000000  0.4291520000000 1.0
C      1  0.5188500000000  0.4594230000000  0.5501600000000 1.0
C      1  0.4353830000000  0.4865710000000  0.4245570000000 1.0
C      1  0.3908080000000  0.4980080000000  0.5221770000000 1.0
C      1  0.5451660000000  0.4095750000000  0.4938730000000 1.0
C      1  0.6225860000000  0.4888310000000  0.4911550000000 1.0
C      1  0.5940520000000  0.5176750000000  0.5478440000000 1.0
C      1  0.4638780000000  0.4242370000000  0.4990850000000 1.0
C      1  0.5513240000000  0.4748580000000  0.4879790000000 1.0
C      1  0.4862790000000  0.4388320000000  0.4502890000000 1.0
C      1  0.4429160000000  0.5654470000000  0.4729110000000 1.0
C      1  0.5008610000000  0.6051350000000  0.5005060000000 1.0
C      1  0.4990720000000  0.5128030000000  0.3759620000000 1.0
C      1  0.5288580000000  0.6058490000000  0.5120130000000 1.0
C      1  0.5146370000000  0.4861310000000  0.5063600000000 1.0
C      1  0.5138430000000  0.6020340000000  0.5381340000000 1.0
C      1  0.5144570000000  0.4194090000000  0.5760480000000 1.0
C      1  0.4378050000000  0.5019300000000  0.4707400000000 1.0
C      1  0.4773580000000  0.5571880000000  0.3759920000000 1.0
C      1  0.5287310000000  0.4664590000000  0.3943440000000 1.0
C      1  0.5780390000000  0.5816500000000  0.5436250000000 1.0
C      1  0.4684810000000  0.5263480000000  0.5612330000000 1.0
C      1  0.5861000000000  0.4975290000000  0.5222580000000 1.0
C      1  0.5073450000000  0.4035100000000  0.4824290000000 1.0
C      1  0.5181130000000  0.4289540000000  0.5376040000000 1.0
C      1  0.5503320000000  0.4529130000000  0.5615750000000 1.0
C      1  0.4177360000000  0.5394360000000  0.4560940000000 1.0
C      1  0.5090830000000  0.5850540000000  0.4422390000000 1.0
C      1  0.4777080000000  0.5737860000000  0.5850580000000 1.0
C      1  0.4074650000000  0.4754890000000  0.5111060000000 1.0
C      1  0.5474740000000  0.5523000000000  0.5739570000000 1.0
C      1  0.4458940000000  0.5045860000000  0.5216280000000 1.0
C      1  0.5735000000000  0.4747670000000  0.5721840000000 1.0
C      1  0.4973420000000  0.5168220000000  0.6122920000000 1.0
C      1  0.5012180000000  0.5352240000000  0.4312290000000 1.0
C      1  0.4806470000000  0.5703170000000  0.4011980000000 1.0
C      1  0.6014590000000  0.5125330000000  0.4953730000000 1.0
C      1  0.5098180000000  0.5619710000000  0.4881880000000 1.0
C      1  0.5972950000000  0.4936360000000  0.4278440000000 1.0
C      1  0.4209190000000  0.5301010000000  0.4308240000000 1.0
C      1  0.4347080000000  0.5347040000000  0.5209750000000 1.0
C      1  0.4256190000000  0.5410530000000  0.4892330000000 1.0
C      1  0.5871960000000  0.4719960000000  0.4710890000000 1.0
C      1  0.4248200000000  0.4846880000000  0.4512470000000 1.0
C      1  0.4724130000000  0.4342110000000  0.4135010000000 1.0
C      1  0.4971270000000  0.5114230000000  0.5175190000000 1.0
C      1  0.5077900000000  0.5704990000000  0.4136730000000 1.0
C      1  0.5515840000000  0.5212070000000  0.4536300000000 1.0
C      1  0.3642500000000  0.4932560000000  0.5282820000000 1.0
C      1  0.6002220000000  0.4953850000000  0.5682860000000 1.0
C      1  0.5235330000000  0.5545320000000  0.4466320000000 1.0
C      1  0.4291060000000  0.4427170000000  0.5556760000000 1.0
C      1  0.5330330000000  0.4182790000000  0.4379090000000 1.0
C      1  0.5079840000000  0.5221330000000  0.4906630000000 1.0
C      1  0.5030620000000  0.4589940000000  0.4283280000000 1.0
C      1  0.5190720000000  0.4915600000000  0.5880740000000 1.0
C      1  0.5258980000000  0.5429470000000  0.4088890000000 1.0
C      1  0.5986920000000  0.4681540000000  0.5264090000000 1.0
C      1  0.4700670000000  0.4040640000000  0.5242910000000 1.0
C      1  0.5024560000000  0.4848940000000  0.3862720000000 1.0
C      1  0.3970330000000  0.5516250000000  0.5148940000000 1.0
C      1  0.4631130000000  0.3845750000000  0.4979000000000 1.0
C      1  0.4266230000000  0.5586340000000  0.5761350000000 1.0
C      1  0.3925440000000  0.5547030000000  0.4858540000000 1.0
C      1  0.6203100000000  0.4676980000000  0.5049690000000 1.0
C      1  0.4379530000000  0.5133150000000  0.4160030000000 1.0
C      1  0.4135170000000  0.4609470000000  0.4672470000000 1.0
C      1  0.4890370000000  0.5032270000000  0.5757450000000 1.0
C      1  0.4150480000000  0.5723280000000  0.5529370000000 1.0
C      1  0.5030810000000  0.4618860000000  0.5214330000000 1.0
C      1  0.5345950000000  0.4018420000000  0.4657510000000 1.0
C      1  0.4593860000000  0.4306550000000  0.5671010000000 1.0
C      1  0.4767200000000  0.6077680000000  0.4800560000000 1.0
C      1  0.5585580000000  0.4830930000000  0.5360320000000 1.0
C      1  0.5478410000000  0.5836160000000  0.4738460000000 1.0
C      1  0.4335090000000  0.4745480000000  0.5445380000000 1.0
C      1  0.5454670000000  0.4964270000000  0.4324040000000 1.0
C      1  0.4808540000000  0.5678670000000  0.5456290000000 1.0
C      1  0.4515740000000  0.5792840000000  0.5672240000000 1.0
C      1  0.5717630000000  0.4781040000000  0.4349110000000 1.0
C      1  0.4722580000000  0.4792800000000  0.5032210000000 1.0
C      1  0.4025110000000  0.5231120000000  0.5231420000000 1.0
C      1  0.4883230000000  0.4544480000000  0.5967620000000 1.0
C      1  0.5211790000000  0.4846900000000  0.4532080000000 1.0
C      1  0.5181770000000  0.5605270000000  0.5136210000000 1.0
C      1  0.4565290000000  0.6030790000000  0.5074650000000 1.0
C      1  0.4233120000000  0.4920250000000  0.5788490000000 1.0
C      1  0.5308300000000  0.4352140000000  0.5107110000000 1.0
C      1  0.5521480000000  0.5055490000000  0.4902820000000 1.0
C      1  0.4673750000000  0.5607450000000  0.4555870000000 1.0
C      1  0.5651900000000  0.5709060000000  0.5163860000000 1.0
C      1  0.4399160000000  0.4224470000000  0.4521670000000 1.0
C      1  0.4967800000000  0.5060550000000  0.4415640000000 1.0
C      1  0.4458460000000  0.4637000000000  0.4779720000000 1.0
C      1  0.4166620000000  0.5700450000000  0.5249680000000 1.0
C      1  0.4725750000000  0.4754880000000  0.5529540000000 1.0
C      1  0.4828520000000  0.4469140000000  0.5009690000000 1.0
C      1  0.3979470000000  0.4472880000000  0.4943390000000 1.0
C      1  0.4612990000000  0.5262470000000  0.4063180000000 1.0
C      1  0.6100430000000  0.5107330000000  0.4409710000000 1.0
C      1  0.5768690000000  0.4479960000000  0.5428320000000 1.0
C      1  0.5189760000000  0.3807760000000  0.5026040000000 1.0
C      1  0.5463740000000  0.4921660000000  0.5669500000000 1.0
C      1  0.4806420000000  0.5327670000000  0.5300630000000 1.0
C      1  0.4709710000000  0.4758390000000  0.5853900000000 1.0
C      1  0.5454770000000  0.5297260000000  0.5411070000000 1.0
C      1  0.5452980000000  0.5474320000000  0.5169590000000 1.0
C      1  0.4902350000000  0.6148470000000  0.5449880000000 1.0
C      1  0.4280840000000  0.5077150000000  0.5497240000000 1.0
C      1  0.5504390000000  0.5914590000000  0.5002850000000 1.0
C      1  0.5955630000000  0.5260030000000  0.4646700000000 1.0
C      1  0.4696590000000  0.5529450000000  0.5107480000000 1.0
C      1  0.5061320000000  0.4696270000000  0.4779560000000 1.0
C      1  0.4633450000000  0.5969380000000  0.5403710000000 1.0
C      1  0.4708580000000  0.4835320000000  0.4422180000000 1.0
C      1  0.4422660000000  0.5730620000000  0.5061830000000 1.0
C      1  0.5951960000000  0.5589350000000  0.5155850000000 1.0
C      1  0.5309630000000  0.4424570000000  0.5841840000000 1.0
C      1  0.4567830000000  0.4641440000000  0.4188700000000 1.0
C      1  0.4274900000000  0.5112450000000  0.6015080000000 1.0
C      1  0.5247910000000  0.5176720000000  0.3917480000000 1.0
END
