TITL C-2778425-5191-575 -0.00226779187552332 125000 -635.433195803827 0 0 110 (C1) n - 1
REM
REM in /home/nfs/bkarasulu/CARBON/AIRSS/Generating-Clusters/REBO/Only-C1/SD-CG/HFTN-CG
REM
REM
REM
REM
REM
REM ./C.cell (11c1c37f851c82e70ff6c80c92926a4b)
REM
REM compiler GCC version 9.2.1 20190827 (Red Hat 9.2.1-1)
REM options -cpp -mtune=generic -march=x86-64 -g -O0 -fpre-include=/usr/include/finclude/math-vector-fortran.h
REM seed -1914730514 -2105306027 -235523923 1237050571 887273528 -1463781887 -1761074153 525433861 -2130759503 1867342493 -1550943703 -1753305984 -1268941763 502948493 -1708941505 -666308041 -1023052359 181578468 1947605237 825167872 901671146 1736388959 282214557 2032268824 -2002916125 1264445814 -1693668065 -798617466 1682036079 1629082295 -1243424900 -760677673 -1154224771
REM
CELL 1.54180   50.00000   50.00000   50.00000   90.00000   90.00000   90.00000
LATT -1
SFAC C  
C      1  0.4816940000000  0.5185310000000  0.5934260000000 1.0
C      1  0.5735570000000  0.4421350000000  0.5024180000000 1.0
C      1  0.5143050000000  0.4535690000000  0.4804970000000 1.0
C      1  0.4701090000000  0.4510480000000  0.5469200000000 1.0
C      1  0.4172860000000  0.5331090000000  0.5077970000000 1.0
C      1  0.4564580000000  0.4269800000000  0.4453760000000 1.0
C      1  0.4447810000000  0.4983790000000  0.4405630000000 1.0
C      1  0.5174660000000  0.5272510000000  0.4427150000000 1.0
C      1  0.4826550000000  0.4987250000000  0.3959150000000 1.0
C      1  0.4641940000000  0.5400710000000  0.4086210000000 1.0
C      1  0.3957250000000  0.4201100000000  0.5235480000000 1.0
C      1  0.5141160000000  0.5236710000000  0.5312160000000 1.0
C      1  0.4331420000000  0.5077320000000  0.5477190000000 1.0
C      1  0.4415610000000  0.4625250000000  0.5609610000000 1.0
C      1  0.4641390000000  0.5242700000000  0.4376070000000 1.0
C      1  0.4308920000000  0.5380100000000  0.5545950000000 1.0
C      1  0.4721810000000  0.4872740000000  0.4249510000000 1.0
C      1  0.4376780000000  0.4891720000000  0.5728320000000 1.0
C      1  0.5419490000000  0.5513140000000  0.4848920000000 1.0
C      1  0.5051880000000  0.4843240000000  0.4167200000000 1.0
C      1  0.5189620000000  0.4579390000000  0.4331930000000 1.0
C      1  0.5820870000000  0.5395420000000  0.4669500000000 1.0
C      1  0.5302660000000  0.5733830000000  0.4580600000000 1.0
C      1  0.5396150000000  0.5495620000000  0.4451270000000 1.0
C      1  0.5295320000000  0.5057620000000  0.4212320000000 1.0
C      1  0.4738320000000  0.5636160000000  0.5241080000000 1.0
C      1  0.5377920000000  0.4321850000000  0.4673650000000 1.0
C      1  0.5050450000000  0.5849900000000  0.4559350000000 1.0
C      1  0.4558800000000  0.5562890000000  0.4356250000000 1.0
C      1  0.5031180000000  0.5919470000000  0.5279280000000 1.0
C      1  0.4754360000000  0.4205100000000  0.4956430000000 1.0
C      1  0.5256220000000  0.4533350000000  0.5661520000000 1.0
C      1  0.5460390000000  0.4448850000000  0.5185210000000 1.0
C      1  0.5007860000000  0.4598450000000  0.5453620000000 1.0
C      1  0.4452630000000  0.5605790000000  0.5116820000000 1.0
C      1  0.5127930000000  0.5191660000000  0.4864670000000 1.0
C      1  0.5040150000000  0.5406850000000  0.5961730000000 1.0
C      1  0.5518430000000  0.4682870000000  0.5653890000000 1.0
C      1  0.5023360000000  0.4166380000000  0.5153710000000 1.0
C      1  0.5806880000000  0.4677330000000  0.4589980000000 1.0
C      1  0.5631400000000  0.4735790000000  0.4942570000000 1.0
C      1  0.5620420000000  0.5095300000000  0.4318750000000 1.0
C      1  0.4371750000000  0.5436560000000  0.4829920000000 1.0
C      1  0.5206280000000  0.4344460000000  0.5380150000000 1.0
C      1  0.5874420000000  0.4779040000000  0.5366200000000 1.0
C      1  0.4830980000000  0.4184350000000  0.4641970000000 1.0
C      1  0.5837910000000  0.5199900000000  0.4929490000000 1.0
C      1  0.4373910000000  0.4459290000000  0.4573450000000 1.0
C      1  0.5165470000000  0.5755560000000  0.5454420000000 1.0
C      1  0.4533650000000  0.5483700000000  0.5679430000000 1.0
C      1  0.4851050000000  0.4566190000000  0.4825160000000 1.0
C      1  0.5216880000000  0.4831680000000  0.4546420000000 1.0
C      1  0.5518540000000  0.5214900000000  0.4859110000000 1.0
C      1  0.4933810000000  0.5777630000000  0.5014120000000 1.0
C      1  0.5099950000000  0.5516330000000  0.4867480000000 1.0
C      1  0.4893890000000  0.5215650000000  0.4542070000000 1.0
C      1  0.4711150000000  0.4720150000000  0.4553740000000 1.0
C      1  0.5503990000000  0.5643620000000  0.5090710000000 1.0
C      1  0.5759730000000  0.5297340000000  0.5247770000000 1.0
C      1  0.5902490000000  0.4895850000000  0.4836120000000 1.0
C      1  0.5418900000000  0.5088870000000  0.4590290000000 1.0
C      1  0.5421940000000  0.5568290000000  0.5694950000000 1.0
C      1  0.5329250000000  0.4749040000000  0.5201320000000 1.0
C      1  0.4950050000000  0.4923640000000  0.4630410000000 1.0
C      1  0.5060230000000  0.4726700000000  0.5828630000000 1.0
C      1  0.4596460000000  0.5006730000000  0.5274100000000 1.0
C      1  0.4800490000000  0.5625310000000  0.5545070000000 1.0
C      1  0.4738470000000  0.5232860000000  0.3883390000000 1.0
C      1  0.4274710000000  0.4710150000000  0.4491810000000 1.0
C      1  0.5213580000000  0.5170400000000  0.5888520000000 1.0
C      1  0.5438270000000  0.4756450000000  0.4223170000000 1.0
C      1  0.4490310000000  0.4703640000000  0.5297760000000 1.0
C      1  0.5107480000000  0.4305980000000  0.4481220000000 1.0
C      1  0.5190220000000  0.4909980000000  0.6007840000000 1.0
C      1  0.4150770000000  0.4933410000000  0.4666140000000 1.0
C      1  0.5669290000000  0.5006700000000  0.5330590000000 1.0
C      1  0.5309380000000  0.5533700000000  0.5316980000000 1.0
C      1  0.4788400000000  0.4487640000000  0.5145060000000 1.0
C      1  0.4510860000000  0.4849580000000  0.4796440000000 1.0
C      1  0.4656660000000  0.5054320000000  0.4983320000000 1.0
C      1  0.5017650000000  0.4741130000000  0.5143710000000 1.0
C      1  0.4863360000000  0.5070680000000  0.5439600000000 1.0
C      1  0.5479860000000  0.4952120000000  0.5567540000000 1.0
C      1  0.4618100000000  0.5590040000000  0.4666730000000 1.0
C      1  0.5715600000000  0.4783890000000  0.4349910000000 1.0
C      1  0.4952830000000  0.4958500000000  0.4948720000000 1.0
C      1  0.5384730000000  0.4754500000000  0.4805890000000 1.0
C      1  0.4815300000000  0.5307740000000  0.5646920000000 1.0
C      1  0.4845450000000  0.4863850000000  0.5701900000000 1.0
C      1  0.4528290000000  0.4445130000000  0.4849340000000 1.0
C      1  0.5781890000000  0.4608000000000  0.5567910000000 1.0
C      1  0.4609400000000  0.4961880000000  0.5893950000000 1.0
C      1  0.4134060000000  0.4367820000000  0.5157590000000 1.0
C      1  0.4346220000000  0.4567870000000  0.5064120000000 1.0
C      1  0.5938400000000  0.4674340000000  0.5092030000000 1.0
C      1  0.4297080000000  0.5207010000000  0.4616180000000 1.0
C      1  0.5263920000000  0.4290120000000  0.4989300000000 1.0
C      1  0.5390700000000  0.5072150000000  0.5141300000000 1.0
C      1  0.4753910000000  0.5322790000000  0.4822780000000 1.0
C      1  0.5084830000000  0.5621260000000  0.5738080000000 1.0
C      1  0.5654720000000  0.5380170000000  0.4452870000000 1.0
C      1  0.5677420000000  0.4426230000000  0.4696670000000 1.0
C      1  0.4905080000000  0.5395280000000  0.5119760000000 1.0
C      1  0.5605950000000  0.5474100000000  0.5437140000000 1.0
C      1  0.4818000000000  0.4445980000000  0.4380120000000 1.0
C      1  0.4227060000000  0.5524070000000  0.5311360000000 1.0
C      1  0.4196490000000  0.5058620000000  0.5175490000000 1.0
C      1  0.4216760000000  0.4844470000000  0.4966650000000 1.0
C      1  0.4839230000000  0.5796540000000  0.4723550000000 1.0
C      1  0.5284040000000  0.5146300000000  0.5611120000000 1.0
END
