TITL C-2778430-5657-1008 0.06843864544416 125000 -839.650513849701 0 0 141 (C1) n - 1
REM
REM in /home/nfs/bkarasulu/CARBON/AIRSS/Generating-Clusters/REBO/Only-C1/SD-CG/HFTN-CG
REM
REM
REM
REM
REM
REM ./C.cell (11c1c37f851c82e70ff6c80c92926a4b)
REM
REM compiler GCC version 9.2.1 20190827 (Red Hat 9.2.1-1)
REM options -cpp -mtune=generic -march=x86-64 -g -O0 -fpre-include=/usr/include/finclude/math-vector-fortran.h
REM seed 752518546 532788136 -2073301078 1446368611 922055003 -632141946 -140307658 1789974627 1574361031 -1826715915 -713464918 661613495 -1361216140 -1261611585 -1276340822 308574579 422342050 694980806 528950249 383219549 -75074097 501842033 -1569538585 -331967531 -1496815571 436118260 108601216 -1347049363 -1361736242 -1963107154 398875048 1167766418 1610468134
REM
CELL 1.54180   50.00000   50.00000   50.00000   90.00000   90.00000   90.00000
LATT -1
SFAC C  
C      1  0.5830330000000  0.5288340000000  0.4466750000000 1.0
C      1  0.5933480000000  0.4719030000000  0.5142630000000 1.0
C      1  0.4827300000000  0.6339340000000  0.5027630000000 1.0
C      1  0.5065310000000  0.5463490000000  0.5434350000000 1.0
C      1  0.4640850000000  0.5920190000000  0.5593640000000 1.0
C      1  0.5858710000000  0.4966050000000  0.5287490000000 1.0
C      1  0.5142420000000  0.4959310000000  0.5901090000000 1.0
C      1  0.4794660000000  0.5102570000000  0.4979930000000 1.0
C      1  0.5708290000000  0.4448920000000  0.5503380000000 1.0
C      1  0.4915480000000  0.4656150000000  0.4002520000000 1.0
C      1  0.4754710000000  0.5463690000000  0.4714800000000 1.0
C      1  0.5122690000000  0.4875330000000  0.5005530000000 1.0
C      1  0.5425370000000  0.5899700000000  0.4733830000000 1.0
C      1  0.4360670000000  0.4864470000000  0.5764090000000 1.0
C      1  0.5538350000000  0.4113810000000  0.5202680000000 1.0
C      1  0.5129380000000  0.4415140000000  0.5758580000000 1.0
C      1  0.4476810000000  0.5723490000000  0.5100040000000 1.0
C      1  0.4588970000000  0.4044260000000  0.5128290000000 1.0
C      1  0.4149230000000  0.5010860000000  0.4816230000000 1.0
C      1  0.4306760000000  0.5344400000000  0.4485720000000 1.0
C      1  0.5422320000000  0.4765520000000  0.5083260000000 1.0
C      1  0.5383900000000  0.4742880000000  0.5478690000000 1.0
C      1  0.5197470000000  0.4588400000000  0.5270520000000 1.0
C      1  0.4707830000000  0.4952100000000  0.5938600000000 1.0
C      1  0.5122550000000  0.4073240000000  0.4291380000000 1.0
C      1  0.5635200000000  0.5556890000000  0.4409230000000 1.0
C      1  0.4755270000000  0.5228470000000  0.5766330000000 1.0
C      1  0.5428500000000  0.5372880000000  0.4575340000000 1.0
C      1  0.4913550000000  0.5154900000000  0.5232470000000 1.0
C      1  0.4864520000000  0.4954190000000  0.4710950000000 1.0
C      1  0.5079420000000  0.4129710000000  0.5374630000000 1.0
C      1  0.4661550000000  0.4411540000000  0.5491840000000 1.0
C      1  0.4957340000000  0.5644160000000  0.5253230000000 1.0
C      1  0.5637530000000  0.5127520000000  0.4972810000000 1.0
C      1  0.4256730000000  0.5527260000000  0.5250660000000 1.0
C      1  0.5697260000000  0.5040360000000  0.4493150000000 1.0
C      1  0.4082500000000  0.4909370000000  0.4557330000000 1.0
C      1  0.3946940000000  0.4757190000000  0.5088290000000 1.0
C      1  0.4160930000000  0.4489630000000  0.5082270000000 1.0
C      1  0.4601320000000  0.4968160000000  0.4511750000000 1.0
C      1  0.5339120000000  0.4313380000000  0.4672830000000 1.0
C      1  0.5428490000000  0.5250770000000  0.5205910000000 1.0
C      1  0.5332990000000  0.5531340000000  0.5105950000000 1.0
C      1  0.4383790000000  0.4384270000000  0.4594370000000 1.0
C      1  0.4925900000000  0.5465450000000  0.5890830000000 1.0
C      1  0.4176630000000  0.5114000000000  0.4327610000000 1.0
C      1  0.5291130000000  0.4684560000000  0.5789180000000 1.0
C      1  0.4143100000000  0.4954420000000  0.5525450000000 1.0
C      1  0.4317950000000  0.4836650000000  0.4967500000000 1.0
C      1  0.4992550000000  0.5924550000000  0.5319830000000 1.0
C      1  0.4432550000000  0.5166640000000  0.5349810000000 1.0
C      1  0.5228800000000  0.5593820000000  0.5673190000000 1.0
C      1  0.5106210000000  0.5222550000000  0.5956720000000 1.0
C      1  0.4969650000000  0.5872700000000  0.4926030000000 1.0
C      1  0.4847280000000  0.4890420000000  0.4317830000000 1.0
C      1  0.4433630000000  0.4871820000000  0.5263870000000 1.0
C      1  0.5243370000000  0.5395340000000  0.4833970000000 1.0
C      1  0.5320220000000  0.5288940000000  0.5586960000000 1.0
C      1  0.4794070000000  0.4071380000000  0.4529850000000 1.0
C      1  0.5883130000000  0.5460390000000  0.4704560000000 1.0
C      1  0.4692490000000  0.5724850000000  0.4513030000000 1.0
C      1  0.4324680000000  0.5509970000000  0.5521080000000 1.0
C      1  0.5709370000000  0.4293320000000  0.5044080000000 1.0
C      1  0.5189980000000  0.4914820000000  0.4617610000000 1.0
C      1  0.5752070000000  0.4804550000000  0.4640380000000 1.0
C      1  0.4678490000000  0.4597400000000  0.4986130000000 1.0
C      1  0.5251830000000  0.4220480000000  0.5582190000000 1.0
C      1  0.4497810000000  0.4087720000000  0.4642300000000 1.0
C      1  0.5019790000000  0.5138020000000  0.4316190000000 1.0
C      1  0.4764750000000  0.5628990000000  0.4988770000000 1.0
C      1  0.5275620000000  0.5846840000000  0.5023870000000 1.0
C      1  0.5845330000000  0.4469660000000  0.5242550000000 1.0
C      1  0.4727470000000  0.5249910000000  0.5446000000000 1.0
C      1  0.5302810000000  0.4090430000000  0.4463700000000 1.0
C      1  0.5244340000000  0.4595960000000  0.4554310000000 1.0
C      1  0.5444750000000  0.5793580000000  0.5298370000000 1.0
C      1  0.4476840000000  0.3991850000000  0.4914900000000 1.0
C      1  0.4473460000000  0.4477710000000  0.5217760000000 1.0
C      1  0.4262050000000  0.5229690000000  0.5641250000000 1.0
C      1  0.4619780000000  0.4663730000000  0.5798460000000 1.0
C      1  0.5894600000000  0.5314190000000  0.4938530000000 1.0
C      1  0.5304690000000  0.5093430000000  0.4160890000000 1.0
C      1  0.4866150000000  0.4259810000000  0.4270270000000 1.0
C      1  0.4624470000000  0.4722330000000  0.4119400000000 1.0
C      1  0.4132690000000  0.5308140000000  0.5117140000000 1.0
C      1  0.4687670000000  0.4717110000000  0.5366790000000 1.0
C      1  0.5170810000000  0.4699110000000  0.3900280000000 1.0
C      1  0.5391010000000  0.5090470000000  0.4456740000000 1.0
C      1  0.4840670000000  0.4419450000000  0.5758520000000 1.0
C      1  0.5448740000000  0.4626270000000  0.4299430000000 1.0
C      1  0.5621850000000  0.5254800000000  0.5591360000000 1.0
C      1  0.4043450000000  0.5055570000000  0.5215350000000 1.0
C      1  0.5712670000000  0.5011470000000  0.5689330000000 1.0
C      1  0.5818490000000  0.5716090000000  0.5002360000000 1.0
C      1  0.5362070000000  0.5816700000000  0.5589110000000 1.0
C      1  0.4593760000000  0.5948400000000  0.5308370000000 1.0
C      1  0.5334910000000  0.5092680000000  0.4852660000000 1.0
C      1  0.4163260000000  0.4697730000000  0.5337890000000 1.0
C      1  0.5362670000000  0.4798060000000  0.4084890000000 1.0
C      1  0.5771560000000  0.5414940000000  0.5395010000000 1.0
C      1  0.4995600000000  0.4808820000000  0.5412680000000 1.0
C      1  0.4545770000000  0.5242550000000  0.4700340000000 1.0
C      1  0.5717910000000  0.5658950000000  0.5251930000000 1.0
C      1  0.5642080000000  0.4561480000000  0.4544190000000 1.0
C      1  0.4450060000000  0.5163820000000  0.5890270000000 1.0
C      1  0.4918780000000  0.4807550000000  0.5713350000000 1.0
C      1  0.5050290000000  0.4363620000000  0.5133810000000 1.0
C      1  0.5050970000000  0.4382110000000  0.4832630000000 1.0
C      1  0.5538020000000  0.5544360000000  0.4115540000000 1.0
C      1  0.4781870000000  0.5684170000000  0.5743010000000 1.0
C      1  0.4549120000000  0.4233400000000  0.4308670000000 1.0
C      1  0.5006590000000  0.4084480000000  0.4732340000000 1.0
C      1  0.5057670000000  0.5579730000000  0.4324510000000 1.0
C      1  0.5557910000000  0.4959250000000  0.5324340000000 1.0
C      1  0.4420180000000  0.4541560000000  0.4296830000000 1.0
C      1  0.4920900000000  0.4625080000000  0.4645490000000 1.0
C      1  0.5630640000000  0.4352180000000  0.4776080000000 1.0
C      1  0.4352800000000  0.4834920000000  0.4387420000000 1.0
C      1  0.5621500000000  0.4695950000000  0.5703130000000 1.0
C      1  0.5167190000000  0.3913340000000  0.4871680000000 1.0
C      1  0.4906100000000  0.4722460000000  0.5032560000000 1.0
C      1  0.4571550000000  0.5483100000000  0.4360220000000 1.0
C      1  0.4171670000000  0.5338730000000  0.4797760000000 1.0
C      1  0.4608170000000  0.5527200000000  0.5547670000000 1.0
C      1  0.4808790000000  0.6128010000000  0.5188990000000 1.0
C      1  0.4498370000000  0.5182120000000  0.5016600000000 1.0
C      1  0.5030000000000  0.5357690000000  0.4580870000000 1.0
C      1  0.5360180000000  0.3944380000000  0.5062880000000 1.0
C      1  0.5720540000000  0.4830180000000  0.4937950000000 1.0
C      1  0.4966480000000  0.5839670000000  0.4439280000000 1.0
C      1  0.4921980000000  0.4555770000000  0.4321220000000 1.0
C      1  0.4252150000000  0.5648890000000  0.4871620000000 1.0
C      1  0.5925890000000  0.5237130000000  0.5227230000000 1.0
C      1  0.4822120000000  0.5390510000000  0.4242200000000 1.0
C      1  0.5684680000000  0.5738260000000  0.4693150000000 1.0
C      1  0.5519390000000  0.4228320000000  0.5477740000000 1.0
C      1  0.4782100000000  0.4214750000000  0.5282860000000 1.0
C      1  0.5416160000000  0.5345450000000  0.4020570000000 1.0
C      1  0.5121380000000  0.5928960000000  0.4665860000000 1.0
C      1  0.4382410000000  0.4543420000000  0.4835610000000 1.0
C      1  0.5181220000000  0.5085210000000  0.5357550000000 1.0
END
