TITL C-2778431-5191-151 0.000677406009113156 125000 -683.994556917609 0 0 117 (C1) n - 1
REM
REM in /home/nfs/bkarasulu/CARBON/AIRSS/Generating-Clusters/REBO/Only-C1/SD-CG/HFTN-CG
REM
REM
REM
REM
REM
REM ./C.cell (11c1c37f851c82e70ff6c80c92926a4b)
REM
REM compiler GCC version 9.2.1 20190827 (Red Hat 9.2.1-1)
REM options -cpp -mtune=generic -march=x86-64 -g -O0 -fpre-include=/usr/include/finclude/math-vector-fortran.h
REM seed 625213861 505800379 733647623 844420802 892637819 2106626450 840492701 1805071550 -1547063193 -1773601243 -541496940 29393636 224880601 -1022295414 -2064705113 605805853 -40399652 102473562 -1504532239 83719625 -1645502332 1279100741 1360389520 -1647589031 2130843606 1917071309 -482470230 -449793660 974674240 -1219291610 -746575779 601193893 1422811829
REM
CELL 1.54180   50.00000   50.00000   50.00000   90.00000   90.00000   90.00000
LATT -1
SFAC C  
C      1  0.5498740000000  0.4724460000000  0.4297330000000 1.0
C      1  0.5326630000000  0.4736650000000  0.4077040000000 1.0
C      1  0.5275700000000  0.4853970000000  0.4905350000000 1.0
C      1  0.4470990000000  0.5281080000000  0.4194250000000 1.0
C      1  0.4649170000000  0.4756080000000  0.4261550000000 1.0
C      1  0.4990770000000  0.4497250000000  0.4492760000000 1.0
C      1  0.4245860000000  0.4829000000000  0.5217130000000 1.0
C      1  0.6012980000000  0.5820410000000  0.4815480000000 1.0
C      1  0.4239080000000  0.5338300000000  0.4878290000000 1.0
C      1  0.4700160000000  0.5749290000000  0.4476370000000 1.0
C      1  0.5341790000000  0.5853120000000  0.5195030000000 1.0
C      1  0.4288340000000  0.5137510000000  0.5107580000000 1.0
C      1  0.4893280000000  0.4292510000000  0.5573680000000 1.0
C      1  0.4719960000000  0.4491580000000  0.4413200000000 1.0
C      1  0.4647650000000  0.5647110000000  0.4862960000000 1.0
C      1  0.5135680000000  0.5383320000000  0.4473880000000 1.0
C      1  0.4557060000000  0.4749420000000  0.5726830000000 1.0
C      1  0.5683730000000  0.5370890000000  0.5669850000000 1.0
C      1  0.4272510000000  0.4627690000000  0.4993220000000 1.0
C      1  0.4634210000000  0.5474080000000  0.4503520000000 1.0
C      1  0.4747390000000  0.5363690000000  0.5564740000000 1.0
C      1  0.4269540000000  0.4775610000000  0.5547000000000 1.0
C      1  0.5593860000000  0.5092130000000  0.5858630000000 1.0
C      1  0.4925830000000  0.5158700000000  0.4002300000000 1.0
C      1  0.4818320000000  0.5854390000000  0.5150250000000 1.0
C      1  0.4452960000000  0.4220520000000  0.4732540000000 1.0
C      1  0.5589640000000  0.4705650000000  0.5503830000000 1.0
C      1  0.4319640000000  0.4478340000000  0.5385250000000 1.0
C      1  0.4486150000000  0.5480520000000  0.5527320000000 1.0
C      1  0.5093780000000  0.5674730000000  0.5187960000000 1.0
C      1  0.4374250000000  0.5036210000000  0.5743340000000 1.0
C      1  0.4346870000000  0.4816350000000  0.4272550000000 1.0
C      1  0.5084110000000  0.5182100000000  0.5848030000000 1.0
C      1  0.4294580000000  0.5092440000000  0.4317950000000 1.0
C      1  0.5704470000000  0.5488850000000  0.4621300000000 1.0
C      1  0.5149140000000  0.4140190000000  0.5212650000000 1.0
C      1  0.5561760000000  0.5766420000000  0.5002290000000 1.0
C      1  0.4932040000000  0.5012560000000  0.5999370000000 1.0
C      1  0.5855900000000  0.5101590000000  0.5660560000000 1.0
C      1  0.5021560000000  0.4493000000000  0.5781630000000 1.0
C      1  0.4840760000000  0.4462480000000  0.4970120000000 1.0
C      1  0.5751400000000  0.5150070000000  0.4651640000000 1.0
C      1  0.5193270000000  0.4949020000000  0.3983330000000 1.0
C      1  0.4755500000000  0.4947190000000  0.4932520000000 1.0
C      1  0.5310220000000  0.5076680000000  0.5688200000000 1.0
C      1  0.5314130000000  0.4490250000000  0.5696920000000 1.0
C      1  0.4860940000000  0.4703870000000  0.5980280000000 1.0
C      1  0.5547980000000  0.5252590000000  0.4900530000000 1.0
C      1  0.5022900000000  0.5501810000000  0.4179350000000 1.0
C      1  0.4836360000000  0.4687020000000  0.5583170000000 1.0
C      1  0.5788700000000  0.4428780000000  0.5132280000000 1.0
C      1  0.4586460000000  0.4821990000000  0.4593770000000 1.0
C      1  0.4785580000000  0.5168930000000  0.5320530000000 1.0
C      1  0.5444930000000  0.4793770000000  0.5782860000000 1.0
C      1  0.4484130000000  0.4206400000000  0.5242500000000 1.0
C      1  0.5537240000000  0.5426470000000  0.5420250000000 1.0
C      1  0.4454890000000  0.4408660000000  0.4514280000000 1.0
C      1  0.5432770000000  0.4412920000000  0.4768660000000 1.0
C      1  0.4976190000000  0.4719670000000  0.4867000000000 1.0
C      1  0.5358510000000  0.4932420000000  0.4608560000000 1.0
C      1  0.4978500000000  0.4966140000000  0.5181240000000 1.0
C      1  0.4952120000000  0.5404620000000  0.5745410000000 1.0
C      1  0.4815350000000  0.4127800000000  0.5281170000000 1.0
C      1  0.5373340000000  0.4620090000000  0.5300530000000 1.0
C      1  0.5374330000000  0.6297370000000  0.5497680000000 1.0
C      1  0.4558010000000  0.5658150000000  0.5252040000000 1.0
C      1  0.4022990000000  0.5390030000000  0.5669480000000 1.0
C      1  0.5600530000000  0.5020400000000  0.4386530000000 1.0
C      1  0.5470080000000  0.5485020000000  0.5114640000000 1.0
C      1  0.5592230000000  0.4614550000000  0.4550270000000 1.0
C      1  0.5629200000000  0.5124010000000  0.5177760000000 1.0
C      1  0.5060320000000  0.4722690000000  0.5336350000000 1.0
C      1  0.4602080000000  0.4375340000000  0.5506740000000 1.0
C      1  0.4906840000000  0.4188150000000  0.4861520000000 1.0
C      1  0.4375590000000  0.5596890000000  0.4985460000000 1.0
C      1  0.5088120000000  0.4793540000000  0.4558020000000 1.0
C      1  0.5803760000000  0.4705990000000  0.4970250000000 1.0
C      1  0.5368760000000  0.5248070000000  0.4614510000000 1.0
C      1  0.4852830000000  0.5002080000000  0.4614730000000 1.0
C      1  0.4869330000000  0.5418370000000  0.4863600000000 1.0
C      1  0.5632760000000  0.4316040000000  0.5285940000000 1.0
C      1  0.4174320000000  0.5121180000000  0.4622700000000 1.0
C      1  0.4595280000000  0.4679930000000  0.5339630000000 1.0
C      1  0.4809180000000  0.4864080000000  0.4033690000000 1.0
C      1  0.5770850000000  0.5696470000000  0.4816070000000 1.0
C      1  0.5491450000000  0.5567460000000  0.4420360000000 1.0
C      1  0.5770760000000  0.4932160000000  0.5426820000000 1.0
C      1  0.5171180000000  0.4307290000000  0.4592270000000 1.0
C      1  0.5332480000000  0.4308620000000  0.5406430000000 1.0
C      1  0.5370580000000  0.5148570000000  0.5398050000000 1.0
C      1  0.4875010000000  0.5293520000000  0.4589470000000 1.0
C      1  0.5231950000000  0.4166800000000  0.4896460000000 1.0
C      1  0.4443010000000  0.4968690000000  0.4874220000000 1.0
C      1  0.4609280000000  0.4944460000000  0.5976660000000 1.0
C      1  0.5895020000000  0.4931760000000  0.5135840000000 1.0
C      1  0.5647420000000  0.4460050000000  0.5705540000000 1.0
C      1  0.4260190000000  0.4625250000000  0.4473110000000 1.0
C      1  0.4196910000000  0.4794270000000  0.4715480000000 1.0
C      1  0.4715740000000  0.5369630000000  0.4117560000000 1.0
C      1  0.4289260000000  0.5317370000000  0.5650120000000 1.0
C      1  0.5465260000000  0.5285950000000  0.4270920000000 1.0
C      1  0.4816730000000  0.5903320000000  0.4826580000000 1.0
C      1  0.5236050000000  0.5112070000000  0.5107100000000 1.0
C      1  0.4690920000000  0.4062750000000  0.4756020000000 1.0
C      1  0.4966460000000  0.5874970000000  0.4554200000000 1.0
C      1  0.4577120000000  0.4600080000000  0.4843020000000 1.0
C      1  0.5167860000000  0.5397770000000  0.5004680000000 1.0
C      1  0.4344300000000  0.4310750000000  0.4981250000000 1.0
C      1  0.5180620000000  0.5706340000000  0.4405550000000 1.0
C      1  0.5239490000000  0.5264640000000  0.4083280000000 1.0
C      1  0.4382080000000  0.5384360000000  0.4574940000000 1.0
C      1  0.4913290000000  0.4453500000000  0.5269530000000 1.0
C      1  0.5472190000000  0.4637140000000  0.5005780000000 1.0
C      1  0.4542660000000  0.4991500000000  0.5277910000000 1.0
C      1  0.5759920000000  0.4810320000000  0.4686250000000 1.0
C      1  0.5358490000000  0.6081180000000  0.5350390000000 1.0
C      1  0.4820710000000  0.5461720000000  0.5186680000000 1.0
END
