TITL C-2778423-5760-856 -0.000606949701871994 125000 -758.095202384377 0 0 130 (C1) n - 1
REM
REM in /home/nfs/bkarasulu/CARBON/AIRSS/Generating-Clusters/REBO/Only-C1/SD-CG/HFTN-CG
REM
REM
REM
REM
REM
REM ./C.cell (11c1c37f851c82e70ff6c80c92926a4b)
REM
REM compiler GCC version 9.2.1 20190827 (Red Hat 9.2.1-1)
REM options -cpp -mtune=generic -march=x86-64 -g -O0 -fpre-include=/usr/include/finclude/math-vector-fortran.h
REM seed 1308020050 133405990 -1409773771 -726846347 -1495417478 -1058072356 -886584467 739503584 -1757383144 634508600 928343889 718320214 -2140866402 405253114 504274739 2088188811 1943424112 -937843550 8301344 -2071408400 -937961684 578543774 -1776907902 -270837716 2214588 177728108 -940389793 -1356143716 -211066371 -1475561518 -736320896 816819455 927575628
REM
CELL 1.54180   50.00000   50.00000   50.00000   90.00000   90.00000   90.00000
LATT -1
SFAC C  
C      1  0.4870200000000  0.5880870000000  0.5440600000000 1.0
C      1  0.6012250000000  0.4660850000000  0.4984710000000 1.0
C      1  0.4076860000000  0.5622650000000  0.4820350000000 1.0
C      1  0.5167050000000  0.5164980000000  0.4091670000000 1.0
C      1  0.4493370000000  0.4944680000000  0.4298450000000 1.0
C      1  0.5286550000000  0.4373580000000  0.5107350000000 1.0
C      1  0.4433130000000  0.4505400000000  0.4529530000000 1.0
C      1  0.5795330000000  0.5466170000000  0.5056660000000 1.0
C      1  0.5069480000000  0.4543490000000  0.5306700000000 1.0
C      1  0.5560230000000  0.4842730000000  0.4948610000000 1.0
C      1  0.3919450000000  0.5123370000000  0.5098660000000 1.0
C      1  0.5374980000000  0.4563430000000  0.6039850000000 1.0
C      1  0.5481100000000  0.4990530000000  0.4698090000000 1.0
C      1  0.5412140000000  0.4131210000000  0.4606890000000 1.0
C      1  0.5497700000000  0.4271840000000  0.4905610000000 1.0
C      1  0.4885140000000  0.4090040000000  0.4819250000000 1.0
C      1  0.4658460000000  0.4775420000000  0.4721450000000 1.0
C      1  0.4918770000000  0.3605050000000  0.5054370000000 1.0
C      1  0.4657360000000  0.4590910000000  0.5823610000000 1.0
C      1  0.5061520000000  0.5175130000000  0.5319680000000 1.0
C      1  0.5683730000000  0.4810600000000  0.5422420000000 1.0
C      1  0.4780520000000  0.4936310000000  0.4205130000000 1.0
C      1  0.5565450000000  0.5417180000000  0.5500010000000 1.0
C      1  0.4877870000000  0.5237580000000  0.4120080000000 1.0
C      1  0.4562610000000  0.4355850000000  0.5044740000000 1.0
C      1  0.5520040000000  0.4301860000000  0.4367390000000 1.0
C      1  0.5230260000000  0.4188590000000  0.5388490000000 1.0
C      1  0.4999730000000  0.3826880000000  0.4931740000000 1.0
C      1  0.5394980000000  0.5531180000000  0.4289850000000 1.0
C      1  0.5168440000000  0.5388630000000  0.5462740000000 1.0
C      1  0.4994640000000  0.5347720000000  0.4541500000000 1.0
C      1  0.5360560000000  0.4412550000000  0.4179910000000 1.0
C      1  0.4667080000000  0.5689480000000  0.5577420000000 1.0
C      1  0.5325790000000  0.5378180000000  0.4521280000000 1.0
C      1  0.5741310000000  0.4260440000000  0.5117160000000 1.0
C      1  0.5140520000000  0.4586160000000  0.4677090000000 1.0
C      1  0.4598230000000  0.4616610000000  0.5496560000000 1.0
C      1  0.5254010000000  0.3966430000000  0.4840880000000 1.0
C      1  0.4751710000000  0.5730350000000  0.4341480000000 1.0
C      1  0.4776170000000  0.4501690000000  0.5248700000000 1.0
C      1  0.5974680000000  0.5122910000000  0.4715350000000 1.0
C      1  0.5106390000000  0.4601010000000  0.6097850000000 1.0
C      1  0.4461750000000  0.4230550000000  0.4606870000000 1.0
C      1  0.5788360000000  0.5330480000000  0.5350300000000 1.0
C      1  0.5643160000000  0.5163310000000  0.5019480000000 1.0
C      1  0.4434990000000  0.5450400000000  0.4840970000000 1.0
C      1  0.4747790000000  0.4942350000000  0.4974980000000 1.0
C      1  0.5603780000000  0.5706340000000  0.5068970000000 1.0
C      1  0.4707300000000  0.5190720000000  0.5667720000000 1.0
C      1  0.4370460000000  0.5767310000000  0.4871780000000 1.0
C      1  0.4778040000000  0.5467680000000  0.5731490000000 1.0
C      1  0.4295960000000  0.4458280000000  0.5015660000000 1.0
C      1  0.5625740000000  0.4462520000000  0.4649170000000 1.0
C      1  0.4153560000000  0.4521670000000  0.5279720000000 1.0
C      1  0.5460670000000  0.4373040000000  0.5558050000000 1.0
C      1  0.4419830000000  0.5098040000000  0.5693120000000 1.0
C      1  0.5985530000000  0.5380980000000  0.4811950000000 1.0
C      1  0.4384980000000  0.4790170000000  0.5779780000000 1.0
C      1  0.4530940000000  0.5809090000000  0.4573080000000 1.0
C      1  0.4480180000000  0.5117270000000  0.4870920000000 1.0
C      1  0.5300470000000  0.5186980000000  0.4739620000000 1.0
C      1  0.5812010000000  0.5053580000000  0.5369540000000 1.0
C      1  0.5150180000000  0.4502770000000  0.5618660000000 1.0
C      1  0.4275570000000  0.4593250000000  0.5542450000000 1.0
C      1  0.5248320000000  0.6009190000000  0.4989710000000 1.0
C      1  0.5063630000000  0.4828130000000  0.5667380000000 1.0
C      1  0.4729770000000  0.5450540000000  0.4239980000000 1.0
C      1  0.4692150000000  0.5990110000000  0.4819300000000 1.0
C      1  0.5061370000000  0.4807420000000  0.4926210000000 1.0
C      1  0.5270190000000  0.4899100000000  0.4277290000000 1.0
C      1  0.4479140000000  0.5862130000000  0.5128170000000 1.0
C      1  0.4203910000000  0.5351540000000  0.5617760000000 1.0
C      1  0.4907270000000  0.4745290000000  0.4532530000000 1.0
C      1  0.4653200000000  0.4589250000000  0.4369670000000 1.0
C      1  0.5862990000000  0.4589470000000  0.5426610000000 1.0
C      1  0.4750260000000  0.6020710000000  0.5153750000000 1.0
C      1  0.4925530000000  0.4694120000000  0.5915110000000 1.0
C      1  0.5487080000000  0.4618000000000  0.5792710000000 1.0
C      1  0.4155410000000  0.5320130000000  0.4687250000000 1.0
C      1  0.4705670000000  0.4288660000000  0.5696650000000 1.0
C      1  0.5854880000000  0.4444080000000  0.4888470000000 1.0
C      1  0.4614920000000  0.4784640000000  0.5202840000000 1.0
C      1  0.5280330000000  0.5816600000000  0.4307780000000 1.0
C      1  0.5382200000000  0.5761040000000  0.4616440000000 1.0
C      1  0.4887950000000  0.4633730000000  0.4149960000000 1.0
C      1  0.5629200000000  0.4917620000000  0.4451230000000 1.0
C      1  0.4095810000000  0.4892490000000  0.4971920000000 1.0
C      1  0.5147580000000  0.5736130000000  0.5483500000000 1.0
C      1  0.5716710000000  0.4349500000000  0.5387670000000 1.0
C      1  0.5288460000000  0.3892170000000  0.5356470000000 1.0
C      1  0.4299430000000  0.5454030000000  0.5320900000000 1.0
C      1  0.4998160000000  0.5835120000000  0.5067160000000 1.0
C      1  0.5332740000000  0.4699590000000  0.5056250000000 1.0
C      1  0.4727440000000  0.5373550000000  0.4690740000000 1.0
C      1  0.5887990000000  0.5031530000000  0.4457270000000 1.0
C      1  0.4278520000000  0.5025090000000  0.5414930000000 1.0
C      1  0.5064580000000  0.5513840000000  0.5727760000000 1.0
C      1  0.5011480000000  0.5041070000000  0.4438000000000 1.0
C      1  0.4826780000000  0.5283290000000  0.4980510000000 1.0
C      1  0.4067340000000  0.5428230000000  0.5071840000000 1.0
C      1  0.4849840000000  0.5538700000000  0.5150690000000 1.0
C      1  0.4297410000000  0.4806740000000  0.5205100000000 1.0
C      1  0.4488930000000  0.5393630000000  0.4450970000000 1.0
C      1  0.5191360000000  0.5574190000000  0.5115070000000 1.0
C      1  0.5877660000000  0.4924810000000  0.4936840000000 1.0
C      1  0.3998640000000  0.5200780000000  0.5391980000000 1.0
C      1  0.6090840000000  0.4624470000000  0.5256760000000 1.0
C      1  0.4909620000000  0.5874990000000  0.4679210000000 1.0
C      1  0.4255030000000  0.5611050000000  0.4525810000000 1.0
C      1  0.5466420000000  0.5208930000000  0.5656490000000 1.0
C      1  0.5434720000000  0.5656520000000  0.5345140000000 1.0
C      1  0.5463140000000  0.5858090000000  0.4875610000000 1.0
C      1  0.5354020000000  0.4737120000000  0.5371490000000 1.0
C      1  0.5136480000000  0.4281780000000  0.4735690000000 1.0
C      1  0.5353450000000  0.5375860000000  0.4055820000000 1.0
C      1  0.4626230000000  0.4185080000000  0.4833780000000 1.0
C      1  0.4551970000000  0.5613800000000  0.5299410000000 1.0
C      1  0.5170900000000  0.4618650000000  0.4162650000000 1.0
C      1  0.4310230000000  0.5195400000000  0.5120240000000 1.0
C      1  0.5411350000000  0.5357360000000  0.5082090000000 1.0
C      1  0.5402870000000  0.4663680000000  0.4488190000000 1.0
C      1  0.5383330000000  0.4904260000000  0.5666280000000 1.0
C      1  0.4946220000000  0.4253880000000  0.5564240000000 1.0
C      1  0.5079150000000  0.5669510000000  0.4619100000000 1.0
C      1  0.4900350000000  0.5030420000000  0.5514600000000 1.0
C      1  0.5103800000000  0.5122910000000  0.4985600000000 1.0
C      1  0.4244290000000  0.4668530000000  0.4752960000000 1.0
C      1  0.4997110000000  0.5861830000000  0.4278360000000 1.0
C      1  0.4160530000000  0.4991130000000  0.4671950000000 1.0
C      1  0.4438670000000  0.5091470000000  0.4532050000000 1.0
END
