TITL C-2778433-5640-422 0.000835996618693039 125000 -334.977242972903 0 0 59 (C1) n - 1
REM
REM in /home/nfs/bkarasulu/CARBON/AIRSS/Generating-Clusters/REBO/Only-C1/SD-CG/HFTN-CG
REM
REM
REM
REM
REM
REM ./C.cell (11c1c37f851c82e70ff6c80c92926a4b)
REM
REM compiler GCC version 9.2.1 20190827 (Red Hat 9.2.1-1)
REM options -cpp -mtune=generic -march=x86-64 -g -O0 -fpre-include=/usr/include/finclude/math-vector-fortran.h
REM seed 2053936945 -1273438831 603760214 2134045126 -1409665276 -8467542 62248263 -1712671824 1222896361 742675881 -1452620179 680713118 -634602026 1099355070 -607143728 875606360 1228449001 221442813 -1811805965 -2066033530 1414490742 -155512822 -29414250 -2081615914 342462419 2036851040 -789520830 -711256388 -1191335150 -1829269400 2113914910 -673167063 -1673937338
REM
CELL 1.54180   50.00000   50.00000   50.00000   90.00000   90.00000   90.00000
LATT -1
SFAC C  
C      1  0.5558060000000  0.4519230000000  0.5166340000000 1.0
C      1  0.4373530000000  0.4707860000000  0.5138600000000 1.0
C      1  0.5174670000000  0.4889620000000  0.5017800000000 1.0
C      1  0.5218930000000  0.5512840000000  0.5451940000000 1.0
C      1  0.5305810000000  0.5340350000000  0.4477560000000 1.0
C      1  0.5567420000000  0.4341990000000  0.4944530000000 1.0
C      1  0.4511430000000  0.5546120000000  0.4754800000000 1.0
C      1  0.5029940000000  0.4894400000000  0.5670230000000 1.0
C      1  0.5467810000000  0.5098070000000  0.4443430000000 1.0
C      1  0.4960790000000  0.5770190000000  0.4979890000000 1.0
C      1  0.4786600000000  0.5091490000000  0.5571460000000 1.0
C      1  0.5460570000000  0.5333610000000  0.5452340000000 1.0
C      1  0.5219050000000  0.5049870000000  0.4750050000000 1.0
C      1  0.5282390000000  0.4536890000000  0.5295020000000 1.0
C      1  0.4564910000000  0.4509870000000  0.5207050000000 1.0
C      1  0.4995410000000  0.4595200000000  0.5516950000000 1.0
C      1  0.4737460000000  0.4843810000000  0.5340340000000 1.0
C      1  0.5186170000000  0.5672240000000  0.5217920000000 1.0
C      1  0.5546300000000  0.5176370000000  0.5191810000000 1.0
C      1  0.5416310000000  0.4416180000000  0.4729380000000 1.0
C      1  0.4866500000000  0.4788350000000  0.5051580000000 1.0
C      1  0.5372980000000  0.5018250000000  0.5515720000000 1.0
C      1  0.4993680000000  0.5697810000000  0.4647350000000 1.0
C      1  0.4719030000000  0.4856000000000  0.4791380000000 1.0
C      1  0.4920060000000  0.4535170000000  0.4373360000000 1.0
C      1  0.5063340000000  0.4512050000000  0.5062760000000 1.0
C      1  0.4717580000000  0.5141260000000  0.5182920000000 1.0
C      1  0.4448190000000  0.4942180000000  0.4330450000000 1.0
C      1  0.5102410000000  0.5221400000000  0.5588100000000 1.0
C      1  0.4394040000000  0.4804460000000  0.4858620000000 1.0
C      1  0.4828950000000  0.5451910000000  0.5406090000000 1.0
C      1  0.4756830000000  0.4404100000000  0.5040590000000 1.0
C      1  0.5361420000000  0.5595520000000  0.4996880000000 1.0
C      1  0.4386320000000  0.5092510000000  0.4695920000000 1.0
C      1  0.4811540000000  0.5250540000000  0.4475770000000 1.0
C      1  0.5999600000000  0.4718820000000  0.5241660000000 1.0
C      1  0.4481970000000  0.5138280000000  0.5425530000000 1.0
C      1  0.4994970000000  0.5442480000000  0.4953310000000 1.0
C      1  0.4682440000000  0.5576520000000  0.5004750000000 1.0
C      1  0.4543330000000  0.5432250000000  0.5263770000000 1.0
C      1  0.5559560000000  0.5010180000000  0.4736320000000 1.0
C      1  0.5331210000000  0.4872060000000  0.4324110000000 1.0
C      1  0.5202040000000  0.4641100000000  0.4779570000000 1.0
C      1  0.4674470000000  0.4503890000000  0.4418840000000 1.0
C      1  0.4529410000000  0.5310360000000  0.4620820000000 1.0
C      1  0.5228600000000  0.5101720000000  0.5224500000000 1.0
C      1  0.4683520000000  0.4551760000000  0.5494970000000 1.0
C      1  0.5105100000000  0.4747530000000  0.4503220000000 1.0
C      1  0.5250830000000  0.5372050000000  0.4796000000000 1.0
C      1  0.4511810000000  0.4731310000000  0.4549940000000 1.0
C      1  0.5746540000000  0.4741320000000  0.5142240000000 1.0
C      1  0.4547740000000  0.4450210000000  0.5711240000000 1.0
C      1  0.4307110000000  0.4893640000000  0.5333090000000 1.0
C      1  0.5024380000000  0.5472450000000  0.4483580000000 1.0
C      1  0.5304800000000  0.4719350000000  0.5567940000000 1.0
C      1  0.4930430000000  0.4999280000000  0.4608370000000 1.0
C      1  0.4590070000000  0.5140160000000  0.4264940000000 1.0
C      1  0.5663070000000  0.4991150000000  0.5008240000000 1.0
C      1  0.5000580000000  0.5284410000000  0.5208140000000 1.0
END
