TITL C-2778425-5191-1405 -0.00101539753446702 125000 -930.455611849279 0 0 162 (C1) n - 1
REM
REM in /home/nfs/bkarasulu/CARBON/AIRSS/Generating-Clusters/REBO/Only-C1/SD-CG/HFTN-CG
REM
REM
REM
REM
REM
REM ./C.cell (11c1c37f851c82e70ff6c80c92926a4b)
REM
REM compiler GCC version 9.2.1 20190827 (Red Hat 9.2.1-1)
REM options -cpp -mtune=generic -march=x86-64 -g -O0 -fpre-include=/usr/include/finclude/math-vector-fortran.h
REM seed 2012788747 567109370 -1454479360 1134196676 -1380219735 -178414038 -220120391 1123691638 503693782 1256984035 -1113806163 -755043012 -179749741 -36101721 593476106 -839992983 263315354 267973211 -755268706 -592127014 630582637 -127228234 1384210499 1273138767 1166910068 -1286555960 -339084766 2032570760 -2134460909 -1679295202 -168561133 390201509 1201162157
REM
CELL 1.54180   50.00000   50.00000   50.00000   90.00000   90.00000   90.00000
LATT -1
SFAC C  
C      1  0.5302520000000  0.4599550000000  0.4984920000000 1.0
C      1  0.5529770000000  0.3648370000000  0.6255600000000 1.0
C      1  0.5114890000000  0.4261420000000  0.4745180000000 1.0
C      1  0.5490150000000  0.5109520000000  0.5977800000000 1.0
C      1  0.5814210000000  0.5155380000000  0.4283820000000 1.0
C      1  0.4373080000000  0.5648250000000  0.4861240000000 1.0
C      1  0.4936340000000  0.5022150000000  0.4483320000000 1.0
C      1  0.4201670000000  0.5629220000000  0.5221600000000 1.0
C      1  0.4612300000000  0.4936680000000  0.4059190000000 1.0
C      1  0.4703880000000  0.4968760000000  0.5042280000000 1.0
C      1  0.4459350000000  0.5472720000000  0.4278450000000 1.0
C      1  0.4498070000000  0.4477030000000  0.4155400000000 1.0
C      1  0.5073010000000  0.4055180000000  0.5731070000000 1.0
C      1  0.5673130000000  0.5244000000000  0.4865390000000 1.0
C      1  0.4845980000000  0.5604260000000  0.5592180000000 1.0
C      1  0.5811410000000  0.4315350000000  0.5475340000000 1.0
C      1  0.4216920000000  0.4885590000000  0.4384280000000 1.0
C      1  0.4682090000000  0.5772750000000  0.5246290000000 1.0
C      1  0.4928710000000  0.5528920000000  0.4632700000000 1.0
C      1  0.5510440000000  0.5498820000000  0.5265700000000 1.0
C      1  0.4559820000000  0.4833530000000  0.5389810000000 1.0
C      1  0.4967040000000  0.4383830000000  0.4168310000000 1.0
C      1  0.5989320000000  0.5134980000000  0.4877210000000 1.0
C      1  0.4929450000000  0.4983220000000  0.5370020000000 1.0
C      1  0.4927340000000  0.4292320000000  0.4987280000000 1.0
C      1  0.5210320000000  0.5614270000000  0.5306620000000 1.0
C      1  0.4443930000000  0.4443430000000  0.5180330000000 1.0
C      1  0.4441220000000  0.5069210000000  0.5567850000000 1.0
C      1  0.4646940000000  0.4597040000000  0.5618280000000 1.0
C      1  0.5574250000000  0.5417000000000  0.4596110000000 1.0
C      1  0.5293820000000  0.4045160000000  0.4466450000000 1.0
C      1  0.4756080000000  0.5639570000000  0.4971220000000 1.0
C      1  0.5730060000000  0.4464960000000  0.4667220000000 1.0
C      1  0.4345450000000  0.4177830000000  0.4984880000000 1.0
C      1  0.4886180000000  0.4757310000000  0.4285310000000 1.0
C      1  0.5199910000000  0.5656520000000  0.4249940000000 1.0
C      1  0.5343790000000  0.5199830000000  0.4625570000000 1.0
C      1  0.3979740000000  0.5506510000000  0.5055550000000 1.0
C      1  0.6247680000000  0.4466860000000  0.4823160000000 1.0
C      1  0.4245090000000  0.4802060000000  0.5629920000000 1.0
C      1  0.5215510000000  0.5125980000000  0.5096400000000 1.0
C      1  0.4302020000000  0.4292060000000  0.4604040000000 1.0
C      1  0.4121410000000  0.4365680000000  0.4960210000000 1.0
C      1  0.4579090000000  0.4158210000000  0.5307450000000 1.0
C      1  0.4256680000000  0.5295470000000  0.5486630000000 1.0
C      1  0.4436420000000  0.4481460000000  0.4744620000000 1.0
C      1  0.5180690000000  0.4950750000000  0.5588390000000 1.0
C      1  0.5556070000000  0.5801220000000  0.5421840000000 1.0
C      1  0.4279010000000  0.5255880000000  0.4682460000000 1.0
C      1  0.5352900000000  0.5857430000000  0.4479160000000 1.0
C      1  0.4097560000000  0.5020530000000  0.4600030000000 1.0
C      1  0.4947920000000  0.6150900000000  0.4804720000000 1.0
C      1  0.5143680000000  0.5668070000000  0.5846020000000 1.0
C      1  0.5047130000000  0.3995510000000  0.5428010000000 1.0
C      1  0.5301530000000  0.4885700000000  0.6007480000000 1.0
C      1  0.4834020000000  0.5140020000000  0.4180360000000 1.0
C      1  0.4005930000000  0.5538380000000  0.4750860000000 1.0
C      1  0.4766140000000  0.4534350000000  0.5913700000000 1.0
C      1  0.4898140000000  0.4303390000000  0.5796640000000 1.0
C      1  0.6217250000000  0.5028160000000  0.5338530000000 1.0
C      1  0.4228250000000  0.5514860000000  0.4491250000000 1.0
C      1  0.4576750000000  0.5167280000000  0.4581290000000 1.0
C      1  0.4952860000000  0.5298510000000  0.5619750000000 1.0
C      1  0.4997530000000  0.4663950000000  0.4029280000000 1.0
C      1  0.5375820000000  0.4736620000000  0.5508210000000 1.0
C      1  0.4663950000000  0.4651160000000  0.4474270000000 1.0
C      1  0.5777110000000  0.4898400000000  0.4471620000000 1.0
C      1  0.4697480000000  0.4116850000000  0.4519540000000 1.0
C      1  0.5800670000000  0.4575010000000  0.5355380000000 1.0
C      1  0.4096720000000  0.4943360000000  0.5180140000000 1.0
C      1  0.4621480000000  0.5455620000000  0.4728000000000 1.0
C      1  0.5110470000000  0.4885550000000  0.3881400000000 1.0
C      1  0.5569010000000  0.5680860000000  0.4914750000000 1.0
C      1  0.4696090000000  0.6133940000000  0.4653010000000 1.0
C      1  0.6002830000000  0.4883050000000  0.4685760000000 1.0
C      1  0.5295160000000  0.5384390000000  0.4091710000000 1.0
C      1  0.5614170000000  0.5807110000000  0.4673580000000 1.0
C      1  0.5079710000000  0.5142190000000  0.3988390000000 1.0
C      1  0.5400770000000  0.4089990000000  0.4777390000000 1.0
C      1  0.4331970000000  0.5341640000000  0.4978150000000 1.0
C      1  0.4087610000000  0.5836490000000  0.4857650000000 1.0
C      1  0.5634620000000  0.5392110000000  0.4118310000000 1.0
C      1  0.5083430000000  0.4542920000000  0.4592300000000 1.0
C      1  0.5348400000000  0.5996270000000  0.5554450000000 1.0
C      1  0.5548610000000  0.5355350000000  0.5754550000000 1.0
C      1  0.5320590000000  0.4834530000000  0.4217070000000 1.0
C      1  0.4568210000000  0.4062820000000  0.4791570000000 1.0
C      1  0.4574360000000  0.4681790000000  0.3961000000000 1.0
C      1  0.5032020000000  0.5476680000000  0.5995420000000 1.0
C      1  0.5798170000000  0.4591750000000  0.5038490000000 1.0
C      1  0.4529550000000  0.5890680000000  0.4759190000000 1.0
C      1  0.4338690000000  0.4611650000000  0.4371530000000 1.0
C      1  0.5678190000000  0.4601000000000  0.4427540000000 1.0
C      1  0.5361200000000  0.5602220000000  0.5619590000000 1.0
C      1  0.4901330000000  0.5452050000000  0.5151710000000 1.0
C      1  0.4979550000000  0.3990260000000  0.5138250000000 1.0
C      1  0.5189120000000  0.5285610000000  0.5370800000000 1.0
C      1  0.5024690000000  0.4942670000000  0.5954980000000 1.0
C      1  0.5757490000000  0.5683310000000  0.5173580000000 1.0
C      1  0.5575440000000  0.4034740000000  0.5021890000000 1.0
C      1  0.4698890000000  0.4750240000000  0.6084060000000 1.0
C      1  0.5281020000000  0.5149580000000  0.4329540000000 1.0
C      1  0.5722960000000  0.4068680000000  0.5317910000000 1.0
C      1  0.4409190000000  0.6047060000000  0.4502250000000 1.0
C      1  0.5213200000000  0.4338050000000  0.4353760000000 1.0
C      1  0.4012210000000  0.4850960000000  0.4795060000000 1.0
C      1  0.6005990000000  0.4600140000000  0.4806210000000 1.0
C      1  0.4884070000000  0.4824410000000  0.5667510000000 1.0
C      1  0.4928230000000  0.5813020000000  0.4777110000000 1.0
C      1  0.5257520000000  0.5587650000000  0.4970940000000 1.0
C      1  0.5496800000000  0.4903940000000  0.4649830000000 1.0
C      1  0.5873680000000  0.5268530000000  0.4585950000000 1.0
C      1  0.5085970000000  0.6030770000000  0.5070310000000 1.0
C      1  0.4927650000000  0.5575870000000  0.4341390000000 1.0
C      1  0.5557890000000  0.4768330000000  0.4933440000000 1.0
C      1  0.4701580000000  0.4298640000000  0.4262850000000 1.0
C      1  0.4683320000000  0.3988000000000  0.5069840000000 1.0
C      1  0.3994310000000  0.4730030000000  0.5327520000000 1.0
C      1  0.4936460000000  0.5929570000000  0.5299790000000 1.0
C      1  0.5434660000000  0.4559510000000  0.4294080000000 1.0
C      1  0.5995550000000  0.5485590000000  0.5209250000000 1.0
C      1  0.5535320000000  0.5066420000000  0.4118780000000 1.0
C      1  0.4720940000000  0.5419950000000  0.4220350000000 1.0
C      1  0.4778300000000  0.4475970000000  0.4738940000000 1.0
C      1  0.5405900000000  0.6240370000000  0.5634700000000 1.0
C      1  0.5524810000000  0.5061430000000  0.5049200000000 1.0
C      1  0.5517490000000  0.5587450000000  0.4353700000000 1.0
C      1  0.5243140000000  0.5882470000000  0.4800400000000 1.0
C      1  0.4834500000000  0.5107800000000  0.4784700000000 1.0
C      1  0.4741580000000  0.5217910000000  0.5261980000000 1.0
C      1  0.4512390000000  0.5470710000000  0.5236480000000 1.0
C      1  0.4967040000000  0.5215840000000  0.6032790000000 1.0
C      1  0.4120170000000  0.5240090000000  0.5214590000000 1.0
C      1  0.4978660000000  0.4052570000000  0.4538310000000 1.0
C      1  0.4675960000000  0.5151640000000  0.5755480000000 1.0
C      1  0.4331920000000  0.5536260000000  0.5587310000000 1.0
C      1  0.4845300000000  0.4256600000000  0.5474660000000 1.0
C      1  0.5695370000000  0.5053890000000  0.5319200000000 1.0
C      1  0.4389550000000  0.4863650000000  0.5097610000000 1.0
C      1  0.5485770000000  0.4395980000000  0.4809120000000 1.0
C      1  0.5230250000000  0.3915140000000  0.5911640000000 1.0
C      1  0.5220280000000  0.4577840000000  0.5298600000000 1.0
C      1  0.5519790000000  0.5260690000000  0.5451820000000 1.0
C      1  0.4378580000000  0.5841860000000  0.5298850000000 1.0
C      1  0.4579520000000  0.5644870000000  0.5611090000000 1.0
C      1  0.4714810000000  0.4647100000000  0.5160280000000 1.0
C      1  0.5085640000000  0.4829080000000  0.5116460000000 1.0
C      1  0.5064560000000  0.5865110000000  0.5579630000000 1.0
C      1  0.4190930000000  0.5833050000000  0.4557230000000 1.0
C      1  0.4538670000000  0.4954940000000  0.4374940000000 1.0
C      1  0.4936960000000  0.4456400000000  0.5255230000000 1.0
C      1  0.4465910000000  0.4344900000000  0.5557800000000 1.0
C      1  0.4230060000000  0.4534970000000  0.5429810000000 1.0
C      1  0.5381210000000  0.3780680000000  0.6085000000000 1.0
C      1  0.4632490000000  0.5004340000000  0.5992410000000 1.0
C      1  0.5251350000000  0.5200950000000  0.5752780000000 1.0
C      1  0.5979660000000  0.5162600000000  0.5200670000000 1.0
C      1  0.5192020000000  0.4817410000000  0.4531060000000 1.0
C      1  0.4231750000000  0.4670710000000  0.4916910000000 1.0
C      1  0.5754720000000  0.4287820000000  0.5081590000000 1.0
C      1  0.5109450000000  0.5311890000000  0.4829610000000 1.0
C      1  0.5651580000000  0.4788260000000  0.5456560000000 1.0
END
