TITL C-2778434-4341-814 0.000217607827539261 125000 -776.881453926514 0 0 133 (C1) n - 1
REM
REM in /home/nfs/bkarasulu/CARBON/AIRSS/Generating-Clusters/REBO/Only-C1/SD-CG/HFTN-CG
REM
REM
REM
REM
REM
REM ./C.cell (11c1c37f851c82e70ff6c80c92926a4b)
REM
REM compiler GCC version 9.2.1 20190827 (Red Hat 9.2.1-1)
REM options -cpp -mtune=generic -march=x86-64 -g -O0 -fpre-include=/usr/include/finclude/math-vector-fortran.h
REM seed 1128908079 -1255203917 -548251091 1777067963 1321541948 1618885781 741512858 -519432235 1960374347 1383994387 -1807257475 1856875440 -1067464597 -1246324763 1176177614 -1910480353 -2000429727 -916945061 -1863673010 -1338636886 1524397119 -1792634400 -2072680444 1969202761 -1044897779 -275064788 357893506 -260880816 1525374587 -118237604 1143800566 -1618654356 1103591405
REM
CELL 1.54180   50.00000   50.00000   50.00000   90.00000   90.00000   90.00000
LATT -1
SFAC C  
C      1  0.5612400000000  0.5189930000000  0.4193620000000 1.0
C      1  0.4660280000000  0.4710040000000  0.3982190000000 1.0
C      1  0.4465560000000  0.4930610000000  0.5541310000000 1.0
C      1  0.4968960000000  0.4833610000000  0.5407800000000 1.0
C      1  0.4289000000000  0.5151870000000  0.5057280000000 1.0
C      1  0.5565180000000  0.5078810000000  0.4574360000000 1.0
C      1  0.4540250000000  0.4193120000000  0.5498160000000 1.0
C      1  0.5452600000000  0.5348210000000  0.4399720000000 1.0
C      1  0.4975870000000  0.4298470000000  0.5728260000000 1.0
C      1  0.5291550000000  0.4802880000000  0.4146680000000 1.0
C      1  0.5376350000000  0.5175860000000  0.5719330000000 1.0
C      1  0.5105790000000  0.4600160000000  0.5198210000000 1.0
C      1  0.4304840000000  0.4994670000000  0.4393350000000 1.0
C      1  0.4638830000000  0.4517470000000  0.4885900000000 1.0
C      1  0.5185470000000  0.5639920000000  0.5570180000000 1.0
C      1  0.4910300000000  0.5197620000000  0.5560190000000 1.0
C      1  0.4703860000000  0.5032310000000  0.5375070000000 1.0
C      1  0.4667890000000  0.5498460000000  0.4257960000000 1.0
C      1  0.4447720000000  0.5701290000000  0.4903220000000 1.0
C      1  0.5894970000000  0.5454430000000  0.5297530000000 1.0
C      1  0.4539830000000  0.5283440000000  0.5713130000000 1.0
C      1  0.4081290000000  0.4738670000000  0.4872220000000 1.0
C      1  0.4487290000000  0.5258720000000  0.4276960000000 1.0
C      1  0.3973950000000  0.4795190000000  0.5149620000000 1.0
C      1  0.5071160000000  0.5412790000000  0.5373740000000 1.0
C      1  0.5823920000000  0.5637370000000  0.5094540000000 1.0
C      1  0.4969600000000  0.5686190000000  0.4739610000000 1.0
C      1  0.5491770000000  0.5613520000000  0.5315200000000 1.0
C      1  0.5459620000000  0.4387150000000  0.4334130000000 1.0
C      1  0.5435940000000  0.5169450000000  0.4845970000000 1.0
C      1  0.5171520000000  0.5613400000000  0.4499560000000 1.0
C      1  0.5798520000000  0.5508730000000  0.5548840000000 1.0
C      1  0.5099520000000  0.5805130000000  0.5311680000000 1.0
C      1  0.4844870000000  0.5279010000000  0.5180140000000 1.0
C      1  0.5772460000000  0.4763250000000  0.4393420000000 1.0
C      1  0.4984440000000  0.5051960000000  0.5018200000000 1.0
C      1  0.4292340000000  0.4985610000000  0.4792920000000 1.0
C      1  0.4302450000000  0.4482700000000  0.4834400000000 1.0
C      1  0.4985880000000  0.5524540000000  0.4232000000000 1.0
C      1  0.4787960000000  0.5509890000000  0.5637370000000 1.0
C      1  0.5366910000000  0.4185710000000  0.4514620000000 1.0
C      1  0.4446830000000  0.4300240000000  0.4610560000000 1.0
C      1  0.4641080000000  0.4718500000000  0.5136460000000 1.0
C      1  0.5753140000000  0.5216900000000  0.4897720000000 1.0
C      1  0.4761500000000  0.4243110000000  0.5007520000000 1.0
C      1  0.5724000000000  0.4995940000000  0.5397660000000 1.0
C      1  0.4782250000000  0.5906400000000  0.4583870000000 1.0
C      1  0.5173750000000  0.6030170000000  0.4828310000000 1.0
C      1  0.4905600000000  0.4373180000000  0.5259090000000 1.0
C      1  0.4773850000000  0.4891930000000  0.4905450000000 1.0
C      1  0.5296830000000  0.5054460000000  0.5096390000000 1.0
C      1  0.4936300000000  0.4405090000000  0.4301940000000 1.0
C      1  0.5324000000000  0.5348490000000  0.5211590000000 1.0
C      1  0.4561780000000  0.4893630000000  0.4693180000000 1.0
C      1  0.5857890000000  0.4370890000000  0.4954040000000 1.0
C      1  0.4970270000000  0.4826450000000  0.5860150000000 1.0
C      1  0.4574050000000  0.5733950000000  0.4384570000000 1.0
C      1  0.5143060000000  0.5260590000000  0.4317820000000 1.0
C      1  0.4548200000000  0.4534480000000  0.5855390000000 1.0
C      1  0.5210570000000  0.5367920000000  0.4716010000000 1.0
C      1  0.4882400000000  0.4611490000000  0.5651090000000 1.0
C      1  0.5386040000000  0.4815800000000  0.4534440000000 1.0
C      1  0.4513660000000  0.5962880000000  0.4873830000000 1.0
C      1  0.4282050000000  0.4544270000000  0.5153210000000 1.0
C      1  0.5485770000000  0.5628660000000  0.4591480000000 1.0
C      1  0.4366490000000  0.4858880000000  0.5162510000000 1.0
C      1  0.4743350000000  0.5077620000000  0.5897750000000 1.0
C      1  0.5456190000000  0.5881600000000  0.4819890000000 1.0
C      1  0.3931490000000  0.5322240000000  0.4810160000000 1.0
C      1  0.4659080000000  0.4293650000000  0.5743440000000 1.0
C      1  0.5247430000000  0.5440270000000  0.5830380000000 1.0
C      1  0.5089740000000  0.4855680000000  0.4613430000000 1.0
C      1  0.4640550000000  0.4562730000000  0.4244660000000 1.0
C      1  0.5074340000000  0.4152010000000  0.4482160000000 1.0
C      1  0.4484390000000  0.5493490000000  0.4690720000000 1.0
C      1  0.5791900000000  0.4506410000000  0.5323440000000 1.0
C      1  0.5135160000000  0.4234960000000  0.5944790000000 1.0
C      1  0.4039070000000  0.4894730000000  0.4579000000000 1.0
C      1  0.3930490000000  0.5328760000000  0.5057310000000 1.0
C      1  0.5478070000000  0.4853040000000  0.5233460000000 1.0
C      1  0.5485220000000  0.4594800000000  0.4709730000000 1.0
C      1  0.4149750000000  0.4900170000000  0.5404640000000 1.0
C      1  0.5642130000000  0.5512020000000  0.4856680000000 1.0
C      1  0.4842120000000  0.4618780000000  0.4628550000000 1.0
C      1  0.4928920000000  0.4143150000000  0.4773780000000 1.0
C      1  0.5131830000000  0.5763530000000  0.5020170000000 1.0
C      1  0.5294430000000  0.4512460000000  0.4971220000000 1.0
C      1  0.4863400000000  0.4860570000000  0.4387980000000 1.0
C      1  0.4800860000000  0.5410870000000  0.4735120000000 1.0
C      1  0.4422870000000  0.5495670000000  0.5486320000000 1.0
C      1  0.5110220000000  0.5019290000000  0.4118370000000 1.0
C      1  0.5233320000000  0.4537010000000  0.4222350000000 1.0
C      1  0.4401080000000  0.5432680000000  0.5192350000000 1.0
C      1  0.5674290000000  0.4255440000000  0.5167250000000 1.0
C      1  0.5322650000000  0.4669000000000  0.5431030000000 1.0
C      1  0.4326260000000  0.5373740000000  0.4504070000000 1.0
C      1  0.4736470000000  0.5911660000000  0.5198280000000 1.0
C      1  0.4986140000000  0.5169920000000  0.4605740000000 1.0
C      1  0.5564960000000  0.4894620000000  0.4222000000000 1.0
C      1  0.5596070000000  0.4666480000000  0.5015500000000 1.0
C      1  0.4810120000000  0.5736250000000  0.5432020000000 1.0
C      1  0.5933440000000  0.4666930000000  0.5057820000000 1.0
C      1  0.5635200000000  0.5157100000000  0.5646240000000 1.0
C      1  0.5261270000000  0.4062380000000  0.5335260000000 1.0
C      1  0.4840450000000  0.6030190000000  0.4895890000000 1.0
C      1  0.5954600000000  0.4950110000000  0.4936360000000 1.0
C      1  0.4497150000000  0.4723020000000  0.4437280000000 1.0
C      1  0.5755290000000  0.4388570000000  0.4696700000000 1.0
C      1  0.5566090000000  0.5824740000000  0.5090920000000 1.0
C      1  0.4666160000000  0.5472370000000  0.5041900000000 1.0
C      1  0.5884780000000  0.5159230000000  0.5197760000000 1.0
C      1  0.5325370000000  0.5533060000000  0.4961360000000 1.0
C      1  0.4687040000000  0.4552420000000  0.5404420000000 1.0
C      1  0.4390600000000  0.4420790000000  0.5378280000000 1.0
C      1  0.5503830000000  0.5587830000000  0.5654300000000 1.0
C      1  0.4663860000000  0.4055820000000  0.5273150000000 1.0
C      1  0.5707910000000  0.4693650000000  0.5519250000000 1.0
C      1  0.4566840000000  0.4800960000000  0.5807520000000 1.0
C      1  0.5419710000000  0.4141450000000  0.5114300000000 1.0
C      1  0.5855940000000  0.4945240000000  0.4623220000000 1.0
C      1  0.4940200000000  0.5856730000000  0.4288930000000 1.0
C      1  0.4071290000000  0.5220420000000  0.4559700000000 1.0
C      1  0.4123140000000  0.5290190000000  0.5320350000000 1.0
C      1  0.4726450000000  0.4314130000000  0.4555810000000 1.0
C      1  0.5725480000000  0.4482660000000  0.4412520000000 1.0
C      1  0.4237390000000  0.5164810000000  0.5601030000000 1.0
C      1  0.5245910000000  0.4795140000000  0.5901760000000 1.0
C      1  0.4828480000000  0.4921910000000  0.4101120000000 1.0
C      1  0.5051760000000  0.4187570000000  0.5449790000000 1.0
C      1  0.5257460000000  0.4208160000000  0.4832690000000 1.0
C      1  0.5435880000000  0.4693110000000  0.5708320000000 1.0
C      1  0.4933400000000  0.5360730000000  0.5907040000000 1.0
C      1  0.5183030000000  0.5026810000000  0.5582390000000 1.0
END
