TITL C-2778423-5760-958 0.000145314198049022 125000 -167.747529160787 0 0 31 (C1) n - 1
REM
REM in /home/nfs/bkarasulu/CARBON/AIRSS/Generating-Clusters/REBO/Only-C1/SD-CG/HFTN-CG
REM
REM
REM
REM
REM
REM ./C.cell (11c1c37f851c82e70ff6c80c92926a4b)
REM
REM compiler GCC version 9.2.1 20190827 (Red Hat 9.2.1-1)
REM options -cpp -mtune=generic -march=x86-64 -g -O0 -fpre-include=/usr/include/finclude/math-vector-fortran.h
REM seed 1895166401 904596419 -1690294340 1039782628 -1914028761 -1414364061 1899883520 2008460332 -1223451936 154133317 1266100704 853387990 1273511749 1525405614 1136974351 1495208655 -20675556 -1160211336 -273615450 807449293 -1482853977 -1772591843 1594787494 -304770008 535555636 445951905 -1474974291 688801227 2123790524 2012301617 -59424724 -368234998 323198518
REM
CELL 1.54180   50.00000   50.00000   50.00000   90.00000   90.00000   90.00000
LATT -1
SFAC C  
C      1  0.4390570000000  0.5181870000000  0.4744430000000 1.0
C      1  0.5515150000000  0.4857970000000  0.4392550000000 1.0
C      1  0.5188500000000  0.5753690000000  0.4444610000000 1.0
C      1  0.5240300000000  0.4685160000000  0.5422220000000 1.0
C      1  0.5402190000000  0.5096840000000  0.4307670000000 1.0
C      1  0.4874840000000  0.4439790000000  0.5209550000000 1.0
C      1  0.5067440000000  0.5502080000000  0.4414940000000 1.0
C      1  0.4915800000000  0.5471210000000  0.4180630000000 1.0
C      1  0.5248100000000  0.5159640000000  0.4752310000000 1.0
C      1  0.5179060000000  0.5056200000000  0.5557600000000 1.0
C      1  0.5253320000000  0.4821410000000  0.5110630000000 1.0
C      1  0.5341200000000  0.4908830000000  0.4846400000000 1.0
C      1  0.4796450000000  0.5121770000000  0.5653940000000 1.0
C      1  0.4832630000000  0.5266240000000  0.5430990000000 1.0
C      1  0.4820040000000  0.4455060000000  0.5492130000000 1.0
C      1  0.4626950000000  0.4814040000000  0.4949060000000 1.0
C      1  0.4618130000000  0.5083520000000  0.4874760000000 1.0
C      1  0.5251640000000  0.5257440000000  0.4486440000000 1.0
C      1  0.4998140000000  0.5301540000000  0.5156010000000 1.0
C      1  0.4823430000000  0.4862450000000  0.5755900000000 1.0
C      1  0.5324200000000  0.4299790000000  0.5023180000000 1.0
C      1  0.4695750000000  0.4570030000000  0.5037670000000 1.0
C      1  0.5157500000000  0.5533730000000  0.5145120000000 1.0
C      1  0.4177650000000  0.5273910000000  0.4622480000000 1.0
C      1  0.5488070000000  0.4763630000000  0.4652090000000 1.0
C      1  0.5177700000000  0.4495530000000  0.5149640000000 1.0
C      1  0.4927950000000  0.5388340000000  0.4680740000000 1.0
C      1  0.5141010000000  0.5051310000000  0.5295440000000 1.0
C      1  0.4647420000000  0.4611680000000  0.5695950000000 1.0
C      1  0.4845550000000  0.5253610000000  0.4899400000000 1.0
C      1  0.5033340000000  0.4661680000000  0.5615520000000 1.0
END
