TITL C-2778422-5617-1176 -0.0978924850925308 125000 -1059.50949409699 0 0 180 (C1) n - 1
REM
REM in /home/nfs/bkarasulu/CARBON/AIRSS/Generating-Clusters/REBO/Only-C1/SD-CG/HFTN-CG
REM
REM
REM
REM
REM
REM ./C.cell (11c1c37f851c82e70ff6c80c92926a4b)
REM
REM compiler GCC version 9.2.1 20190827 (Red Hat 9.2.1-1)
REM options -cpp -mtune=generic -march=x86-64 -g -O0 -fpre-include=/usr/include/finclude/math-vector-fortran.h
REM seed -457686349 -1514686771 -776283744 1372426948 -587110719 1623078900 442890319 1414687263 772078702 -957758575 400338480 837504638 190736881 526898945 -779071031 602270178 1548052558 774747768 -1480378386 926275085 -8224440 1156111997 1704177488 2080106556 1975461339 1463934162 -358110116 -1298169510 782570218 1133739077 -1141069312 -1202680051 -2105959014
REM
CELL 1.54180   50.00000   50.00000   50.00000   90.00000   90.00000   90.00000
LATT -1
SFAC C  
C      1  0.4436120000000  0.4820680000000  0.4913590000000 1.0
C      1  0.5633850000000  0.4678650000000  0.5520820000000 1.0
C      1  0.4832080000000  0.5137910000000  0.4342140000000 1.0
C      1  0.4433820000000  0.5237430000000  0.5293600000000 1.0
C      1  0.5915990000000  0.5536420000000  0.5281650000000 1.0
C      1  0.5184770000000  0.5291130000000  0.4942210000000 1.0
C      1  0.5352660000000  0.5768110000000  0.4543840000000 1.0
C      1  0.5084500000000  0.4307690000000  0.4384090000000 1.0
C      1  0.4792040000000  0.4317070000000  0.4964280000000 1.0
C      1  0.5087430000000  0.4693680000000  0.5631100000000 1.0
C      1  0.5375630000000  0.4523560000000  0.5572540000000 1.0
C      1  0.5525160000000  0.5096020000000  0.4378040000000 1.0
C      1  0.4929330000000  0.4199620000000  0.5662790000000 1.0
C      1  0.4456230000000  0.5658780000000  0.5703900000000 1.0
C      1  0.4605000000000  0.5409060000000  0.5162420000000 1.0
C      1  0.5996270000000  0.4533580000000  0.4553380000000 1.0
C      1  0.4250320000000  0.5220790000000  0.5821880000000 1.0
C      1  0.4557710000000  0.5466100000000  0.4549890000000 1.0
C      1  0.5093280000000  0.6067960000000  0.5199460000000 1.0
C      1  0.5280550000000  0.5505810000000  0.4187230000000 1.0
C      1  0.5564920000000  0.5802890000000  0.5519420000000 1.0
C      1  0.4686840000000  0.5283830000000  0.3777720000000 1.0
C      1  0.5082650000000  0.5617290000000  0.5264950000000 1.0
C      1  0.5078910000000  0.5278350000000  0.4059790000000 1.0
C      1  0.5813560000000  0.5779990000000  0.5117400000000 1.0
C      1  0.4955320000000  0.5232320000000  0.6035660000000 1.0
C      1  0.4979320000000  0.5932270000000  0.5487410000000 1.0
C      1  0.4171660000000  0.4365040000000  0.5145730000000 1.0
C      1  0.4209960000000  0.4694500000000  0.4275840000000 1.0
C      1  0.4979980000000  0.5529800000000  0.5866700000000 1.0
C      1  0.5415860000000  0.4524870000000  0.5089420000000 1.0
C      1  0.6064710000000  0.5230400000000  0.5254100000000 1.0
C      1  0.5369890000000  0.4970460000000  0.5466820000000 1.0
C      1  0.5109860000000  0.5750320000000  0.4332200000000 1.0
C      1  0.5621540000000  0.5933150000000  0.5274880000000 1.0
C      1  0.4847180000000  0.4810640000000  0.3918840000000 1.0
C      1  0.5935700000000  0.5068810000000  0.4538460000000 1.0
C      1  0.5151460000000  0.4465280000000  0.6040500000000 1.0
C      1  0.4381540000000  0.5463370000000  0.4272350000000 1.0
C      1  0.5567680000000  0.4995370000000  0.4673250000000 1.0
C      1  0.4232900000000  0.5603120000000  0.5156900000000 1.0
C      1  0.5970290000000  0.5320780000000  0.5727630000000 1.0
C      1  0.4168210000000  0.5146920000000  0.4470920000000 1.0
C      1  0.5138500000000  0.5727800000000  0.5003190000000 1.0
C      1  0.5044560000000  0.4931470000000  0.5947300000000 1.0
C      1  0.5046250000000  0.5539250000000  0.4660940000000 1.0
C      1  0.4913440000000  0.5091300000000  0.5154710000000 1.0
C      1  0.5724640000000  0.5771070000000  0.4851860000000 1.0
C      1  0.4586570000000  0.4769330000000  0.5277430000000 1.0
C      1  0.5408720000000  0.5839620000000  0.4850710000000 1.0
C      1  0.5744210000000  0.5179290000000  0.5230060000000 1.0
C      1  0.5389010000000  0.4358270000000  0.5860100000000 1.0
C      1  0.4509060000000  0.4303640000000  0.4434590000000 1.0
C      1  0.4678420000000  0.5762870000000  0.4488450000000 1.0
C      1  0.4797080000000  0.5589900000000  0.4862840000000 1.0
C      1  0.4597100000000  0.4461090000000  0.5152610000000 1.0
C      1  0.4684720000000  0.5162740000000  0.4644280000000 1.0
C      1  0.5102930000000  0.4863400000000  0.4449770000000 1.0
C      1  0.4257250000000  0.4936320000000  0.5877200000000 1.0
C      1  0.5633440000000  0.5393560000000  0.5419060000000 1.0
C      1  0.5683120000000  0.4717240000000  0.5047870000000 1.0
C      1  0.4417280000000  0.4503500000000  0.4185380000000 1.0
C      1  0.4588480000000  0.4674250000000  0.4561150000000 1.0
C      1  0.5265710000000  0.4136670000000  0.5650300000000 1.0
C      1  0.4387970000000  0.5040290000000  0.4710670000000 1.0
C      1  0.6004810000000  0.4826500000000  0.5541730000000 1.0
C      1  0.4895500000000  0.4374130000000  0.5918220000000 1.0
C      1  0.5897350000000  0.5400510000000  0.4549590000000 1.0
C      1  0.5352760000000  0.5470090000000  0.4710730000000 1.0
C      1  0.5214270000000  0.4073510000000  0.4929740000000 1.0
C      1  0.4917870000000  0.5464740000000  0.4371200000000 1.0
C      1  0.4848890000000  0.4859910000000  0.4677450000000 1.0
C      1  0.4666430000000  0.4199860000000  0.5444990000000 1.0
C      1  0.4152890000000  0.5407420000000  0.4167910000000 1.0
C      1  0.4435780000000  0.5453040000000  0.5904510000000 1.0
C      1  0.5340110000000  0.4855930000000  0.5787990000000 1.0
C      1  0.4511020000000  0.4833130000000  0.5945640000000 1.0
C      1  0.4673380000000  0.5594640000000  0.4191410000000 1.0
C      1  0.5491890000000  0.4531650000000  0.4029530000000 1.0
C      1  0.4391180000000  0.4241000000000  0.4715180000000 1.0
C      1  0.4687460000000  0.5262260000000  0.5886550000000 1.0
C      1  0.5640370000000  0.4335330000000  0.4938240000000 1.0
C      1  0.5611560000000  0.5321460000000  0.4696810000000 1.0
C      1  0.4906460000000  0.5967370000000  0.4933230000000 1.0
C      1  0.5828090000000  0.4690010000000  0.5758990000000 1.0
C      1  0.5924940000000  0.4482420000000  0.5044850000000 1.0
C      1  0.4774040000000  0.3969580000000  0.4586000000000 1.0
C      1  0.5586950000000  0.5552310000000  0.4189420000000 1.0
C      1  0.5845500000000  0.4904770000000  0.4813270000000 1.0
C      1  0.3990610000000  0.4997140000000  0.4697800000000 1.0
C      1  0.5156050000000  0.5172320000000  0.5641250000000 1.0
C      1  0.4763930000000  0.4860550000000  0.5000530000000 1.0
C      1  0.5561330000000  0.4328760000000  0.4628470000000 1.0
C      1  0.4705550000000  0.4527920000000  0.4018580000000 1.0
C      1  0.6016140000000  0.4723000000000  0.5267160000000 1.0
C      1  0.4631290000000  0.4020130000000  0.5174830000000 1.0
C      1  0.5816910000000  0.5695530000000  0.4596490000000 1.0
C      1  0.4338960000000  0.4956570000000  0.5199760000000 1.0
C      1  0.5881100000000  0.4981810000000  0.4239710000000 1.0
C      1  0.4569750000000  0.4576540000000  0.5534480000000 1.0
C      1  0.5246280000000  0.4525300000000  0.4067180000000 1.0
C      1  0.5816230000000  0.5591070000000  0.5607500000000 1.0
C      1  0.5021920000000  0.4741680000000  0.5313890000000 1.0
C      1  0.4071130000000  0.5305260000000  0.5114040000000 1.0
C      1  0.4827440000000  0.5421510000000  0.3967160000000 1.0
C      1  0.5751090000000  0.5295150000000  0.4267060000000 1.0
C      1  0.4679680000000  0.5058020000000  0.5636740000000 1.0
C      1  0.4698450000000  0.5875810000000  0.5332160000000 1.0
C      1  0.5279680000000  0.5251550000000  0.5950480000000 1.0
C      1  0.4066830000000  0.4685300000000  0.5090660000000 1.0
C      1  0.5468270000000  0.4088530000000  0.5073910000000 1.0
C      1  0.5358760000000  0.5369220000000  0.5472680000000 1.0
C      1  0.5147280000000  0.5129900000000  0.4651240000000 1.0
C      1  0.5552330000000  0.4653530000000  0.5906060000000 1.0
C      1  0.5272800000000  0.5533420000000  0.5759300000000 1.0
C      1  0.5419470000000  0.4290960000000  0.4340680000000 1.0
C      1  0.5379980000000  0.6018840000000  0.5128210000000 1.0
C      1  0.4523440000000  0.4973620000000  0.4114820000000 1.0
C      1  0.5643580000000  0.4900700000000  0.5301320000000 1.0
C      1  0.5678020000000  0.5241050000000  0.4967790000000 1.0
C      1  0.5458490000000  0.4053200000000  0.5380820000000 1.0
C      1  0.4255260000000  0.4976180000000  0.4221210000000 1.0
C      1  0.4440440000000  0.5227370000000  0.5575000000000 1.0
C      1  0.4319970000000  0.4541120000000  0.5753130000000 1.0
C      1  0.6090830000000  0.4489980000000  0.4780340000000 1.0
C      1  0.4862300000000  0.5272510000000  0.4891240000000 1.0
C      1  0.6044090000000  0.5115580000000  0.5554570000000 1.0
C      1  0.4634700000000  0.5013970000000  0.3841220000000 1.0
C      1  0.4832420000000  0.5483090000000  0.5312560000000 1.0
C      1  0.5623410000000  0.5758650000000  0.4393930000000 1.0
C      1  0.5257090000000  0.5749190000000  0.5527150000000 1.0
C      1  0.5217340000000  0.5181280000000  0.5246510000000 1.0
C      1  0.4989510000000  0.4524010000000  0.4837830000000 1.0
C      1  0.5337430000000  0.4364180000000  0.5331150000000 1.0
C      1  0.4109570000000  0.5460060000000  0.4591640000000 1.0
C      1  0.5071650000000  0.4945540000000  0.4116490000000 1.0
C      1  0.5078200000000  0.4165470000000  0.5362710000000 1.0
C      1  0.4084090000000  0.5355410000000  0.5440140000000 1.0
C      1  0.4146250000000  0.5724150000000  0.4656820000000 1.0
C      1  0.4589550000000  0.3997000000000  0.4836260000000 1.0
C      1  0.4660830000000  0.4214680000000  0.4146480000000 1.0
C      1  0.4960430000000  0.5863060000000  0.4621250000000 1.0
C      1  0.4499020000000  0.5789190000000  0.5226780000000 1.0
C      1  0.5253610000000  0.4577120000000  0.4683330000000 1.0
C      1  0.3995920000000  0.5008660000000  0.5008280000000 1.0
C      1  0.4499610000000  0.5436060000000  0.4869730000000 1.0
C      1  0.4845860000000  0.4488130000000  0.5387620000000 1.0
C      1  0.4128840000000  0.4561960000000  0.5404060000000 1.0
C      1  0.4744790000000  0.4412760000000  0.4652810000000 1.0
C      1  0.4608720000000  0.5853010000000  0.4811400000000 1.0
C      1  0.4778150000000  0.5443390000000  0.5609090000000 1.0
C      1  0.6032430000000  0.4951520000000  0.5075110000000 1.0
C      1  0.4965770000000  0.4573200000000  0.4216720000000 1.0
C      1  0.4120020000000  0.5035550000000  0.5432300000000 1.0
C      1  0.4781960000000  0.5760950000000  0.5705580000000 1.0
C      1  0.4930570000000  0.5027330000000  0.5477870000000 1.0
C      1  0.4610900000000  0.4514270000000  0.5927370000000 1.0
C      1  0.5161920000000  0.4705870000000  0.5048960000000 1.0
C      1  0.4819630000000  0.4754420000000  0.5821710000000 1.0
C      1  0.4378030000000  0.4503100000000  0.4918220000000 1.0
C      1  0.4956410000000  0.4088790000000  0.5102180000000 1.0
C      1  0.4307050000000  0.5785430000000  0.4878830000000 1.0
C      1  0.4352220000000  0.4319030000000  0.5499120000000 1.0
C      1  0.4224620000000  0.5289230000000  0.4838330000000 1.0
C      1  0.4852060000000  0.4110450000000  0.4364130000000 1.0
C      1  0.4110490000000  0.4783740000000  0.5638680000000 1.0
C      1  0.5708680000000  0.4550330000000  0.4435010000000 1.0
C      1  0.4339880000000  0.4123250000000  0.5032410000000 1.0
C      1  0.4272220000000  0.5602440000000  0.5496320000000 1.0
C      1  0.5695570000000  0.4752530000000  0.4177040000000 1.0
C      1  0.5310150000000  0.4877940000000  0.4795550000000 1.0
C      1  0.4085850000000  0.4719010000000  0.4752580000000 1.0
C      1  0.5233090000000  0.4246450000000  0.4685190000000 1.0
C      1  0.5380490000000  0.4888820000000  0.4166350000000 1.0
C      1  0.4736970000000  0.4812450000000  0.4299880000000 1.0
C      1  0.5374140000000  0.4999150000000  0.6158150000000 1.0
C      1  0.5397360000000  0.4686160000000  0.4431790000000 1.0
C      1  0.5210180000000  0.4733100000000  0.6144070000000 1.0
C      1  0.4279890000000  0.4647620000000  0.4560520000000 1.0
C      1  0.5238220000000  0.5227010000000  0.4357120000000 1.0
END
