TITL C-2778434-4341-307 0.109585725149697 125000 -208.294674629595 0 0 37 (C1) n - 1
REM
REM in /home/nfs/bkarasulu/CARBON/AIRSS/Generating-Clusters/REBO/Only-C1/SD-CG/HFTN-CG
REM
REM
REM
REM
REM
REM ./C.cell (11c1c37f851c82e70ff6c80c92926a4b)
REM
REM compiler GCC version 9.2.1 20190827 (Red Hat 9.2.1-1)
REM options -cpp -mtune=generic -march=x86-64 -g -O0 -fpre-include=/usr/include/finclude/math-vector-fortran.h
REM seed 1436297439 -1912038776 185194301 137075531 -1130768213 311912205 -1542820607 -1340874822 664501556 91410610 -746075406 -274236819 -359770313 -921608115 -1416955411 966927041 388215515 153201356 903733899 -1449751172 -1339823129 -1794543997 -1500402366 666427627 -601061051 1858930058 -341397984 1732265245 148000391 1897670037 -372955464 -13865260 277681993
REM
CELL 1.54180   50.00000   50.00000   50.00000   90.00000   90.00000   90.00000
LATT -1
SFAC C  
C      1  0.4378200000000  0.3937080000000  0.4541670000000 1.0
C      1  0.4607020000000  0.4145570000000  0.4904080000000 1.0
C      1  0.5109460000000  0.4492580000000  0.5465030000000 1.0
C      1  0.4989220000000  0.4814010000000  0.4862620000000 1.0
C      1  0.3915070000000  0.4715710000000  0.5037310000000 1.0
C      1  0.4370530000000  0.4622040000000  0.4964410000000 1.0
C      1  0.4923530000000  0.4339590000000  0.5348000000000 1.0
C      1  0.5574880000000  0.5764890000000  0.4940770000000 1.0
C      1  0.5626940000000  0.5574710000000  0.5148040000000 1.0
C      1  0.4336210000000  0.4905810000000  0.5023180000000 1.0
C      1  0.4759810000000  0.4287680000000  0.5139070000000 1.0
C      1  0.5486170000000  0.5323490000000  0.5168020000000 1.0
C      1  0.4524190000000  0.3918630000000  0.4779680000000 1.0
C      1  0.6003450000000  0.5690810000000  0.5520600000000 1.0
C      1  0.5289880000000  0.5252120000000  0.4970950000000 1.0
C      1  0.4052900000000  0.4973290000000  0.5070300000000 1.0
C      1  0.3943760000000  0.5220020000000  0.5130950000000 1.0
C      1  0.3840320000000  0.5453850000000  0.5188430000000 1.0
C      1  0.4102030000000  0.4511390000000  0.4975460000000 1.0
C      1  0.4821210000000  0.4628540000000  0.4740040000000 1.0
C      1  0.5712480000000  0.6006650000000  0.4924290000000 1.0
C      1  0.4581040000000  0.3672700000000  0.4883060000000 1.0
C      1  0.4831850000000  0.4576840000000  0.4467600000000 1.0
C      1  0.5276530000000  0.4699780000000  0.5484300000000 1.0
C      1  0.5243090000000  0.5450590000000  0.4772430000000 1.0
C      1  0.4622580000000  0.4479850000000  0.4906670000000 1.0
C      1  0.5554130000000  0.5158960000000  0.5390490000000 1.0
C      1  0.5374630000000  0.5690050000000  0.4755070000000 1.0
C      1  0.5147130000000  0.5012200000000  0.4948950000000 1.0
C      1  0.5821480000000  0.5634700000000  0.5340540000000 1.0
C      1  0.4841910000000  0.4528010000000  0.4210310000000 1.0
C      1  0.5756010000000  0.5238510000000  0.5556460000000 1.0
C      1  0.5975470000000  0.6468730000000  0.4892770000000 1.0
C      1  0.4241470000000  0.3954370000000  0.4318760000000 1.0
C      1  0.6104870000000  0.6696100000000  0.4877260000000 1.0
C      1  0.5843970000000  0.6237690000000  0.4908530000000 1.0
C      1  0.5416600000000  0.4922440000000  0.5443920000000 1.0
END
