TITL C-2778428-5639-1275 -0.00443427421430841 125000 -840.613775489277 0 0 145 (C1) n - 1
REM
REM in /home/nfs/bkarasulu/CARBON/AIRSS/Generating-Clusters/REBO/Only-C1/SD-CG/HFTN-CG
REM
REM
REM
REM
REM
REM ./C.cell (11c1c37f851c82e70ff6c80c92926a4b)
REM
REM compiler GCC version 9.2.1 20190827 (Red Hat 9.2.1-1)
REM options -cpp -mtune=generic -march=x86-64 -g -O0 -fpre-include=/usr/include/finclude/math-vector-fortran.h
REM seed 1662830092 -39851433 -762001687 -418357879 -53986408 -592547255 -1192190204 378313400 -1875723836 254644924 741300129 643898453 -1037643296 590610407 862841327 760570174 463942713 -559282879 80580871 -1765806811 1249230619 -228197535 2143310759 1942839138 -266415331 -371035456 1886636537 908040357 -1534834005 1523355070 -1009108734 639955676 1520313057
REM
CELL 1.54180   50.00000   50.00000   50.00000   90.00000   90.00000   90.00000
LATT -1
SFAC C  
C      1  0.5486220000000  0.5199750000000  0.5340200000000 1.0
C      1  0.5756130000000  0.5304600000000  0.4575870000000 1.0
C      1  0.6136950000000  0.5024200000000  0.5132630000000 1.0
C      1  0.5695170000000  0.5473380000000  0.4865420000000 1.0
C      1  0.5471650000000  0.6164700000000  0.4700130000000 1.0
C      1  0.4890510000000  0.5321670000000  0.6084290000000 1.0
C      1  0.4402510000000  0.5360670000000  0.5183000000000 1.0
C      1  0.4705700000000  0.5407550000000  0.5194240000000 1.0
C      1  0.4110350000000  0.4976330000000  0.4638300000000 1.0
C      1  0.4926450000000  0.4534830000000  0.5743910000000 1.0
C      1  0.5811940000000  0.5094890000000  0.4910520000000 1.0
C      1  0.5019550000000  0.5772790000000  0.4386090000000 1.0
C      1  0.4515030000000  0.5208480000000  0.5677230000000 1.0
C      1  0.4898500000000  0.4439580000000  0.4697160000000 1.0
C      1  0.5614870000000  0.5533900000000  0.5704750000000 1.0
C      1  0.5505630000000  0.4748650000000  0.4916900000000 1.0
C      1  0.4955520000000  0.4989600000000  0.4585190000000 1.0
C      1  0.5857990000000  0.4464820000000  0.5300300000000 1.0
C      1  0.5561170000000  0.5505470000000  0.5422260000000 1.0
C      1  0.4603280000000  0.4664660000000  0.5077330000000 1.0
C      1  0.4126960000000  0.4638170000000  0.5333390000000 1.0
C      1  0.4668550000000  0.4807210000000  0.5349920000000 1.0
C      1  0.4817410000000  0.5669180000000  0.5693180000000 1.0
C      1  0.5784190000000  0.4065370000000  0.4849520000000 1.0
C      1  0.4841800000000  0.4716260000000  0.3922930000000 1.0
C      1  0.6039730000000  0.4766840000000  0.4635970000000 1.0
C      1  0.4474110000000  0.4411660000000  0.4434820000000 1.0
C      1  0.5934370000000  0.4875010000000  0.5220380000000 1.0
C      1  0.5707330000000  0.4321140000000  0.4692680000000 1.0
C      1  0.5479380000000  0.4909930000000  0.5449140000000 1.0
C      1  0.4482340000000  0.5516520000000  0.5541510000000 1.0
C      1  0.4736150000000  0.4310010000000  0.4492910000000 1.0
C      1  0.3993210000000  0.4887280000000  0.5117700000000 1.0
C      1  0.5224820000000  0.4863320000000  0.4496070000000 1.0
C      1  0.5101060000000  0.4147130000000  0.4492220000000 1.0
C      1  0.3829380000000  0.5300810000000  0.5349750000000 1.0
C      1  0.4069310000000  0.4650370000000  0.4943850000000 1.0
C      1  0.4810220000000  0.4755680000000  0.5899210000000 1.0
C      1  0.4274590000000  0.4373280000000  0.5434130000000 1.0
C      1  0.4946410000000  0.4491590000000  0.4064430000000 1.0
C      1  0.4806380000000  0.4438330000000  0.5009050000000 1.0
C      1  0.5270620000000  0.5226370000000  0.5838830000000 1.0
C      1  0.5374570000000  0.4293390000000  0.4637150000000 1.0
C      1  0.4160870000000  0.4871720000000  0.5531920000000 1.0
C      1  0.5133030000000  0.4341860000000  0.5760080000000 1.0
C      1  0.5055550000000  0.5554890000000  0.5908190000000 1.0
C      1  0.5494560000000  0.5742950000000  0.4371040000000 1.0
C      1  0.5479450000000  0.5712450000000  0.4895350000000 1.0
C      1  0.4623460000000  0.5281740000000  0.5978620000000 1.0
C      1  0.5736730000000  0.5073130000000  0.5761630000000 1.0
C      1  0.5947850000000  0.4548480000000  0.4783290000000 1.0
C      1  0.4192030000000  0.5582500000000  0.5131540000000 1.0
C      1  0.4779740000000  0.5959340000000  0.4859540000000 1.0
C      1  0.5322960000000  0.5320560000000  0.4162950000000 1.0
C      1  0.5215930000000  0.4731380000000  0.5327870000000 1.0
C      1  0.4515550000000  0.5870930000000  0.4657460000000 1.0
C      1  0.4329190000000  0.4536810000000  0.5074420000000 1.0
C      1  0.4972210000000  0.5302750000000  0.5694000000000 1.0
C      1  0.4937400000000  0.4037840000000  0.4703780000000 1.0
C      1  0.4683490000000  0.4868150000000  0.4476870000000 1.0
C      1  0.4918460000000  0.4616050000000  0.5446370000000 1.0
C      1  0.4796270000000  0.5666790000000  0.4673030000000 1.0
C      1  0.5952080000000  0.5037860000000  0.4656910000000 1.0
C      1  0.4275270000000  0.5288600000000  0.4875730000000 1.0
C      1  0.4555410000000  0.4683770000000  0.5755660000000 1.0
C      1  0.5428200000000  0.4211590000000  0.5421910000000 1.0
C      1  0.3902600000000  0.5416200000000  0.5064320000000 1.0
C      1  0.5300380000000  0.5396410000000  0.4727970000000 1.0
C      1  0.4419770000000  0.5368240000000  0.4213600000000 1.0
C      1  0.5563810000000  0.5681770000000  0.5217180000000 1.0
C      1  0.4990100000000  0.4844870000000  0.4881200000000 1.0
C      1  0.5252790000000  0.5517050000000  0.5027930000000 1.0
C      1  0.4838860000000  0.5006550000000  0.3938740000000 1.0
C      1  0.5101830000000  0.4949570000000  0.5566660000000 1.0
C      1  0.4898620000000  0.5471070000000  0.5424750000000 1.0
C      1  0.5112040000000  0.5141530000000  0.3990080000000 1.0
C      1  0.4480040000000  0.5630700000000  0.4430670000000 1.0
C      1  0.5252920000000  0.5860440000000  0.5393930000000 1.0
C      1  0.4631720000000  0.5209180000000  0.4712750000000 1.0
C      1  0.4791430000000  0.5795760000000  0.5158380000000 1.0
C      1  0.4809030000000  0.4075630000000  0.5171480000000 1.0
C      1  0.4442010000000  0.4436700000000  0.5660670000000 1.0
C      1  0.5139770000000  0.5481840000000  0.4373490000000 1.0
C      1  0.4262090000000  0.5078230000000  0.5211030000000 1.0
C      1  0.5452110000000  0.5016150000000  0.5832910000000 1.0
C      1  0.4106450000000  0.4636340000000  0.4657180000000 1.0
C      1  0.4601860000000  0.5136970000000  0.4037300000000 1.0
C      1  0.4365440000000  0.4246050000000  0.4912610000000 1.0
C      1  0.5495920000000  0.5054770000000  0.4879580000000 1.0
C      1  0.5060620000000  0.5892810000000  0.4679610000000 1.0
C      1  0.5048220000000  0.4122500000000  0.4973290000000 1.0
C      1  0.5700520000000  0.4748800000000  0.4425310000000 1.0
C      1  0.4284190000000  0.4176250000000  0.5236090000000 1.0
C      1  0.4494740000000  0.4658430000000  0.4311540000000 1.0
C      1  0.6336200000000  0.5170950000000  0.5046320000000 1.0
C      1  0.4306870000000  0.5774840000000  0.4883880000000 1.0
C      1  0.5346350000000  0.5938820000000  0.4754780000000 1.0
C      1  0.4634140000000  0.5767770000000  0.5421870000000 1.0
C      1  0.3974890000000  0.5139140000000  0.4907300000000 1.0
C      1  0.4236330000000  0.5150290000000  0.4411180000000 1.0
C      1  0.4765910000000  0.5583770000000  0.4283360000000 1.0
C      1  0.3974810000000  0.5704040000000  0.4898240000000 1.0
C      1  0.5220850000000  0.4347740000000  0.4930400000000 1.0
C      1  0.4683370000000  0.5269340000000  0.4404550000000 1.0
C      1  0.4952980000000  0.4337210000000  0.5296220000000 1.0
C      1  0.4920160000000  0.4999350000000  0.5334240000000 1.0
C      1  0.4327330000000  0.4952860000000  0.4900810000000 1.0
C      1  0.5938800000000  0.4611590000000  0.5520030000000 1.0
C      1  0.4650550000000  0.4880860000000  0.4819080000000 1.0
C      1  0.5318240000000  0.4811870000000  0.4167860000000 1.0
C      1  0.5726330000000  0.4197690000000  0.5323920000000 1.0
C      1  0.5708750000000  0.5298410000000  0.5114280000000 1.0
C      1  0.4458440000000  0.4924190000000  0.5581820000000 1.0
C      1  0.5011020000000  0.5298590000000  0.4629890000000 1.0
C      1  0.5314800000000  0.5204050000000  0.5077630000000 1.0
C      1  0.4601180000000  0.5615430000000  0.4947780000000 1.0
C      1  0.4664200000000  0.4156350000000  0.4873940000000 1.0
C      1  0.5567440000000  0.5203210000000  0.4311020000000 1.0
C      1  0.5085290000000  0.5661400000000  0.5230550000000 1.0
C      1  0.4012080000000  0.5119760000000  0.5441060000000 1.0
C      1  0.4544030000000  0.5554430000000  0.5856160000000 1.0
C      1  0.5167700000000  0.4534110000000  0.4564850000000 1.0
C      1  0.5164630000000  0.4224720000000  0.5496460000000 1.0
C      1  0.5378160000000  0.5514570000000  0.5863520000000 1.0
C      1  0.4847510000000  0.5301910000000  0.4928020000000 1.0
C      1  0.4271820000000  0.4397600000000  0.4630800000000 1.0
C      1  0.5814760000000  0.5344620000000  0.5789160000000 1.0
C      1  0.5507840000000  0.5533460000000  0.4525530000000 1.0
C      1  0.5519330000000  0.4708550000000  0.5715900000000 1.0
C      1  0.5585260000000  0.4908980000000  0.4229280000000 1.0
C      1  0.4949000000000  0.4992330000000  0.5822420000000 1.0
C      1  0.5172070000000  0.4565880000000  0.4239070000000 1.0
C      1  0.4924010000000  0.4253430000000  0.4256110000000 1.0
C      1  0.5587800000000  0.4625210000000  0.4637880000000 1.0
C      1  0.4362110000000  0.5388320000000  0.4605510000000 1.0
C      1  0.5792280000000  0.4643900000000  0.5045730000000 1.0
C      1  0.4929580000000  0.5295470000000  0.4201490000000 1.0
C      1  0.5811550000000  0.4900140000000  0.5518100000000 1.0
C      1  0.4452600000000  0.4975410000000  0.4263500000000 1.0
C      1  0.5029730000000  0.5089080000000  0.5073570000000 1.0
C      1  0.5230620000000  0.4652430000000  0.5019740000000 1.0
C      1  0.5616940000000  0.4396230000000  0.5616250000000 1.0
C      1  0.5408910000000  0.5106300000000  0.4586270000000 1.0
C      1  0.5783030000000  0.4019680000000  0.5097090000000 1.0
C      1  0.5387800000000  0.4435380000000  0.5852670000000 1.0
END
