TITL C-2778424-3986-86 -0.0617221672321358 125000 -746.019091591798 0 0 129 (C1) n - 1
REM
REM in /home/nfs/bkarasulu/CARBON/AIRSS/Generating-Clusters/REBO/Only-C1/SD-CG/HFTN-CG
REM
REM
REM
REM
REM
REM ./C.cell (11c1c37f851c82e70ff6c80c92926a4b)
REM
REM compiler GCC version 9.2.1 20190827 (Red Hat 9.2.1-1)
REM options -cpp -mtune=generic -march=x86-64 -g -O0 -fpre-include=/usr/include/finclude/math-vector-fortran.h
REM seed 1839141153 169120476 482774561 -522538285 -1987795444 -211840676 -2025918594 -233230840 672513627 123050260 -1515785682 -1135416146 877827937 -1882969057 110876298 661560497 989038894 -1906018190 -1290728363 295113012 1835279741 -165080597 -1680483989 1143927322 -1302832606 -1241548444 -1258603213 1192724229 -657499944 -1565609043 1734736101 -1841631266 -1669298496
REM
CELL 1.54180   50.00000   50.00000   50.00000   90.00000   90.00000   90.00000
LATT -1
SFAC C  
C      1  0.4931550000000  0.4898800000000  0.5171090000000 1.0
C      1  0.5205210000000  0.5292620000000  0.4595450000000 1.0
C      1  0.4366310000000  0.4789110000000  0.4278040000000 1.0
C      1  0.5137440000000  0.5756210000000  0.5199400000000 1.0
C      1  0.5182080000000  0.5028870000000  0.4146850000000 1.0
C      1  0.5440020000000  0.5163800000000  0.5424260000000 1.0
C      1  0.5299020000000  0.4309820000000  0.4676270000000 1.0
C      1  0.5227290000000  0.4379300000000  0.5641670000000 1.0
C      1  0.4247660000000  0.5212020000000  0.4538770000000 1.0
C      1  0.5175770000000  0.5606910000000  0.5828010000000 1.0
C      1  0.4614630000000  0.5030870000000  0.4971850000000 1.0
C      1  0.5548480000000  0.5091980000000  0.5151590000000 1.0
C      1  0.4844480000000  0.4066540000000  0.4503430000000 1.0
C      1  0.4602740000000  0.4559800000000  0.5831160000000 1.0
C      1  0.4718480000000  0.4350520000000  0.5110090000000 1.0
C      1  0.4178220000000  0.4820260000000  0.4628250000000 1.0
C      1  0.4212250000000  0.4390400000000  0.4965570000000 1.0
C      1  0.4062820000000  0.4819260000000  0.5357340000000 1.0
C      1  0.4870760000000  0.5077150000000  0.5603880000000 1.0
C      1  0.4817180000000  0.4147640000000  0.5286680000000 1.0
C      1  0.5174270000000  0.5524180000000  0.4165410000000 1.0
C      1  0.5230160000000  0.5203110000000  0.4922580000000 1.0
C      1  0.4617310000000  0.4803700000000  0.5231020000000 1.0
C      1  0.4881240000000  0.5056960000000  0.4794560000000 1.0
C      1  0.5923880000000  0.4870080000000  0.4808560000000 1.0
C      1  0.4801160000000  0.5486480000000  0.5768850000000 1.0
C      1  0.5727870000000  0.5764290000000  0.5208710000000 1.0
C      1  0.4516560000000  0.4837000000000  0.4595120000000 1.0
C      1  0.5568720000000  0.4179250000000  0.5368280000000 1.0
C      1  0.5206420000000  0.4814690000000  0.5911110000000 1.0
C      1  0.5070240000000  0.4519730000000  0.4529900000000 1.0
C      1  0.4225640000000  0.5046370000000  0.4301750000000 1.0
C      1  0.4685600000000  0.5379920000000  0.4274270000000 1.0
C      1  0.5176820000000  0.5777160000000  0.5532370000000 1.0
C      1  0.4594140000000  0.5089550000000  0.5507330000000 1.0
C      1  0.5300680000000  0.4164850000000  0.5470780000000 1.0
C      1  0.5967430000000  0.5377550000000  0.4879280000000 1.0
C      1  0.5434770000000  0.4427610000000  0.4404560000000 1.0
C      1  0.4076700000000  0.4506170000000  0.4709790000000 1.0
C      1  0.5692780000000  0.4519430000000  0.4468030000000 1.0
C      1  0.5015050000000  0.5219560000000  0.5152040000000 1.0
C      1  0.5086200000000  0.5898520000000  0.4626020000000 1.0
C      1  0.4369070000000  0.5411890000000  0.5460620000000 1.0
C      1  0.4903330000000  0.5503370000000  0.5193560000000 1.0
C      1  0.4257850000000  0.4915800000000  0.5106850000000 1.0
C      1  0.4158600000000  0.5443690000000  0.5252210000000 1.0
C      1  0.4561530000000  0.4439770000000  0.4587920000000 1.0
C      1  0.4885650000000  0.5398630000000  0.4808620000000 1.0
C      1  0.4672050000000  0.4818430000000  0.4227370000000 1.0
C      1  0.4621380000000  0.4652700000000  0.4827100000000 1.0
C      1  0.5280800000000  0.4504330000000  0.5032550000000 1.0
C      1  0.5149770000000  0.5110690000000  0.5429990000000 1.0
C      1  0.5644810000000  0.5142360000000  0.4726680000000 1.0
C      1  0.5079870000000  0.5053210000000  0.4448300000000 1.0
C      1  0.4703140000000  0.4179330000000  0.5544230000000 1.0
C      1  0.5692460000000  0.4681620000000  0.4733510000000 1.0
C      1  0.4440840000000  0.5161130000000  0.5235690000000 1.0
C      1  0.4884650000000  0.4616000000000  0.4987460000000 1.0
C      1  0.5041760000000  0.4332910000000  0.4880550000000 1.0
C      1  0.5091320000000  0.4813660000000  0.4670320000000 1.0
C      1  0.3957600000000  0.4529350000000  0.5362220000000 1.0
C      1  0.5224730000000  0.4651480000000  0.4264410000000 1.0
C      1  0.5318320000000  0.5111960000000  0.5962950000000 1.0
C      1  0.4928530000000  0.5419410000000  0.4489310000000 1.0
C      1  0.5711170000000  0.4419870000000  0.5455160000000 1.0
C      1  0.5341520000000  0.4896780000000  0.5016350000000 1.0
C      1  0.4770190000000  0.4429410000000  0.5652680000000 1.0
C      1  0.5894810000000  0.4932730000000  0.5129690000000 1.0
C      1  0.4295300000000  0.4534520000000  0.4463200000000 1.0
C      1  0.4439160000000  0.5487190000000  0.4478010000000 1.0
C      1  0.4381490000000  0.4838060000000  0.5476440000000 1.0
C      1  0.5920980000000  0.5096550000000  0.4600810000000 1.0
C      1  0.5426350000000  0.5905550000000  0.5208900000000 1.0
C      1  0.5656850000000  0.4527430000000  0.5719740000000 1.0
C      1  0.5832960000000  0.5266470000000  0.5098380000000 1.0
C      1  0.5530130000000  0.4233250000000  0.4892270000000 1.0
C      1  0.4119540000000  0.5280570000000  0.5027800000000 1.0
C      1  0.4934050000000  0.5020550000000  0.5933530000000 1.0
C      1  0.5822300000000  0.4878160000000  0.5458200000000 1.0
C      1  0.4682360000000  0.5729620000000  0.4465120000000 1.0
C      1  0.4397500000000  0.4639600000000  0.5031480000000 1.0
C      1  0.4776630000000  0.4975040000000  0.4486050000000 1.0
C      1  0.5061110000000  0.5332410000000  0.5925640000000 1.0
C      1  0.5578560000000  0.5191870000000  0.4279140000000 1.0
C      1  0.5579250000000  0.5428230000000  0.5501340000000 1.0
C      1  0.4040500000000  0.5066240000000  0.4771290000000 1.0
C      1  0.4607020000000  0.5036080000000  0.5901300000000 1.0
C      1  0.5594990000000  0.4069600000000  0.5102520000000 1.0
C      1  0.4789590000000  0.5768480000000  0.5004260000000 1.0
C      1  0.4022400000000  0.4346660000000  0.5201990000000 1.0
C      1  0.4533830000000  0.5311100000000  0.5744060000000 1.0
C      1  0.5384930000000  0.4549960000000  0.5808230000000 1.0
C      1  0.4485290000000  0.4807590000000  0.5778840000000 1.0
C      1  0.5418700000000  0.5468490000000  0.4398660000000 1.0
C      1  0.4810510000000  0.4140880000000  0.4788460000000 1.0
C      1  0.4794510000000  0.5268820000000  0.4026840000000 1.0
C      1  0.4650480000000  0.5806160000000  0.5258090000000 1.0
C      1  0.5684590000000  0.5573700000000  0.4521870000000 1.0
C      1  0.4414490000000  0.5697960000000  0.4749790000000 1.0
C      1  0.5173770000000  0.4705800000000  0.5246110000000 1.0
C      1  0.4975810000000  0.4775000000000  0.4077370000000 1.0
C      1  0.5853930000000  0.5179430000000  0.4329220000000 1.0
C      1  0.4580320000000  0.5468610000000  0.4850690000000 1.0
C      1  0.5434140000000  0.4909570000000  0.4341890000000 1.0
C      1  0.4909590000000  0.5612730000000  0.5493110000000 1.0
C      1  0.5430830000000  0.4881280000000  0.4682610000000 1.0
C      1  0.5418330000000  0.5613030000000  0.4817490000000 1.0
C      1  0.5756900000000  0.4634210000000  0.5228700000000 1.0
C      1  0.5090920000000  0.4064540000000  0.5301740000000 1.0
C      1  0.4818310000000  0.4357520000000  0.4453860000000 1.0
C      1  0.4820650000000  0.5821160000000  0.4720360000000 1.0
C      1  0.5582690000000  0.5123910000000  0.5882220000000 1.0
C      1  0.4393260000000  0.5229400000000  0.4845930000000 1.0
C      1  0.3940170000000  0.4998390000000  0.5091540000000 1.0
C      1  0.5086200000000  0.5294910000000  0.4030410000000 1.0
C      1  0.5085070000000  0.4836630000000  0.5613310000000 1.0
C      1  0.5573340000000  0.5826830000000  0.4933870000000 1.0
C      1  0.5137910000000  0.5609780000000  0.4896330000000 1.0
C      1  0.5764530000000  0.5498780000000  0.5305330000000 1.0
C      1  0.5018870000000  0.4558150000000  0.5511810000000 1.0
C      1  0.5649880000000  0.5040400000000  0.5617720000000 1.0
C      1  0.5276630000000  0.5772230000000  0.4480090000000 1.0
C      1  0.4584110000000  0.5637830000000  0.5522700000000 1.0
C      1  0.4938160000000  0.5686750000000  0.4277940000000 1.0
C      1  0.5507840000000  0.5346790000000  0.4847590000000 1.0
C      1  0.5438860000000  0.5611400000000  0.5647870000000 1.0
C      1  0.4508850000000  0.4273220000000  0.4880670000000 1.0
C      1  0.5603440000000  0.4532610000000  0.4978690000000 1.0
C      1  0.4738580000000  0.4993800000000  0.3964320000000 1.0
END
