TITL C-2778433-5640-1134 -0.000872521895735582 125000 -294.929506733494 0 0 53 (C1) n - 1
REM
REM in /home/nfs/bkarasulu/CARBON/AIRSS/Generating-Clusters/REBO/Only-C1/SD-CG/HFTN-CG
REM
REM
REM
REM
REM
REM ./C.cell (11c1c37f851c82e70ff6c80c92926a4b)
REM
REM compiler GCC version 9.2.1 20190827 (Red Hat 9.2.1-1)
REM options -cpp -mtune=generic -march=x86-64 -g -O0 -fpre-include=/usr/include/finclude/math-vector-fortran.h
REM seed 965134540 -1516825113 -579128397 -852122139 -1776391035 -1300272550 -871837333 -840382818 80664493 1622859025 -1214661338 -899758622 -1144907985 -1095144629 -42557949 1031045196 1273109304 -1188119686 -295442724 -1423792602 -40241825 2072106626 -1744370139 1252883212 1323511601 -545403383 -1899294401 2010510199 1984075486 1228041956 120284571 1676456906 -1610241804
REM
CELL 1.54180   50.00000   50.00000   50.00000   90.00000   90.00000   90.00000
LATT -1
SFAC C  
C      1  0.5215550000000  0.4949290000000  0.4603600000000 1.0
C      1  0.5265990000000  0.5036180000000  0.5634790000000 1.0
C      1  0.5379910000000  0.5277510000000  0.5537580000000 1.0
C      1  0.4394940000000  0.4755590000000  0.4623870000000 1.0
C      1  0.4826520000000  0.4569820000000  0.5049150000000 1.0
C      1  0.5343890000000  0.5351690000000  0.4762880000000 1.0
C      1  0.5320030000000  0.4289040000000  0.5216390000000 1.0
C      1  0.4781810000000  0.4903980000000  0.5494000000000 1.0
C      1  0.5016420000000  0.4666410000000  0.5273770000000 1.0
C      1  0.5335240000000  0.4375610000000  0.4960550000000 1.0
C      1  0.4791670000000  0.5661450000000  0.5082460000000 1.0
C      1  0.4547660000000  0.4539930000000  0.5163320000000 1.0
C      1  0.5234670000000  0.4491540000000  0.5397770000000 1.0
C      1  0.4688320000000  0.4828220000000  0.4551770000000 1.0
C      1  0.5634010000000  0.4763170000000  0.5241320000000 1.0
C      1  0.4355690000000  0.4881420000000  0.5117330000000 1.0
C      1  0.5387580000000  0.4763810000000  0.5368550000000 1.0
C      1  0.4684230000000  0.5057470000000  0.4297100000000 1.0
C      1  0.5072480000000  0.5538440000000  0.5209240000000 1.0
C      1  0.4310090000000  0.4985580000000  0.4823400000000 1.0
C      1  0.4827230000000  0.5116090000000  0.4960170000000 1.0
C      1  0.4501660000000  0.4752670000000  0.5399680000000 1.0
C      1  0.5226890000000  0.4984920000000  0.4924070000000 1.0
C      1  0.4650960000000  0.5511630000000  0.5345880000000 1.0
C      1  0.5121490000000  0.5613780000000  0.4746020000000 1.0
C      1  0.4618280000000  0.5377220000000  0.5039020000000 1.0
C      1  0.5567990000000  0.5549140000000  0.5196940000000 1.0
C      1  0.5635280000000  0.4833720000000  0.4915960000000 1.0
C      1  0.5555860000000  0.5120470000000  0.4744640000000 1.0
C      1  0.4968650000000  0.5009350000000  0.4478620000000 1.0
C      1  0.4545770000000  0.4459610000000  0.4683300000000 1.0
C      1  0.5326210000000  0.5584770000000  0.5011200000000 1.0
C      1  0.5311690000000  0.4639730000000  0.4503880000000 1.0
C      1  0.4652780000000  0.5018750000000  0.5209410000000 1.0
C      1  0.4728250000000  0.5227980000000  0.4589540000000 1.0
C      1  0.5149580000000  0.4965130000000  0.5233600000000 1.0
C      1  0.5493580000000  0.4602050000000  0.4778150000000 1.0
C      1  0.4837140000000  0.4440060000000  0.4734190000000 1.0
C      1  0.5526020000000  0.4906630000000  0.4486450000000 1.0
C      1  0.5549100000000  0.5292980000000  0.5305310000000 1.0
C      1  0.4900590000000  0.5783890000000  0.4818730000000 1.0
C      1  0.4182140000000  0.5265290000000  0.4723710000000 1.0
C      1  0.4502390000000  0.5259340000000  0.4776270000000 1.0
C      1  0.5012230000000  0.5299050000000  0.4747770000000 1.0
C      1  0.5046900000000  0.5215910000000  0.5325490000000 1.0
C      1  0.4849720000000  0.5402010000000  0.5511450000000 1.0
C      1  0.4873900000000  0.4825790000000  0.4826600000000 1.0
C      1  0.5169520000000  0.4660720000000  0.4874650000000 1.0
C      1  0.4345060000000  0.4599820000000  0.4921660000000 1.0
C      1  0.5504220000000  0.5103840000000  0.5082540000000 1.0
C      1  0.5170750000000  0.5502010000000  0.5533680000000 1.0
C      1  0.5044590000000  0.4460150000000  0.4553380000000 1.0
C      1  0.5016870000000  0.4929320000000  0.5609210000000 1.0
END
