TITL C-2778429-3646-959 -0.035411739831576 125000 -790.81565603885 0 0 135 (C1) n - 1
REM
REM in /home/nfs/bkarasulu/CARBON/AIRSS/Generating-Clusters/REBO/Only-C1/SD-CG/HFTN-CG
REM
REM
REM
REM
REM
REM ./C.cell (11c1c37f851c82e70ff6c80c92926a4b)
REM
REM compiler GCC version 9.2.1 20190827 (Red Hat 9.2.1-1)
REM options -cpp -mtune=generic -march=x86-64 -g -O0 -fpre-include=/usr/include/finclude/math-vector-fortran.h
REM seed -1369766490 1782098154 -926272613 -1187440954 1711871346 509294371 -1095973239 1575635474 -911239825 291101487 -176973031 -1967210815 1928902794 2140362709 -1994082260 -124901959 404093540 788366064 -2002777712 -1451338415 -479130862 730973913 -1569987206 -941094683 -1900073932 1537711334 -1831999433 -1398571309 1948696289 -429501290 457154055 648250276 910030289
REM
CELL 1.54180   50.00000   50.00000   50.00000   90.00000   90.00000   90.00000
LATT -1
SFAC C  
C      1  0.5485240000000  0.5090160000000  0.5451500000000 1.0
C      1  0.4407090000000  0.4935330000000  0.4718460000000 1.0
C      1  0.4477620000000  0.5694040000000  0.4375650000000 1.0
C      1  0.4876240000000  0.4622010000000  0.4596070000000 1.0
C      1  0.4819990000000  0.5703570000000  0.5742100000000 1.0
C      1  0.5382200000000  0.5858580000000  0.4311060000000 1.0
C      1  0.4673460000000  0.5225310000000  0.4788160000000 1.0
C      1  0.5456640000000  0.5361030000000  0.5648320000000 1.0
C      1  0.4372600000000  0.5058100000000  0.5034610000000 1.0
C      1  0.5475240000000  0.4249810000000  0.4944270000000 1.0
C      1  0.5756930000000  0.5370740000000  0.4437600000000 1.0
C      1  0.4327620000000  0.4539000000000  0.5699450000000 1.0
C      1  0.4680150000000  0.4966160000000  0.5574240000000 1.0
C      1  0.5532860000000  0.4656560000000  0.4275900000000 1.0
C      1  0.4942140000000  0.5877050000000  0.4842120000000 1.0
C      1  0.5991530000000  0.5022710000000  0.5095230000000 1.0
C      1  0.5186580000000  0.4764750000000  0.4957360000000 1.0
C      1  0.5624040000000  0.4876090000000  0.5146780000000 1.0
C      1  0.4746380000000  0.5300120000000  0.4159720000000 1.0
C      1  0.5532590000000  0.5093570000000  0.5844040000000 1.0
C      1  0.5757670000000  0.4438270000000  0.4993220000000 1.0
C      1  0.4962350000000  0.4056340000000  0.5171730000000 1.0
C      1  0.4942400000000  0.4790890000000  0.4064820000000 1.0
C      1  0.5247570000000  0.4344600000000  0.4497740000000 1.0
C      1  0.5210330000000  0.4635580000000  0.5998630000000 1.0
C      1  0.5188240000000  0.4023680000000  0.5333490000000 1.0
C      1  0.5123140000000  0.4754130000000  0.5453560000000 1.0
C      1  0.5568670000000  0.4494070000000  0.5243690000000 1.0
C      1  0.5053570000000  0.4520630000000  0.4335610000000 1.0
C      1  0.4476880000000  0.5119450000000  0.4206290000000 1.0
C      1  0.5469650000000  0.4578120000000  0.5788350000000 1.0
C      1  0.4511250000000  0.5880910000000  0.4570710000000 1.0
C      1  0.4639240000000  0.5935080000000  0.4822160000000 1.0
C      1  0.5719980000000  0.5579180000000  0.4924950000000 1.0
C      1  0.5246690000000  0.4335780000000  0.5846360000000 1.0
C      1  0.5337080000000  0.4702870000000  0.5208380000000 1.0
C      1  0.5225270000000  0.4961870000000  0.4463820000000 1.0
C      1  0.4103000000000  0.5347080000000  0.5088830000000 1.0
C      1  0.5917890000000  0.4778030000000  0.4525670000000 1.0
C      1  0.4977480000000  0.4076350000000  0.4888940000000 1.0
C      1  0.4767610000000  0.5171220000000  0.5316200000000 1.0
C      1  0.5517740000000  0.4428730000000  0.4451200000000 1.0
C      1  0.5873280000000  0.4877780000000  0.5380190000000 1.0
C      1  0.5584280000000  0.5500230000000  0.5212290000000 1.0
C      1  0.5554030000000  0.4312030000000  0.5592910000000 1.0
C      1  0.5089170000000  0.5282170000000  0.5312870000000 1.0
C      1  0.4221830000000  0.5523020000000  0.4735030000000 1.0
C      1  0.4283720000000  0.5000290000000  0.5558970000000 1.0
C      1  0.4105200000000  0.4609640000000  0.5240150000000 1.0
C      1  0.4629750000000  0.4628290000000  0.5600770000000 1.0
C      1  0.4732080000000  0.5873910000000  0.5511130000000 1.0
C      1  0.5419540000000  0.5593730000000  0.5461700000000 1.0
C      1  0.5470450000000  0.5796700000000  0.4853690000000 1.0
C      1  0.5740250000000  0.5226050000000  0.5297600000000 1.0
C      1  0.4751730000000  0.4249910000000  0.5272170000000 1.0
C      1  0.4268640000000  0.4534460000000  0.4747260000000 1.0
C      1  0.4430600000000  0.5493430000000  0.5566690000000 1.0
C      1  0.4591580000000  0.4894080000000  0.5909400000000 1.0
C      1  0.5414370000000  0.4815230000000  0.5582870000000 1.0
C      1  0.4824130000000  0.5591150000000  0.4736450000000 1.0
C      1  0.5874920000000  0.4709250000000  0.5018590000000 1.0
C      1  0.5943250000000  0.4504690000000  0.4562260000000 1.0
C      1  0.4708960000000  0.4891200000000  0.5170590000000 1.0
C      1  0.5002860000000  0.5230170000000  0.5634180000000 1.0
C      1  0.5237320000000  0.5635920000000  0.4223370000000 1.0
C      1  0.4366810000000  0.5383730000000  0.4393540000000 1.0
C      1  0.5324560000000  0.5306630000000  0.4748050000000 1.0
C      1  0.5302520000000  0.5399090000000  0.5074510000000 1.0
C      1  0.5733360000000  0.4857550000000  0.4325930000000 1.0
C      1  0.4502920000000  0.5564090000000  0.4827700000000 1.0
C      1  0.5242560000000  0.5394920000000  0.4436660000000 1.0
C      1  0.5291860000000  0.4098910000000  0.5636390000000 1.0
C      1  0.5884970000000  0.4934220000000  0.4778740000000 1.0
C      1  0.4030630000000  0.5707880000000  0.4756690000000 1.0
C      1  0.5002310000000  0.5271380000000  0.3971780000000 1.0
C      1  0.5388920000000  0.5091150000000  0.5135670000000 1.0
C      1  0.4761790000000  0.4510450000000  0.5074170000000 1.0
C      1  0.5522200000000  0.5835700000000  0.4552070000000 1.0
C      1  0.4555420000000  0.5301340000000  0.5100070000000 1.0
C      1  0.5601870000000  0.5111030000000  0.4776540000000 1.0
C      1  0.5067560000000  0.4956250000000  0.5721610000000 1.0
C      1  0.4240500000000  0.4305310000000  0.5238710000000 1.0
C      1  0.5040660000000  0.5134400000000  0.4660950000000 1.0
C      1  0.5259340000000  0.4715630000000  0.4152250000000 1.0
C      1  0.4891760000000  0.5443300000000  0.5856900000000 1.0
C      1  0.5708120000000  0.5598680000000  0.4602620000000 1.0
C      1  0.4734260000000  0.4576060000000  0.4228280000000 1.0
C      1  0.4480520000000  0.5753470000000  0.5386480000000 1.0
C      1  0.4738380000000  0.4087380000000  0.4754710000000 1.0
C      1  0.4792080000000  0.4335790000000  0.5567080000000 1.0
C      1  0.4675020000000  0.5304750000000  0.4499130000000 1.0
C      1  0.5695070000000  0.4337170000000  0.4692990000000 1.0
C      1  0.4474400000000  0.5806230000000  0.5063840000000 1.0
C      1  0.5659310000000  0.5134320000000  0.4307050000000 1.0
C      1  0.4293750000000  0.4877070000000  0.5290970000000 1.0
C      1  0.4864130000000  0.4786180000000  0.5880310000000 1.0
C      1  0.5190330000000  0.4281660000000  0.4800830000000 1.0
C      1  0.4823010000000  0.4932850000000  0.4551790000000 1.0
C      1  0.4272420000000  0.4998390000000  0.4412500000000 1.0
C      1  0.4348330000000  0.4693570000000  0.4485540000000 1.0
C      1  0.4847570000000  0.4673280000000  0.5360290000000 1.0
C      1  0.4709990000000  0.4915210000000  0.4261920000000 1.0
C      1  0.4935140000000  0.5503800000000  0.4447020000000 1.0
C      1  0.4466650000000  0.5234370000000  0.5577320000000 1.0
C      1  0.4077890000000  0.5077290000000  0.4891370000000 1.0
C      1  0.4922480000000  0.5369000000000  0.4960700000000 1.0
C      1  0.5214290000000  0.5827000000000  0.5021110000000 1.0
C      1  0.5017010000000  0.5572510000000  0.4055010000000 1.0
C      1  0.4460770000000  0.4672350000000  0.5069060000000 1.0
C      1  0.5090730000000  0.5076930000000  0.4974210000000 1.0
C      1  0.4589810000000  0.4476900000000  0.4520550000000 1.0
C      1  0.5174770000000  0.5025990000000  0.4033980000000 1.0
C      1  0.5734720000000  0.4878540000000  0.5681380000000 1.0
C      1  0.4995850000000  0.4545530000000  0.4865220000000 1.0
C      1  0.4700560000000  0.4912250000000  0.4860420000000 1.0
C      1  0.4932900000000  0.5530730000000  0.5470890000000 1.0
C      1  0.4155200000000  0.5232150000000  0.4616280000000 1.0
C      1  0.5802810000000  0.5271570000000  0.4972110000000 1.0
C      1  0.4944070000000  0.4481420000000  0.5835610000000 1.0
C      1  0.4728110000000  0.5631750000000  0.4209460000000 1.0
C      1  0.5364800000000  0.5151510000000  0.4260290000000 1.0
C      1  0.5740990000000  0.4585770000000  0.5500620000000 1.0
C      1  0.5249380000000  0.5799540000000  0.5360590000000 1.0
C      1  0.4970470000000  0.5618710000000  0.5142340000000 1.0
C      1  0.4959580000000  0.4111080000000  0.5687050000000 1.0
C      1  0.5448530000000  0.4197610000000  0.5282820000000 1.0
C      1  0.4335350000000  0.5516770000000  0.5180440000000 1.0
C      1  0.5300150000000  0.4951230000000  0.5939570000000 1.0
C      1  0.4332050000000  0.4824910000000  0.5780220000000 1.0
C      1  0.4474540000000  0.4236200000000  0.5104500000000 1.0
C      1  0.5361980000000  0.4908810000000  0.4733230000000 1.0
C      1  0.4947230000000  0.5902590000000  0.5328540000000 1.0
C      1  0.4492080000000  0.4295660000000  0.4791770000000 1.0
C      1  0.4142830000000  0.4745630000000  0.4947580000000 1.0
C      1  0.4154260000000  0.4428020000000  0.5515340000000 1.0
END
