TITL C-2778427-5640-1291 0.00211564491391871 125000 -351.444096187033 0 0 61 (C1) n - 1
REM
REM in /home/nfs/bkarasulu/CARBON/AIRSS/Generating-Clusters/REBO/Only-C1/SD-CG/HFTN-CG
REM
REM
REM
REM
REM
REM ./C.cell (11c1c37f851c82e70ff6c80c92926a4b)
REM
REM compiler GCC version 9.2.1 20190827 (Red Hat 9.2.1-1)
REM options -cpp -mtune=generic -march=x86-64 -g -O0 -fpre-include=/usr/include/finclude/math-vector-fortran.h
REM seed 1295902176 -894669480 1916015855 785008917 -1042362104 1956264943 -1641856381 1382703459 -1116555786 1302268018 -1318650409 -760944797 789777936 -24049420 -732944076 1925977013 806115383 1457659832 78519020 -1782017161 218993144 -1552153451 -689877074 1994087711 -196257818 1667745937 -1793287627 -1749555475 420193599 -13210695 -736915867 885751360 -1336248784
REM
CELL 1.54180   50.00000   50.00000   50.00000   90.00000   90.00000   90.00000
LATT -1
SFAC C  
C      1  0.4852180000000  0.5137620000000  0.5673770000000 1.0
C      1  0.5537790000000  0.5051440000000  0.5427860000000 1.0
C      1  0.5077790000000  0.5912890000000  0.4883800000000 1.0
C      1  0.4842000000000  0.5218920000000  0.5365580000000 1.0
C      1  0.4870450000000  0.5329770000000  0.4337920000000 1.0
C      1  0.5530320000000  0.4715470000000  0.4767960000000 1.0
C      1  0.5469340000000  0.4561190000000  0.5013270000000 1.0
C      1  0.5287250000000  0.5722590000000  0.4869560000000 1.0
C      1  0.4449480000000  0.5247580000000  0.4822500000000 1.0
C      1  0.5286100000000  0.4683570000000  0.4567890000000 1.0
C      1  0.5632200000000  0.4982680000000  0.4764090000000 1.0
C      1  0.4706490000000  0.4590490000000  0.4570800000000 1.0
C      1  0.4753050000000  0.5154460000000  0.4861220000000 1.0
C      1  0.5207040000000  0.4389270000000  0.4516920000000 1.0
C      1  0.5202530000000  0.5416490000000  0.4473560000000 1.0
C      1  0.5522660000000  0.4365470000000  0.5209230000000 1.0
C      1  0.5048450000000  0.4704040000000  0.5560940000000 1.0
C      1  0.5042080000000  0.4188090000000  0.4588470000000 1.0
C      1  0.5080050000000  0.4414050000000  0.5476970000000 1.0
C      1  0.5250080000000  0.4889780000000  0.4336590000000 1.0
C      1  0.5102840000000  0.4958570000000  0.5709230000000 1.0
C      1  0.4580610000000  0.5374750000000  0.4336900000000 1.0
C      1  0.4919690000000  0.4697950000000  0.5246180000000 1.0
C      1  0.4728970000000  0.4870010000000  0.5047650000000 1.0
C      1  0.4407090000000  0.4667090000000  0.5418330000000 1.0
C      1  0.5339120000000  0.4317100000000  0.5410240000000 1.0
C      1  0.4957470000000  0.5256260000000  0.4641570000000 1.0
C      1  0.4729520000000  0.4583560000000  0.4301210000000 1.0
C      1  0.4622970000000  0.4526660000000  0.5221970000000 1.0
C      1  0.4774160000000  0.5561130000000  0.5170530000000 1.0
C      1  0.5584650000000  0.5488930000000  0.5143260000000 1.0
C      1  0.4418000000000  0.5345230000000  0.4528480000000 1.0
C      1  0.4389720000000  0.4987810000000  0.5462020000000 1.0
C      1  0.4958540000000  0.5908450000000  0.5136730000000 1.0
C      1  0.4286850000000  0.5007070000000  0.4922740000000 1.0
C      1  0.5817580000000  0.5212700000000  0.4812110000000 1.0
C      1  0.5115080000000  0.4810840000000  0.4803110000000 1.0
C      1  0.5335580000000  0.5624470000000  0.5136150000000 1.0
C      1  0.4567700000000  0.5184120000000  0.5545700000000 1.0
C      1  0.4954830000000  0.5191260000000  0.5121060000000 1.0
C      1  0.5145010000000  0.5133550000000  0.4310320000000 1.0
C      1  0.5690280000000  0.5462290000000  0.4873060000000 1.0
C      1  0.5419310000000  0.5196080000000  0.4758350000000 1.0
C      1  0.4447320000000  0.4879870000000  0.5155890000000 1.0
C      1  0.5186390000000  0.4706460000000  0.5083890000000 1.0
C      1  0.5652250000000  0.5290000000000  0.5329690000000 1.0
C      1  0.4586660000000  0.5467770000000  0.5042290000000 1.0
C      1  0.5068170000000  0.5643570000000  0.5320040000000 1.0
C      1  0.4029030000000  0.4837930000000  0.4794080000000 1.0
C      1  0.4265360000000  0.4653020000000  0.4884970000000 1.0
C      1  0.5425140000000  0.5524420000000  0.4669380000000 1.0
C      1  0.4617610000000  0.4366840000000  0.4732970000000 1.0
C      1  0.4473930000000  0.4479580000000  0.4954480000000 1.0
C      1  0.5120920000000  0.5511050000000  0.5592430000000 1.0
C      1  0.4840700000000  0.4320290000000  0.5350340000000 1.0
C      1  0.5148700000000  0.5111440000000  0.4852130000000 1.0
C      1  0.4813540000000  0.4782170000000  0.4742900000000 1.0
C      1  0.4793480000000  0.4145600000000  0.4699510000000 1.0
C      1  0.5413350000000  0.4878230000000  0.5245490000000 1.0
C      1  0.5210390000000  0.5295240000000  0.5722250000000 1.0
C      1  0.5414210000000  0.5064770000000  0.5681460000000 1.0
END
