TITL C-2778423-5760-711 -0.00281799475965637 125000 -571.737556235134 0 0 101 (C1) n - 1
REM
REM in /home/nfs/bkarasulu/CARBON/AIRSS/Generating-Clusters/REBO/Only-C1/SD-CG/HFTN-CG
REM
REM
REM
REM
REM
REM ./C.cell (11c1c37f851c82e70ff6c80c92926a4b)
REM
REM compiler GCC version 9.2.1 20190827 (Red Hat 9.2.1-1)
REM options -cpp -mtune=generic -march=x86-64 -g -O0 -fpre-include=/usr/include/finclude/math-vector-fortran.h
REM seed 1825285420 -444162713 292086103 -737344604 274642561 -1330209739 -475630844 1885347591 944889939 -402458337 2130473032 616384048 -2082140918 -471531739 -1827723713 -2060603429 -1505083706 -144468757 -1820436115 -605033931 1439342479 -193986611 1059427753 2104266504 -1747649082 1625847826 738432774 -1264314606 -730207856 1481758005 1091550028 -1961541358 1695196575
REM
CELL 1.54180   50.00000   50.00000   50.00000   90.00000   90.00000   90.00000
LATT -1
SFAC C  
C      1  0.5160250000000  0.4445170000000  0.5055390000000 1.0
C      1  0.5153010000000  0.4340330000000  0.5350910000000 1.0
C      1  0.5460730000000  0.4707770000000  0.4249990000000 1.0
C      1  0.4425870000000  0.5338450000000  0.5610950000000 1.0
C      1  0.5004710000000  0.5850110000000  0.5342730000000 1.0
C      1  0.4480800000000  0.4591880000000  0.4392610000000 1.0
C      1  0.5387010000000  0.5237130000000  0.4809190000000 1.0
C      1  0.5860940000000  0.4657930000000  0.5065660000000 1.0
C      1  0.5219640000000  0.5391980000000  0.5135630000000 1.0
C      1  0.5129520000000  0.5503270000000  0.5629920000000 1.0
C      1  0.5174660000000  0.4710230000000  0.4054250000000 1.0
C      1  0.5333400000000  0.5540780000000  0.4785720000000 1.0
C      1  0.4729130000000  0.5787180000000  0.4920390000000 1.0
C      1  0.4937340000000  0.4316400000000  0.4885810000000 1.0
C      1  0.4727260000000  0.4207050000000  0.5107240000000 1.0
C      1  0.4885560000000  0.4698000000000  0.5198260000000 1.0
C      1  0.4782850000000  0.5195460000000  0.5105610000000 1.0
C      1  0.4838260000000  0.5245690000000  0.4775770000000 1.0
C      1  0.5537500000000  0.5486260000000  0.5128590000000 1.0
C      1  0.4140140000000  0.4879510000000  0.5215450000000 1.0
C      1  0.4817290000000  0.4421020000000  0.4519050000000 1.0
C      1  0.5428200000000  0.4350030000000  0.4930680000000 1.0
C      1  0.4744050000000  0.5107000000000  0.5401690000000 1.0
C      1  0.5136380000000  0.4594550000000  0.4684890000000 1.0
C      1  0.4867020000000  0.5158580000000  0.5827600000000 1.0
C      1  0.4619740000000  0.5451650000000  0.4360970000000 1.0
C      1  0.5318550000000  0.5665220000000  0.4406330000000 1.0
C      1  0.5471000000000  0.4743410000000  0.4982850000000 1.0
C      1  0.4617780000000  0.4491100000000  0.5168580000000 1.0
C      1  0.5725320000000  0.5415030000000  0.4916070000000 1.0
C      1  0.5807920000000  0.5316810000000  0.4635930000000 1.0
C      1  0.4651510000000  0.5453860000000  0.5378880000000 1.0
C      1  0.4530290000000  0.4877140000000  0.5157640000000 1.0
C      1  0.4630890000000  0.5021100000000  0.4648400000000 1.0
C      1  0.5289030000000  0.4939130000000  0.4412470000000 1.0
C      1  0.5187790000000  0.5044300000000  0.5834560000000 1.0
C      1  0.4668600000000  0.4706070000000  0.4630980000000 1.0
C      1  0.5200310000000  0.4570740000000  0.5588220000000 1.0
C      1  0.4449860000000  0.5413580000000  0.5102060000000 1.0
C      1  0.5036700000000  0.4907440000000  0.4710830000000 1.0
C      1  0.5806010000000  0.5056300000000  0.4556970000000 1.0
C      1  0.5180160000000  0.5628580000000  0.5378540000000 1.0
C      1  0.5043060000000  0.5323180000000  0.4621460000000 1.0
C      1  0.4899440000000  0.5493400000000  0.5129820000000 1.0
C      1  0.5610490000000  0.4933970000000  0.5204010000000 1.0
C      1  0.5017390000000  0.5648760000000  0.4850470000000 1.0
C      1  0.4831610000000  0.5631470000000  0.4382840000000 1.0
C      1  0.5520080000000  0.5265480000000  0.5556600000000 1.0
C      1  0.4492220000000  0.5005430000000  0.4145140000000 1.0
C      1  0.4891370000000  0.4835330000000  0.5464820000000 1.0
C      1  0.5526850000000  0.5716450000000  0.4743570000000 1.0
C      1  0.4040400000000  0.5760590000000  0.4735700000000 1.0
C      1  0.5186850000000  0.4885830000000  0.5542580000000 1.0
C      1  0.5157220000000  0.4772770000000  0.5063670000000 1.0
C      1  0.4482980000000  0.4771110000000  0.5683400000000 1.0
C      1  0.4690820000000  0.5787980000000  0.5424200000000 1.0
C      1  0.5595070000000  0.4684710000000  0.5637640000000 1.0
C      1  0.5143420000000  0.5094410000000  0.4982570000000 1.0
C      1  0.5595680000000  0.4425700000000  0.4499050000000 1.0
C      1  0.5602600000000  0.4476350000000  0.5152110000000 1.0
C      1  0.5215620000000  0.5378760000000  0.4400820000000 1.0
C      1  0.5380400000000  0.4907980000000  0.4724200000000 1.0
C      1  0.5319260000000  0.5327660000000  0.5747410000000 1.0
C      1  0.5454950000000  0.4829400000000  0.5830220000000 1.0
C      1  0.5187390000000  0.5232580000000  0.4161110000000 1.0
C      1  0.4289270000000  0.5659190000000  0.4694840000000 1.0
C      1  0.5704090000000  0.4738560000000  0.4487110000000 1.0
C      1  0.4200950000000  0.5144260000000  0.5457210000000 1.0
C      1  0.4360340000000  0.4516320000000  0.4840470000000 1.0
C      1  0.4497700000000  0.4465640000000  0.5567120000000 1.0
C      1  0.5068280000000  0.4971650000000  0.4082660000000 1.0
C      1  0.4983130000000  0.4487760000000  0.4227080000000 1.0
C      1  0.4776710000000  0.4625450000000  0.5681580000000 1.0
C      1  0.5049870000000  0.5714590000000  0.4539300000000 1.0
C      1  0.4565070000000  0.5213040000000  0.5823070000000 1.0
C      1  0.4663520000000  0.5153120000000  0.4357600000000 1.0
C      1  0.4695620000000  0.4715860000000  0.4926300000000 1.0
C      1  0.4761300000000  0.5946210000000  0.5154950000000 1.0
C      1  0.5092330000000  0.4246160000000  0.4621310000000 1.0
C      1  0.5432320000000  0.5032860000000  0.5419040000000 1.0
C      1  0.4953950000000  0.5007620000000  0.4395400000000 1.0
C      1  0.4616150000000  0.4346630000000  0.4796440000000 1.0
C      1  0.4191700000000  0.5208680000000  0.5143750000000 1.0
C      1  0.5011960000000  0.4493690000000  0.5825530000000 1.0
C      1  0.4463190000000  0.4969640000000  0.5469200000000 1.0
C      1  0.5669420000000  0.5086710000000  0.4931090000000 1.0
C      1  0.4209790000000  0.4686110000000  0.4943540000000 1.0
C      1  0.4370510000000  0.5545940000000  0.4449470000000 1.0
C      1  0.5640330000000  0.5466060000000  0.5395190000000 1.0
C      1  0.4923110000000  0.4155110000000  0.5331990000000 1.0
C      1  0.5785110000000  0.4739830000000  0.5387930000000 1.0
C      1  0.5469720000000  0.4450880000000  0.5424360000000 1.0
C      1  0.4502170000000  0.5116660000000  0.4939980000000 1.0
C      1  0.4348480000000  0.4623860000000  0.5310900000000 1.0
C      1  0.5044680000000  0.4369070000000  0.6050870000000 1.0
C      1  0.4413920000000  0.4746060000000  0.4177410000000 1.0
C      1  0.4483190000000  0.5642330000000  0.4905430000000 1.0
C      1  0.4869160000000  0.5399630000000  0.5643940000000 1.0
C      1  0.5816770000000  0.4820960000000  0.4799480000000 1.0
C      1  0.5226870000000  0.4546050000000  0.4405670000000 1.0
C      1  0.5411170000000  0.4295280000000  0.4655070000000 1.0
END
