TITL C-2778430-5657-1313 0.06029255818844 125000 -251.819528829411 0 0 45 (C1) n - 1
REM
REM in /home/nfs/bkarasulu/CARBON/AIRSS/Generating-Clusters/REBO/Only-C1/SD-CG/HFTN-CG
REM
REM
REM
REM
REM
REM ./C.cell (11c1c37f851c82e70ff6c80c92926a4b)
REM
REM compiler GCC version 9.2.1 20190827 (Red Hat 9.2.1-1)
REM options -cpp -mtune=generic -march=x86-64 -g -O0 -fpre-include=/usr/include/finclude/math-vector-fortran.h
REM seed -892210236 -1651589950 -1179974149 150095736 1341165355 2046729786 2022136001 642210104 -197661521 1209065853 -1519697407 -1821684053 -1681488480 1725417065 -504136464 1513638108 595363023 544236025 1396225850 -663564738 -1120216442 -234960773 1670859248 -1967814655 -1214647694 -535900405 -1264403364 -1053119331 -458178038 -2035585447 1230974757 2101093512 1589924090
REM
CELL 1.54180   50.00000   50.00000   50.00000   90.00000   90.00000   90.00000
LATT -1
SFAC C  
C      1  0.5749970000000  0.4793180000000  0.5665600000000 1.0
C      1  0.4506180000000  0.5405690000000  0.4890570000000 1.0
C      1  0.5186270000000  0.5578600000000  0.4636110000000 1.0
C      1  0.5261450000000  0.5657190000000  0.4892690000000 1.0
C      1  0.4671640000000  0.4755760000000  0.4604370000000 1.0
C      1  0.5295010000000  0.4809160000000  0.5518370000000 1.0
C      1  0.5086530000000  0.4598210000000  0.4946250000000 1.0
C      1  0.5519260000000  0.4637430000000  0.4483250000000 1.0
C      1  0.5091310000000  0.4872460000000  0.4970480000000 1.0
C      1  0.5043450000000  0.5663780000000  0.5121740000000 1.0
C      1  0.4928930000000  0.5382170000000  0.4866940000000 1.0
C      1  0.5206710000000  0.5482990000000  0.5353520000000 1.0
C      1  0.4610810000000  0.5317130000000  0.4636100000000 1.0
C      1  0.5643740000000  0.4729190000000  0.5202320000000 1.0
C      1  0.4947520000000  0.5089000000000  0.4866770000000 1.0
C      1  0.4723920000000  0.5050530000000  0.4675750000000 1.0
C      1  0.4907030000000  0.4530330000000  0.4488590000000 1.0
C      1  0.4573490000000  0.4810630000000  0.5333850000000 1.0
C      1  0.4958130000000  0.4840310000000  0.4429540000000 1.0
C      1  0.5170050000000  0.5023570000000  0.4447700000000 1.0
C      1  0.5563610000000  0.4769110000000  0.5468240000000 1.0
C      1  0.4578890000000  0.4539580000000  0.5186650000000 1.0
C      1  0.4863800000000  0.4536320000000  0.5330180000000 1.0
C      1  0.4830480000000  0.5571540000000  0.5373350000000 1.0
C      1  0.5421880000000  0.4911410000000  0.4524840000000 1.0
C      1  0.5650150000000  0.4543280000000  0.4717150000000 1.0
C      1  0.5473070000000  0.5474690000000  0.5275460000000 1.0
C      1  0.4866560000000  0.5495790000000  0.4550420000000 1.0
C      1  0.4365710000000  0.5200260000000  0.5030020000000 1.0
C      1  0.4726930000000  0.5553620000000  0.5059930000000 1.0
C      1  0.4775760000000  0.5067180000000  0.5426380000000 1.0
C      1  0.5131560000000  0.5295080000000  0.4487200000000 1.0
C      1  0.5109060000000  0.5042240000000  0.5631410000000 1.0
C      1  0.4242710000000  0.4996940000000  0.4872900000000 1.0
C      1  0.4963090000000  0.4785890000000  0.5453910000000 1.0
C      1  0.4324560000000  0.4748240000000  0.4799310000000 1.0
C      1  0.4588260000000  0.4575160000000  0.4883230000000 1.0
C      1  0.5003610000000  0.4311570000000  0.5335020000000 1.0
C      1  0.5539110000000  0.4986410000000  0.4785320000000 1.0
C      1  0.4972420000000  0.5310360000000  0.5510580000000 1.0
C      1  0.5647750000000  0.4750070000000  0.4925320000000 1.0
C      1  0.4488130000000  0.5108700000000  0.5263230000000 1.0
C      1  0.4882940000000  0.4474040000000  0.4787930000000 1.0
C      1  0.4396910000000  0.4345120000000  0.5273760000000 1.0
C      1  0.5511660000000  0.5580080000000  0.5017760000000 1.0
END
