TITL C-2778422-5617-1477 -0.00133026658641126 125000 -330.778927226416 0 0 59 (C1) n - 1
REM
REM in /home/nfs/bkarasulu/CARBON/AIRSS/Generating-Clusters/REBO/Only-C1/SD-CG/HFTN-CG
REM
REM
REM
REM
REM
REM ./C.cell (11c1c37f851c82e70ff6c80c92926a4b)
REM
REM compiler GCC version 9.2.1 20190827 (Red Hat 9.2.1-1)
REM options -cpp -mtune=generic -march=x86-64 -g -O0 -fpre-include=/usr/include/finclude/math-vector-fortran.h
REM seed -1308080309 403073015 -1853848493 2053675459 1840474175 -992083943 -676076542 1814988675 2131104003 1882545521 1010123288 -1271596405 354985083 1901028482 -56074486 101537581 1912237777 42322636 -456850078 566917352 -1006254811 -130772635 454835132 922279244 1794065957 1165927727 -431956728 1296266926 -2070750127 326360147 -160989773 33979393 -1988249442
REM
CELL 1.54180   50.00000   50.00000   50.00000   90.00000   90.00000   90.00000
LATT -1
SFAC C  
C      1  0.5172960000000  0.4842850000000  0.5602520000000 1.0
C      1  0.4631670000000  0.4388790000000  0.5710660000000 1.0
C      1  0.5201500000000  0.4432380000000  0.5096900000000 1.0
C      1  0.5347650000000  0.5821560000000  0.4841050000000 1.0
C      1  0.5308580000000  0.5372060000000  0.4381890000000 1.0
C      1  0.4635540000000  0.4237440000000  0.5929750000000 1.0
C      1  0.4180550000000  0.4881870000000  0.5378550000000 1.0
C      1  0.4408620000000  0.4938040000000  0.5253020000000 1.0
C      1  0.4594900000000  0.5424070000000  0.4895760000000 1.0
C      1  0.5306160000000  0.5291160000000  0.4773460000000 1.0
C      1  0.4545930000000  0.4524980000000  0.5001350000000 1.0
C      1  0.4443980000000  0.5041740000000  0.4575680000000 1.0
C      1  0.5563050000000  0.4343700000000  0.4772080000000 1.0
C      1  0.4882190000000  0.4698260000000  0.4708640000000 1.0
C      1  0.4623310000000  0.4714380000000  0.5238690000000 1.0
C      1  0.5246460000000  0.4881770000000  0.5097490000000 1.0
C      1  0.5378870000000  0.4986430000000  0.5395460000000 1.0
C      1  0.5100230000000  0.5160280000000  0.5371470000000 1.0
C      1  0.5099490000000  0.5104780000000  0.4339770000000 1.0
C      1  0.4716250000000  0.4868220000000  0.4136460000000 1.0
C      1  0.4476740000000  0.5093070000000  0.5615060000000 1.0
C      1  0.4738110000000  0.5458120000000  0.5468180000000 1.0
C      1  0.4973340000000  0.4856480000000  0.4254910000000 1.0
C      1  0.4968760000000  0.5410720000000  0.4385000000000 1.0
C      1  0.5517220000000  0.4862870000000  0.4502840000000 1.0
C      1  0.4919470000000  0.4836210000000  0.5180580000000 1.0
C      1  0.4627850000000  0.4538770000000  0.5493550000000 1.0
C      1  0.5351010000000  0.5568850000000  0.5227170000000 1.0
C      1  0.4432520000000  0.4710760000000  0.4563830000000 1.0
C      1  0.5007940000000  0.4660020000000  0.4457790000000 1.0
C      1  0.4499810000000  0.5307150000000  0.5428600000000 1.0
C      1  0.4679250000000  0.4909010000000  0.5634020000000 1.0
C      1  0.4438010000000  0.5231600000000  0.5129320000000 1.0
C      1  0.4483190000000  0.4873030000000  0.4291740000000 1.0
C      1  0.5680020000000  0.4394170000000  0.4531960000000 1.0
C      1  0.5757960000000  0.4860770000000  0.5292550000000 1.0
C      1  0.5355500000000  0.5204640000000  0.5063900000000 1.0
C      1  0.5663670000000  0.4640000000000  0.4412870000000 1.0
C      1  0.4898400000000  0.4969840000000  0.4869770000000 1.0
C      1  0.5464970000000  0.5781270000000  0.5088840000000 1.0
C      1  0.5065460000000  0.5523530000000  0.5099440000000 1.0
C      1  0.4618540000000  0.4584780000000  0.4735940000000 1.0
C      1  0.4954360000000  0.5292750000000  0.5559580000000 1.0
C      1  0.4715280000000  0.5167350000000  0.4713060000000 1.0
C      1  0.5756640000000  0.5115940000000  0.5386460000000 1.0
C      1  0.4333620000000  0.5228150000000  0.4806070000000 1.0
C      1  0.5632280000000  0.4672140000000  0.5151160000000 1.0
C      1  0.5208370000000  0.5076070000000  0.4637140000000 1.0
C      1  0.4838450000000  0.5481210000000  0.4664470000000 1.0
C      1  0.5509400000000  0.5108610000000  0.4377570000000 1.0
C      1  0.5016820000000  0.5204660000000  0.5062370000000 1.0
C      1  0.5500780000000  0.5301700000000  0.5330620000000 1.0
C      1  0.5063490000000  0.5633780000000  0.4806250000000 1.0
C      1  0.4832580000000  0.5639280000000  0.5270580000000 1.0
C      1  0.5418630000000  0.4549860000000  0.4957090000000 1.0
C      1  0.4914920000000  0.4830300000000  0.5503250000000 1.0
C      1  0.4639340000000  0.4088500000000  0.6145350000000 1.0
C      1  0.5318980000000  0.4804340000000  0.4774020000000 1.0
C      1  0.5340430000000  0.5574950000000  0.4626440000000 1.0
END
