TITL C-2778423-5760-604 -0.00120956972991012 125000 -233.843851117308 0 0 42 (C1) n - 1
REM
REM in /home/nfs/bkarasulu/CARBON/AIRSS/Generating-Clusters/REBO/Only-C1/SD-CG/HFTN-CG
REM
REM
REM
REM
REM
REM ./C.cell (11c1c37f851c82e70ff6c80c92926a4b)
REM
REM compiler GCC version 9.2.1 20190827 (Red Hat 9.2.1-1)
REM options -cpp -mtune=generic -march=x86-64 -g -O0 -fpre-include=/usr/include/finclude/math-vector-fortran.h
REM seed -1687653124 1179258380 697780638 -1111890875 1479342918 -1245645516 70211996 -1780010129 -1279268852 1608729386 -308233177 249862551 536048178 1438131580 1646588322 -1680251744 785071384 1502841104 1001418287 375410530 1119687369 1965579067 -1028563389 1811458300 1292594993 1052088953 1772969488 2072810194 -792156973 903553910 -1783619209 702663725 1814528586
REM
CELL 1.54180   50.00000   50.00000   50.00000   90.00000   90.00000   90.00000
LATT -1
SFAC C  
C      1  0.4575110000000  0.5420750000000  0.5223920000000 1.0
C      1  0.4996170000000  0.5095060000000  0.4373820000000 1.0
C      1  0.4861560000000  0.4858610000000  0.4752900000000 1.0
C      1  0.4562610000000  0.5523770000000  0.4422110000000 1.0
C      1  0.5243470000000  0.5193160000000  0.5010200000000 1.0
C      1  0.4664740000000  0.4926050000000  0.5151270000000 1.0
C      1  0.5010670000000  0.5313690000000  0.4541660000000 1.0
C      1  0.4784020000000  0.4961030000000  0.5676900000000 1.0
C      1  0.4616510000000  0.5523660000000  0.4934370000000 1.0
C      1  0.5413010000000  0.5637200000000  0.5265360000000 1.0
C      1  0.5266480000000  0.5335760000000  0.4717170000000 1.0
C      1  0.5432920000000  0.4716430000000  0.4396250000000 1.0
C      1  0.5471760000000  0.4994520000000  0.5046640000000 1.0
C      1  0.4983430000000  0.4295900000000  0.5023740000000 1.0
C      1  0.5350610000000  0.4526390000000  0.5307900000000 1.0
C      1  0.4976390000000  0.5044030000000  0.5082020000000 1.0
C      1  0.5446040000000  0.4825620000000  0.5261440000000 1.0
C      1  0.5042860000000  0.5014740000000  0.5595500000000 1.0
C      1  0.5213550000000  0.5417140000000  0.5227270000000 1.0
C      1  0.4843940000000  0.5419690000000  0.5367850000000 1.0
C      1  0.4414960000000  0.5200950000000  0.5298340000000 1.0
C      1  0.4566780000000  0.4962900000000  0.5477160000000 1.0
C      1  0.5179240000000  0.4780870000000  0.5462120000000 1.0
C      1  0.5156370000000  0.4638270000000  0.4404510000000 1.0
C      1  0.4719330000000  0.5432090000000  0.4629920000000 1.0
C      1  0.4318260000000  0.4929960000000  0.5168560000000 1.0
C      1  0.5352130000000  0.5605310000000  0.4740760000000 1.0
C      1  0.4793250000000  0.5180320000000  0.4846160000000 1.0
C      1  0.5216650000000  0.4333330000000  0.5158750000000 1.0
C      1  0.4739760000000  0.4401670000000  0.4964050000000 1.0
C      1  0.4591300000000  0.4615070000000  0.5032900000000 1.0
C      1  0.4962450000000  0.4615090000000  0.5285050000000 1.0
C      1  0.4976320000000  0.4719670000000  0.5014090000000 1.0
C      1  0.4927710000000  0.5435990000000  0.5038110000000 1.0
C      1  0.4725830000000  0.4541010000000  0.5401500000000 1.0
C      1  0.4431010000000  0.4656090000000  0.5328360000000 1.0
C      1  0.5585360000000  0.4948570000000  0.4791740000000 1.0
C      1  0.5463940000000  0.5008490000000  0.4343670000000 1.0
C      1  0.5078370000000  0.5276580000000  0.5500010000000 1.0
C      1  0.5489180000000  0.5147620000000  0.4596880000000 1.0
C      1  0.4966350000000  0.4834740000000  0.4489800000000 1.0
C      1  0.5589570000000  0.4692220000000  0.4649270000000 1.0
END
