TITL C-2778426-5645-1215 0.012682115656291 125000 -326.816811528996 0 0 57 (C1) n - 1
REM
REM in /home/nfs/bkarasulu/CARBON/AIRSS/Generating-Clusters/REBO/Only-C1/SD-CG/HFTN-CG
REM
REM
REM
REM
REM
REM ./C.cell (11c1c37f851c82e70ff6c80c92926a4b)
REM
REM compiler GCC version 9.2.1 20190827 (Red Hat 9.2.1-1)
REM options -cpp -mtune=generic -march=x86-64 -g -O0 -fpre-include=/usr/include/finclude/math-vector-fortran.h
REM seed 1394709580 -61040296 -1038466391 1502196281 812203633 1765205178 -1948494525 1034092890 -47617154 -105386281 122397970 -899738657 178562148 -281498876 -1538164292 -42422165 864358674 1587575363 2288531 805409205 672999183 -117713117 1976716968 1223162127 -813298462 -558183673 -90816394 1341943207 457613677 196224794 -1105200666 -1310185933 -59238709
REM
CELL 1.54180   50.00000   50.00000   50.00000   90.00000   90.00000   90.00000
LATT -1
SFAC C  
C      1  0.4478160000000  0.4749870000000  0.4528370000000 1.0
C      1  0.5206780000000  0.5201360000000  0.5029700000000 1.0
C      1  0.4793820000000  0.5652100000000  0.4664560000000 1.0
C      1  0.5703330000000  0.4942710000000  0.4517590000000 1.0
C      1  0.5485490000000  0.4570500000000  0.4770100000000 1.0
C      1  0.4337730000000  0.4670590000000  0.5045900000000 1.0
C      1  0.4865290000000  0.5216640000000  0.5758950000000 1.0
C      1  0.5221070000000  0.5220520000000  0.4349740000000 1.0
C      1  0.5150900000000  0.4424360000000  0.4441380000000 1.0
C      1  0.4900040000000  0.4447700000000  0.4562350000000 1.0
C      1  0.5143970000000  0.5263120000000  0.5619250000000 1.0
C      1  0.5621750000000  0.4532520000000  0.5059650000000 1.0
C      1  0.5333500000000  0.4620560000000  0.4501500000000 1.0
C      1  0.4924330000000  0.5265880000000  0.4351060000000 1.0
C      1  0.4512560000000  0.5410880000000  0.5255780000000 1.0
C      1  0.4800320000000  0.4882500000000  0.5751420000000 1.0
C      1  0.4928860000000  0.5486870000000  0.5002500000000 1.0
C      1  0.5279210000000  0.4904700000000  0.4427780000000 1.0
C      1  0.4613810000000  0.4987640000000  0.4319610000000 1.0
C      1  0.4682620000000  0.4859580000000  0.5110240000000 1.0
C      1  0.4424700000000  0.5031590000000  0.4666190000000 1.0
C      1  0.5409340000000  0.4708100000000  0.5343120000000 1.0
C      1  0.5434710000000  0.5304250000000  0.5483920000000 1.0
C      1  0.4939060000000  0.5183590000000  0.4856720000000 1.0
C      1  0.5715560000000  0.4700460000000  0.4584790000000 1.0
C      1  0.5283360000000  0.4587130000000  0.5046390000000 1.0
C      1  0.5670780000000  0.5074150000000  0.5124470000000 1.0
C      1  0.4771130000000  0.4465060000000  0.4838650000000 1.0
C      1  0.4561450000000  0.5099990000000  0.5659580000000 1.0
C      1  0.4946930000000  0.4613190000000  0.5771400000000 1.0
C      1  0.4872410000000  0.5537820000000  0.5718170000000 1.0
C      1  0.5460660000000  0.5133000000000  0.4926480000000 1.0
C      1  0.5320700000000  0.4921910000000  0.5505840000000 1.0
C      1  0.4306160000000  0.4850470000000  0.5254070000000 1.0
C      1  0.4805100000000  0.5377330000000  0.4621980000000 1.0
C      1  0.5389790000000  0.5407620000000  0.4510710000000 1.0
C      1  0.4838040000000  0.4622310000000  0.5309060000000 1.0
C      1  0.5178410000000  0.5234110000000  0.5302500000000 1.0
C      1  0.4335940000000  0.5215190000000  0.5094890000000 1.0
C      1  0.4949340000000  0.4930650000000  0.4341060000000 1.0
C      1  0.4861720000000  0.5649790000000  0.5468760000000 1.0
C      1  0.5691510000000  0.4797160000000  0.5200890000000 1.0
C      1  0.5303540000000  0.5614880000000  0.4678060000000 1.0
C      1  0.4375550000000  0.5141760000000  0.5417470000000 1.0
C      1  0.4470010000000  0.5032110000000  0.4938340000000 1.0
C      1  0.4760340000000  0.5536900000000  0.5228480000000 1.0
C      1  0.5001900000000  0.4494410000000  0.5526460000000 1.0
C      1  0.4551690000000  0.5240930000000  0.4494100000000 1.0
C      1  0.5261550000000  0.4445720000000  0.5447400000000 1.0
C      1  0.5487490000000  0.5129160000000  0.4628750000000 1.0
C      1  0.4808920000000  0.4756370000000  0.4570680000000 1.0
C      1  0.4659830000000  0.4862050000000  0.5440510000000 1.0
C      1  0.4871630000000  0.4879170000000  0.4845960000000 1.0
C      1  0.4986160000000  0.4614830000000  0.5029620000000 1.0
C      1  0.4505920000000  0.4586100000000  0.4824890000000 1.0
C      1  0.5127600000000  0.5652470000000  0.4884660000000 1.0
C      1  0.5677520000000  0.5257670000000  0.5347560000000 1.0
END
