TITL C-2778426-5645-975 -0.00143031091115341 125000 -504.739438275839 0 0 87 (C1) n - 1
REM
REM in /home/nfs/bkarasulu/CARBON/AIRSS/Generating-Clusters/REBO/Only-C1/SD-CG/HFTN-CG
REM
REM
REM
REM
REM
REM ./C.cell (11c1c37f851c82e70ff6c80c92926a4b)
REM
REM compiler GCC version 9.2.1 20190827 (Red Hat 9.2.1-1)
REM options -cpp -mtune=generic -march=x86-64 -g -O0 -fpre-include=/usr/include/finclude/math-vector-fortran.h
REM seed 104330989 1998378301 1822242985 2091006622 -1430375530 -2025056854 -1073869954 -1912147743 10851004 1547754698 2081228283 -1144925745 -74126205 908415760 -235391771 -238101815 -1394910652 1642711802 -1376058451 373187978 -1851266159 1437841615 -1390444052 -614201376 1295144570 1679831921 20005359 -2135443084 508430916 -1011358644 -640203019 -1433691285 415983340
REM
CELL 1.54180   50.00000   50.00000   50.00000   90.00000   90.00000   90.00000
LATT -1
SFAC C  
C      1  0.4489350000000  0.4332260000000  0.5389120000000 1.0
C      1  0.5780580000000  0.5507000000000  0.4654520000000 1.0
C      1  0.4829020000000  0.5596730000000  0.4527340000000 1.0
C      1  0.5484320000000  0.4424900000000  0.5300710000000 1.0
C      1  0.5188090000000  0.5903530000000  0.4914120000000 1.0
C      1  0.4906790000000  0.4801920000000  0.4265160000000 1.0
C      1  0.4265320000000  0.5293870000000  0.4505250000000 1.0
C      1  0.5004710000000  0.4936070000000  0.5838280000000 1.0
C      1  0.5345960000000  0.5215140000000  0.4726240000000 1.0
C      1  0.5135070000000  0.5636170000000  0.4538350000000 1.0
C      1  0.5179500000000  0.5006570000000  0.5201920000000 1.0
C      1  0.5604480000000  0.5419590000000  0.4427490000000 1.0
C      1  0.5610020000000  0.5334760000000  0.5331820000000 1.0
C      1  0.4648680000000  0.5667250000000  0.4749790000000 1.0
C      1  0.4747510000000  0.5053860000000  0.4349700000000 1.0
C      1  0.5201150000000  0.5063760000000  0.5517100000000 1.0
C      1  0.4529310000000  0.5058260000000  0.5581140000000 1.0
C      1  0.5879740000000  0.4818790000000  0.5103740000000 1.0
C      1  0.4775280000000  0.4861030000000  0.5609410000000 1.0
C      1  0.4793600000000  0.4272850000000  0.4875450000000 1.0
C      1  0.4655340000000  0.4906210000000  0.5049570000000 1.0
C      1  0.4944080000000  0.5217850000000  0.5656970000000 1.0
C      1  0.5717290000000  0.4537440000000  0.4995830000000 1.0
C      1  0.5438570000000  0.5625720000000  0.5319030000000 1.0
C      1  0.4466650000000  0.5004530000000  0.5272770000000 1.0
C      1  0.4509080000000  0.5292550000000  0.4742200000000 1.0
C      1  0.4833580000000  0.5634860000000  0.5597820000000 1.0
C      1  0.4456010000000  0.5014270000000  0.4460320000000 1.0
C      1  0.4966890000000  0.4444290000000  0.4699400000000 1.0
C      1  0.4346140000000  0.5580750000000  0.4669400000000 1.0
C      1  0.5404340000000  0.5404720000000  0.5073410000000 1.0
C      1  0.5169830000000  0.4719370000000  0.4355810000000 1.0
C      1  0.4536820000000  0.4403540000000  0.4916930000000 1.0
C      1  0.4452100000000  0.4522480000000  0.5600760000000 1.0
C      1  0.5199580000000  0.4338870000000  0.5145790000000 1.0
C      1  0.4217300000000  0.4901910000000  0.4979680000000 1.0
C      1  0.4941550000000  0.5832480000000  0.5785520000000 1.0
C      1  0.4526460000000  0.4473930000000  0.4160840000000 1.0
C      1  0.5390850000000  0.4892180000000  0.4328760000000 1.0
C      1  0.5533400000000  0.5104260000000  0.4489910000000 1.0
C      1  0.4744130000000  0.5294430000000  0.4153900000000 1.0
C      1  0.4731730000000  0.5528780000000  0.4253020000000 1.0
C      1  0.4736820000000  0.5653230000000  0.5056070000000 1.0
C      1  0.4635100000000  0.5357690000000  0.5614750000000 1.0
C      1  0.4597440000000  0.5588870000000  0.5362390000000 1.0
C      1  0.5317140000000  0.5747260000000  0.4716410000000 1.0
C      1  0.4920910000000  0.4203510000000  0.5121630000000 1.0
C      1  0.4699400000000  0.4578930000000  0.5736560000000 1.0
C      1  0.5503680000000  0.5167710000000  0.5576730000000 1.0
C      1  0.4239290000000  0.4693500000000  0.5173680000000 1.0
C      1  0.5698010000000  0.4843190000000  0.5456120000000 1.0
C      1  0.4926920000000  0.4838770000000  0.5333210000000 1.0
C      1  0.5448450000000  0.4433040000000  0.4658740000000 1.0
C      1  0.5073360000000  0.5335660000000  0.4620950000000 1.0
C      1  0.4782960000000  0.5191300000000  0.4645090000000 1.0
C      1  0.5094730000000  0.5296970000000  0.5078200000000 1.0
C      1  0.5496720000000  0.5512710000000  0.4800770000000 1.0
C      1  0.4762700000000  0.4248060000000  0.5366110000000 1.0
C      1  0.4590940000000  0.4680170000000  0.4810440000000 1.0
C      1  0.5333580000000  0.5010220000000  0.4940730000000 1.0
C      1  0.4642810000000  0.5341040000000  0.5154650000000 1.0
C      1  0.4929380000000  0.4721610000000  0.4859370000000 1.0
C      1  0.4390400000000  0.5195910000000  0.5013500000000 1.0
C      1  0.4330700000000  0.4790430000000  0.5487030000000 1.0
C      1  0.5424450000000  0.4835790000000  0.5609480000000 1.0
C      1  0.5686020000000  0.4550060000000  0.4586540000000 1.0
C      1  0.4984660000000  0.4463580000000  0.5458810000000 1.0
C      1  0.5300550000000  0.4550190000000  0.5550400000000 1.0
C      1  0.4375420000000  0.4528990000000  0.4383640000000 1.0
C      1  0.5941890000000  0.5272560000000  0.4708170000000 1.0
C      1  0.5038900000000  0.4605700000000  0.5762400000000 1.0
C      1  0.4366060000000  0.4425710000000  0.5142160000000 1.0
C      1  0.5197800000000  0.4490850000000  0.4536270000000 1.0
C      1  0.4973690000000  0.5459560000000  0.5341680000000 1.0
C      1  0.4759760000000  0.4610480000000  0.4117110000000 1.0
C      1  0.4991230000000  0.4596540000000  0.5144900000000 1.0
C      1  0.4920680000000  0.5061170000000  0.4903250000000 1.0
C      1  0.5779440000000  0.5076800000000  0.5290310000000 1.0
C      1  0.5822190000000  0.4776430000000  0.4774300000000 1.0
C      1  0.5165790000000  0.5715170000000  0.5358710000000 1.0
C      1  0.5456450000000  0.4367140000000  0.4958530000000 1.0
C      1  0.5014040000000  0.5801830000000  0.5114580000000 1.0
C      1  0.4213630000000  0.5019910000000  0.4702120000000 1.0
C      1  0.4833240000000  0.5149850000000  0.5338890000000 1.0
C      1  0.4436210000000  0.4723640000000  0.4563220000000 1.0
C      1  0.5811410000000  0.5037880000000  0.4635850000000 1.0
C      1  0.5774840000000  0.4570660000000  0.5321250000000 1.0
END
