TITL C-2778428-5639-1164 -0.0603791024044079 125000 -339.409589450187 0 0 59 (C1) n - 1
REM
REM in /home/nfs/bkarasulu/CARBON/AIRSS/Generating-Clusters/REBO/Only-C1/SD-CG/HFTN-CG
REM
REM
REM
REM
REM
REM ./C.cell (11c1c37f851c82e70ff6c80c92926a4b)
REM
REM compiler GCC version 9.2.1 20190827 (Red Hat 9.2.1-1)
REM options -cpp -mtune=generic -march=x86-64 -g -O0 -fpre-include=/usr/include/finclude/math-vector-fortran.h
REM seed 1196846006 383547706 -1874966953 -2056129499 436761225 -1728250511 393054390 -810341279 1257028520 2106321051 -1358231357 -33264929 1728049710 -1022873924 -1634737041 -725552828 -1819500532 214009864 1636514685 813312532 1753164905 1078468843 1418255836 1642409780 -661976546 1296397074 1158868813 1073951332 -567289580 -1611893440 1112873736 1236510272 1823142647
REM
CELL 1.54180   50.00000   50.00000   50.00000   90.00000   90.00000   90.00000
LATT -1
SFAC C  
C      1  0.5281500000000  0.5733080000000  0.5109810000000 1.0
C      1  0.5020050000000  0.5157870000000  0.5295770000000 1.0
C      1  0.4464630000000  0.5307130000000  0.5385310000000 1.0
C      1  0.4638730000000  0.4486310000000  0.4638980000000 1.0
C      1  0.4032990000000  0.4499150000000  0.5154620000000 1.0
C      1  0.5140830000000  0.5154080000000  0.4809820000000 1.0
C      1  0.4794780000000  0.5303650000000  0.5748330000000 1.0
C      1  0.5068490000000  0.4585240000000  0.5471070000000 1.0
C      1  0.4721730000000  0.4698020000000  0.4404490000000 1.0
C      1  0.4417580000000  0.5046170000000  0.5536860000000 1.0
C      1  0.5682870000000  0.4997070000000  0.5326290000000 1.0
C      1  0.5770800000000  0.5005790000000  0.4699420000000 1.0
C      1  0.4940610000000  0.4618620000000  0.4652020000000 1.0
C      1  0.4967310000000  0.5482500000000  0.4395560000000 1.0
C      1  0.5235820000000  0.4399180000000  0.5576760000000 1.0
C      1  0.4743380000000  0.4964140000000  0.4345970000000 1.0
C      1  0.5047280000000  0.4265820000000  0.5168460000000 1.0
C      1  0.5708750000000  0.4752670000000  0.4640060000000 1.0
C      1  0.4801920000000  0.4356680000000  0.5118140000000 1.0
C      1  0.5351030000000  0.4960570000000  0.4512900000000 1.0
C      1  0.5246150000000  0.4504450000000  0.4621080000000 1.0
C      1  0.5713100000000  0.5318350000000  0.4577740000000 1.0
C      1  0.5306720000000  0.4350460000000  0.5186490000000 1.0
C      1  0.5264150000000  0.5118810000000  0.5105970000000 1.0
C      1  0.4582600000000  0.5216530000000  0.5079500000000 1.0
C      1  0.5598470000000  0.5555990000000  0.4784700000000 1.0
C      1  0.4364610000000  0.5476220000000  0.5107780000000 1.0
C      1  0.5042590000000  0.4664650000000  0.5197720000000 1.0
C      1  0.4192590000000  0.4893160000000  0.5479770000000 1.0
C      1  0.5554940000000  0.4526140000000  0.4587630000000 1.0
C      1  0.4797990000000  0.5014020000000  0.5098440000000 1.0
C      1  0.4737460000000  0.4691820000000  0.5099890000000 1.0
C      1  0.5216150000000  0.5358480000000  0.4579680000000 1.0
C      1  0.4882470000000  0.5140200000000  0.4587300000000 1.0
C      1  0.5259640000000  0.4816400000000  0.5013600000000 1.0
C      1  0.4263620000000  0.4440070000000  0.5006200000000 1.0
C      1  0.4914570000000  0.4746720000000  0.5642140000000 1.0
C      1  0.5356920000000  0.5692020000000  0.4834290000000 1.0
C      1  0.4868270000000  0.5633810000000  0.4893550000000 1.0
C      1  0.5291420000000  0.4796420000000  0.4715370000000 1.0
C      1  0.5702430000000  0.5260940000000  0.4914720000000 1.0
C      1  0.5451590000000  0.5797180000000  0.5310500000000 1.0
C      1  0.5435580000000  0.4601600000000  0.5177080000000 1.0
C      1  0.4651510000000  0.4935230000000  0.5637480000000 1.0
C      1  0.4925120000000  0.5462650000000  0.5338200000000 1.0
C      1  0.5460470000000  0.5264060000000  0.4421980000000 1.0
C      1  0.5558760000000  0.5174770000000  0.5158590000000 1.0
C      1  0.5407490000000  0.5011220000000  0.4203120000000 1.0
C      1  0.4702460000000  0.5451410000000  0.5522890000000 1.0
C      1  0.4058640000000  0.4702970000000  0.5346250000000 1.0
C      1  0.4553040000000  0.4471050000000  0.4927550000000 1.0
C      1  0.5079220000000  0.5647170000000  0.4666470000000 1.0
C      1  0.4962730000000  0.5067830000000  0.5596400000000 1.0
C      1  0.4778140000000  0.5276270000000  0.4291910000000 1.0
C      1  0.5006660000000  0.5650990000000  0.5144240000000 1.0
C      1  0.3798430000000  0.4367080000000  0.5115460000000 1.0
C      1  0.4622040000000  0.5505780000000  0.4902810000000 1.0
C      1  0.5642430000000  0.4724110000000  0.5325150000000 1.0
C      1  0.4917760000000  0.4899200000000  0.4809750000000 1.0
END
