TITL C-2778435-5768-76 -0.00192627038136801 125000 -176.784566514186 0 0 32 (C1) n - 1
REM
REM in /home/nfs/bkarasulu/CARBON/AIRSS/Generating-Clusters/REBO/Only-C1/SD-CG/HFTN-CG
REM
REM
REM
REM
REM
REM ./C.cell (11c1c37f851c82e70ff6c80c92926a4b)
REM
REM compiler GCC version 9.2.1 20190827 (Red Hat 9.2.1-1)
REM options -cpp -mtune=generic -march=x86-64 -g -O0 -fpre-include=/usr/include/finclude/math-vector-fortran.h
REM seed 474819972 386253657 1829899251 -2043045046 1305968614 1377371621 -1914436393 1209461051 38740725 616249985 888768893 2142616032 -1625107148 -672265739 1624732867 1564445583 1318093213 -205024086 585312549 2010124539 -1365321080 -638635697 -1590691307 1328296717 -1315705747 -613122988 217376645 901293931 -745076532 -1373034153 -264467820 1772250204 -729089052
REM
CELL 1.54180   50.00000   50.00000   50.00000   90.00000   90.00000   90.00000
LATT -1
SFAC C  
C      1  0.4915920000000  0.5073140000000  0.5511580000000 1.0
C      1  0.5296700000000  0.5237640000000  0.4540470000000 1.0
C      1  0.4835000000000  0.4427640000000  0.4599160000000 1.0
C      1  0.5236160000000  0.4567300000000  0.4894350000000 1.0
C      1  0.4502850000000  0.4919940000000  0.5322090000000 1.0
C      1  0.5357910000000  0.4996990000000  0.4774740000000 1.0
C      1  0.4692100000000  0.5167270000000  0.4734020000000 1.0
C      1  0.5041790000000  0.4506510000000  0.5168080000000 1.0
C      1  0.4864880000000  0.5451370000000  0.4728850000000 1.0
C      1  0.4775920000000  0.4949750000000  0.4928620000000 1.0
C      1  0.4995380000000  0.4829930000000  0.5603720000000 1.0
C      1  0.4419200000000  0.5187500000000  0.4682490000000 1.0
C      1  0.5418640000000  0.5142440000000  0.5476470000000 1.0
C      1  0.4922580000000  0.5452300000000  0.5212780000000 1.0
C      1  0.5384790000000  0.4567830000000  0.5181470000000 1.0
C      1  0.5407620000000  0.5324450000000  0.4851010000000 1.0
C      1  0.5276630000000  0.5592270000000  0.4923830000000 1.0
C      1  0.5325170000000  0.5100400000000  0.5094210000000 1.0
C      1  0.4993780000000  0.5559090000000  0.4960740000000 1.0
C      1  0.4748720000000  0.4513510000000  0.5088660000000 1.0
C      1  0.5025930000000  0.4834200000000  0.4871740000000 1.0
C      1  0.4914430000000  0.5140030000000  0.4488640000000 1.0
C      1  0.5180930000000  0.4667670000000  0.5431960000000 1.0
C      1  0.4645740000000  0.5139060000000  0.5437790000000 1.0
C      1  0.5075230000000  0.4625570000000  0.4607980000000 1.0
C      1  0.5126400000000  0.5242490000000  0.5333210000000 1.0
C      1  0.4701470000000  0.4380100000000  0.4837530000000 1.0
C      1  0.4657460000000  0.5395370000000  0.5306540000000 1.0
C      1  0.5044790000000  0.5433520000000  0.4476200000000 1.0
C      1  0.4629530000000  0.4781000000000  0.5108310000000 1.0
C      1  0.5427630000000  0.4870080000000  0.5314080000000 1.0
C      1  0.5158730000000  0.4923650000000  0.4508710000000 1.0
END
