TITL C-2778436-5916-1097 0.000362804789844968 125000 -384.329690061048 0 0 66 (C1) n - 1
REM
REM in /home/nfs/bkarasulu/CARBON/AIRSS/Generating-Clusters/REBO/Only-C1/SD-CG/HFTN-CG
REM
REM
REM
REM
REM
REM ./C.cell (11c1c37f851c82e70ff6c80c92926a4b)
REM
REM compiler GCC version 9.2.1 20190827 (Red Hat 9.2.1-1)
REM options -cpp -mtune=generic -march=x86-64 -g -O0 -fpre-include=/usr/include/finclude/math-vector-fortran.h
REM seed 1032055930 -1763522887 -1485254883 1149548362 -1709503217 -1160406470 27234242 -554734092 -68365443 -1839424385 -1457973958 2090536760 375804095 -587296073 -1899976202 -207027611 -68007810 1266113597 -1244376255 -688851548 -1151055862 -776348016 -328146284 1180436078 2022090728 -974739690 -861675685 306465626 -906492710 -1443823102 501981071 -893044700 285533038
REM
CELL 1.54180   50.00000   50.00000   50.00000   90.00000   90.00000   90.00000
LATT -1
SFAC C  
C      1  0.4724520000000  0.4516410000000  0.5601810000000 1.0
C      1  0.5448970000000  0.4742000000000  0.5534400000000 1.0
C      1  0.4686110000000  0.4860400000000  0.4894770000000 1.0
C      1  0.5305060000000  0.4461220000000  0.4665940000000 1.0
C      1  0.4975640000000  0.4881850000000  0.5880290000000 1.0
C      1  0.5631470000000  0.5070310000000  0.5188070000000 1.0
C      1  0.5520800000000  0.4635030000000  0.4478720000000 1.0
C      1  0.5425920000000  0.5461430000000  0.5384270000000 1.0
C      1  0.4800970000000  0.4884520000000  0.4513900000000 1.0
C      1  0.5605960000000  0.4940580000000  0.4914180000000 1.0
C      1  0.4645990000000  0.5143450000000  0.4776280000000 1.0
C      1  0.5107040000000  0.5242830000000  0.5025670000000 1.0
C      1  0.5237440000000  0.4741770000000  0.4389320000000 1.0
C      1  0.5053580000000  0.4362930000000  0.4731240000000 1.0
C      1  0.4822850000000  0.4392420000000  0.4585550000000 1.0
C      1  0.5033470000000  0.5490090000000  0.5499860000000 1.0
C      1  0.4654270000000  0.4437730000000  0.5020400000000 1.0
C      1  0.4789460000000  0.5326590000000  0.4979250000000 1.0
C      1  0.5600170000000  0.5358210000000  0.5180870000000 1.0
C      1  0.4388620000000  0.4839380000000  0.5363840000000 1.0
C      1  0.4836560000000  0.5135390000000  0.5865660000000 1.0
C      1  0.4729560000000  0.5126690000000  0.4387730000000 1.0
C      1  0.5379290000000  0.4499450000000  0.5410190000000 1.0
C      1  0.5228640000000  0.4939010000000  0.5699530000000 1.0
C      1  0.5180930000000  0.4972010000000  0.4860710000000 1.0
C      1  0.5217620000000  0.4883820000000  0.4144180000000 1.0
C      1  0.4862460000000  0.5036900000000  0.5390350000000 1.0
C      1  0.4840540000000  0.4636160000000  0.5828340000000 1.0
C      1  0.4886100000000  0.5625730000000  0.5222400000000 1.0
C      1  0.5530520000000  0.5426320000000  0.4910270000000 1.0
C      1  0.5123800000000  0.4768060000000  0.5108960000000 1.0
C      1  0.4642420000000  0.4638810000000  0.4640260000000 1.0
C      1  0.4993830000000  0.4358400000000  0.5036990000000 1.0
C      1  0.4856450000000  0.5253360000000  0.5618380000000 1.0
C      1  0.4943250000000  0.5286560000000  0.4284610000000 1.0
C      1  0.5075180000000  0.4851730000000  0.4591340000000 1.0
C      1  0.4480550000000  0.5266190000000  0.4530180000000 1.0
C      1  0.5062480000000  0.4788330000000  0.5444600000000 1.0
C      1  0.4819410000000  0.4701260000000  0.5139730000000 1.0
C      1  0.5432290000000  0.4980810000000  0.5360650000000 1.0
C      1  0.4432100000000  0.5288450000000  0.5151630000000 1.0
C      1  0.5437350000000  0.5168160000000  0.4754310000000 1.0
C      1  0.5035270000000  0.5605780000000  0.4671630000000 1.0
C      1  0.5269450000000  0.5265570000000  0.5613960000000 1.0
C      1  0.5298320000000  0.4501930000000  0.5090820000000 1.0
C      1  0.5210340000000  0.5164740000000  0.4194120000000 1.0
C      1  0.5145000000000  0.5431010000000  0.4480780000000 1.0
C      1  0.4774420000000  0.5706590000000  0.4621010000000 1.0
C      1  0.5073020000000  0.4462590000000  0.5418190000000 1.0
C      1  0.4531430000000  0.5723350000000  0.4832690000000 1.0
C      1  0.5514320000000  0.4613760000000  0.4877680000000 1.0
C      1  0.4685350000000  0.5073750000000  0.5165130000000 1.0
C      1  0.5608240000000  0.4965670000000  0.4455650000000 1.0
C      1  0.4293130000000  0.5004960000000  0.5150690000000 1.0
C      1  0.4275670000000  0.5044060000000  0.4664450000000 1.0
C      1  0.4598080000000  0.5572700000000  0.5087090000000 1.0
C      1  0.4272410000000  0.4867820000000  0.4892520000000 1.0
C      1  0.5106430000000  0.5568170000000  0.4964090000000 1.0
C      1  0.4631400000000  0.4699980000000  0.5387940000000 1.0
C      1  0.5217020000000  0.5666030000000  0.5270410000000 1.0
C      1  0.4488510000000  0.5565450000000  0.4551410000000 1.0
C      1  0.5754430000000  0.4759290000000  0.4683790000000 1.0
C      1  0.5414380000000  0.5225460000000  0.4441410000000 1.0
C      1  0.4796450000000  0.4343300000000  0.5315960000000 1.0
C      1  0.5160680000000  0.5152240000000  0.5316530000000 1.0
C      1  0.4396630000000  0.4595030000000  0.4862420000000 1.0
END
