TITL C-2778434-4341-500 -0.00711085723525653 125000 -943.702366010447 0 0 161 (C1) n - 1
REM
REM in /home/nfs/bkarasulu/CARBON/AIRSS/Generating-Clusters/REBO/Only-C1/SD-CG/HFTN-CG
REM
REM
REM
REM
REM
REM ./C.cell (11c1c37f851c82e70ff6c80c92926a4b)
REM
REM compiler GCC version 9.2.1 20190827 (Red Hat 9.2.1-1)
REM options -cpp -mtune=generic -march=x86-64 -g -O0 -fpre-include=/usr/include/finclude/math-vector-fortran.h
REM seed 1560515831 94267451 781232524 2136303657 1107844104 482015694 -740271038 -1887015459 2013779283 2083700821 -1324568779 -382548568 -1952056885 -1841442973 -1558435423 -1105827666 -1456769035 -607094139 -995387447 2100190128 242033049 1202620034 1224446548 -1417700814 -487150164 1222784242 1433886063 2142484622 -256615954 -1581135624 -930616994 -344287954 510310228
REM
CELL 1.54180   50.00000   50.00000   50.00000   90.00000   90.00000   90.00000
LATT -1
SFAC C  
C      1  0.5266380000000  0.5047700000000  0.5276310000000 1.0
C      1  0.5410320000000  0.4807990000000  0.5417490000000 1.0
C      1  0.4514330000000  0.5130760000000  0.5415290000000 1.0
C      1  0.5597280000000  0.5321600000000  0.5073430000000 1.0
C      1  0.5498280000000  0.4195060000000  0.5202950000000 1.0
C      1  0.5889710000000  0.5371490000000  0.4897850000000 1.0
C      1  0.3997170000000  0.4939250000000  0.4489170000000 1.0
C      1  0.6154740000000  0.4810950000000  0.4789830000000 1.0
C      1  0.4471610000000  0.5714800000000  0.4764180000000 1.0
C      1  0.4977980000000  0.4955020000000  0.4185180000000 1.0
C      1  0.5380940000000  0.5967580000000  0.5152450000000 1.0
C      1  0.4349870000000  0.4225120000000  0.5480150000000 1.0
C      1  0.4592040000000  0.4115780000000  0.5267810000000 1.0
C      1  0.5106800000000  0.4009800000000  0.4921200000000 1.0
C      1  0.5792840000000  0.4380360000000  0.4672240000000 1.0
C      1  0.4712720000000  0.4334770000000  0.5788660000000 1.0
C      1  0.4657760000000  0.3972670000000  0.4736230000000 1.0
C      1  0.4640790000000  0.5243780000000  0.5140900000000 1.0
C      1  0.5450550000000  0.4769920000000  0.5745480000000 1.0
C      1  0.4724140000000  0.4361780000000  0.5453440000000 1.0
C      1  0.5187670000000  0.4512060000000  0.4182940000000 1.0
C      1  0.4392120000000  0.4409010000000  0.5691100000000 1.0
C      1  0.4294860000000  0.4929750000000  0.5484720000000 1.0
C      1  0.5321280000000  0.5309960000000  0.6025310000000 1.0
C      1  0.5870540000000  0.5612150000000  0.5094540000000 1.0
C      1  0.5779880000000  0.5029510000000  0.5080580000000 1.0
C      1  0.4470010000000  0.5056070000000  0.4943720000000 1.0
C      1  0.6008960000000  0.5063870000000  0.4830940000000 1.0
C      1  0.5173490000000  0.4828600000000  0.5057280000000 1.0
C      1  0.4482400000000  0.6074830000000  0.5192490000000 1.0
C      1  0.4653850000000  0.4578920000000  0.4477430000000 1.0
C      1  0.4836610000000  0.5655760000000  0.4300890000000 1.0
C      1  0.4958620000000  0.4570920000000  0.5830700000000 1.0
C      1  0.5608520000000  0.4368270000000  0.5444890000000 1.0
C      1  0.5985790000000  0.5265820000000  0.5471920000000 1.0
C      1  0.5205630000000  0.5913010000000  0.5444490000000 1.0
C      1  0.4797620000000  0.4424370000000  0.5134550000000 1.0
C      1  0.5656290000000  0.5793520000000  0.5051880000000 1.0
C      1  0.5348950000000  0.5479130000000  0.5195560000000 1.0
C      1  0.5547630000000  0.5623620000000  0.5731190000000 1.0
C      1  0.4641240000000  0.5064030000000  0.5664620000000 1.0
C      1  0.4288910000000  0.5063610000000  0.4453930000000 1.0
C      1  0.5365890000000  0.4156140000000  0.4488650000000 1.0
C      1  0.4935200000000  0.5266800000000  0.4974240000000 1.0
C      1  0.4487620000000  0.4643330000000  0.5282820000000 1.0
C      1  0.4625630000000  0.5480980000000  0.5787580000000 1.0
C      1  0.6046000000000  0.4510230000000  0.4744950000000 1.0
C      1  0.5170560000000  0.4560870000000  0.4506590000000 1.0
C      1  0.4815330000000  0.5039780000000  0.6116740000000 1.0
C      1  0.5209570000000  0.4783460000000  0.4054360000000 1.0
C      1  0.5401200000000  0.4593010000000  0.4675600000000 1.0
C      1  0.5582090000000  0.4115640000000  0.4662690000000 1.0
C      1  0.4900340000000  0.4335120000000  0.4819320000000 1.0
C      1  0.5510690000000  0.5193470000000  0.5451560000000 1.0
C      1  0.5432000000000  0.5739310000000  0.4830240000000 1.0
C      1  0.4934110000000  0.4718240000000  0.4590820000000 1.0
C      1  0.5526790000000  0.5325170000000  0.4740950000000 1.0
C      1  0.4187050000000  0.5555900000000  0.5299390000000 1.0
C      1  0.4149100000000  0.5815930000000  0.5451500000000 1.0
C      1  0.5466820000000  0.4597200000000  0.5265590000000 1.0
C      1  0.5094500000000  0.4134760000000  0.4617720000000 1.0
C      1  0.4917610000000  0.4359490000000  0.4128600000000 1.0
C      1  0.4797590000000  0.3961050000000  0.4976230000000 1.0
C      1  0.5225590000000  0.5596070000000  0.4368700000000 1.0
C      1  0.4112700000000  0.5474160000000  0.5023760000000 1.0
C      1  0.4456070000000  0.5568280000000  0.5516110000000 1.0
C      1  0.4380840000000  0.5231760000000  0.4703040000000 1.0
C      1  0.5441750000000  0.4356860000000  0.4300290000000 1.0
C      1  0.4945340000000  0.5884710000000  0.4820120000000 1.0
C      1  0.4615250000000  0.4780710000000  0.5001870000000 1.0
C      1  0.5515670000000  0.5323900000000  0.4341700000000 1.0
C      1  0.5270020000000  0.5380770000000  0.4109860000000 1.0
C      1  0.5164870000000  0.4324220000000  0.5023880000000 1.0
C      1  0.4372050000000  0.5992490000000  0.5457970000000 1.0
C      1  0.5742450000000  0.4819340000000  0.5639820000000 1.0
C      1  0.4084490000000  0.4484420000000  0.4967990000000 1.0
C      1  0.4584280000000  0.5205880000000  0.4361740000000 1.0
C      1  0.4556430000000  0.5791890000000  0.5039290000000 1.0
C      1  0.4734090000000  0.4321400000000  0.4333290000000 1.0
C      1  0.4714220000000  0.4853850000000  0.4018790000000 1.0
C      1  0.5060800000000  0.4942980000000  0.4779270000000 1.0
C      1  0.5336590000000  0.4472160000000  0.5621840000000 1.0
C      1  0.5520230000000  0.4846370000000  0.4655060000000 1.0
C      1  0.4790090000000  0.4106610000000  0.4511990000000 1.0
C      1  0.4949000000000  0.4928750000000  0.5655080000000 1.0
C      1  0.5057050000000  0.4580470000000  0.5229840000000 1.0
C      1  0.4670030000000  0.4664400000000  0.5570660000000 1.0
C      1  0.5879070000000  0.5510230000000  0.5357420000000 1.0
C      1  0.4301910000000  0.4704770000000  0.5715920000000 1.0
C      1  0.5073440000000  0.5454030000000  0.6006710000000 1.0
C      1  0.5278530000000  0.5671990000000  0.5626920000000 1.0
C      1  0.5208690000000  0.4237800000000  0.5407910000000 1.0
C      1  0.4797560000000  0.5308270000000  0.6010030000000 1.0
C      1  0.5672330000000  0.4507670000000  0.4394800000000 1.0
C      1  0.3946080000000  0.4688580000000  0.4794640000000 1.0
C      1  0.4934050000000  0.4075800000000  0.5273700000000 1.0
C      1  0.5144510000000  0.5893350000000  0.4357010000000 1.0
C      1  0.5632530000000  0.4245560000000  0.4944300000000 1.0
C      1  0.5818540000000  0.4625300000000  0.5452390000000 1.0
C      1  0.3974570000000  0.5214410000000  0.4976900000000 1.0
C      1  0.4720820000000  0.4963170000000  0.4559110000000 1.0
C      1  0.5052330000000  0.6025860000000  0.5177780000000 1.0
C      1  0.4178840000000  0.5009490000000  0.5043500000000 1.0
C      1  0.4580710000000  0.4879060000000  0.6100850000000 1.0
C      1  0.4817790000000  0.5244650000000  0.4683320000000 1.0
C      1  0.5146180000000  0.5677560000000  0.5005280000000 1.0
C      1  0.5066730000000  0.4634630000000  0.5525390000000 1.0
C      1  0.5497370000000  0.4914090000000  0.4129010000000 1.0
C      1  0.4659510000000  0.5474880000000  0.4512650000000 1.0
C      1  0.6004140000000  0.5194480000000  0.4132250000000 1.0
C      1  0.5044280000000  0.5370630000000  0.4487290000000 1.0
C      1  0.5289250000000  0.5105960000000  0.3967510000000 1.0
C      1  0.4144370000000  0.4847520000000  0.5266640000000 1.0
C      1  0.4922640000000  0.5845820000000  0.5622840000000 1.0
C      1  0.6089700000000  0.4623920000000  0.5039910000000 1.0
C      1  0.4770020000000  0.6049720000000  0.5037250000000 1.0
C      1  0.5256540000000  0.3978610000000  0.5201250000000 1.0
C      1  0.5413500000000  0.5017950000000  0.4433290000000 1.0
C      1  0.4757860000000  0.5776750000000  0.4609720000000 1.0
C      1  0.5260370000000  0.5188170000000  0.4905590000000 1.0
C      1  0.4180630000000  0.4562280000000  0.5218330000000 1.0
C      1  0.4642140000000  0.4629960000000  0.5911480000000 1.0
C      1  0.5361960000000  0.4556640000000  0.4974650000000 1.0
C      1  0.4792500000000  0.5213310000000  0.4125830000000 1.0
C      1  0.5902180000000  0.4747680000000  0.5211840000000 1.0
C      1  0.5255920000000  0.6019150000000  0.4835960000000 1.0
C      1  0.5798870000000  0.5205610000000  0.4614060000000 1.0
C      1  0.5586530000000  0.5502170000000  0.5438780000000 1.0
C      1  0.5716240000000  0.4777270000000  0.4314230000000 1.0
C      1  0.4039880000000  0.4832390000000  0.4183730000000 1.0
C      1  0.5301550000000  0.4997820000000  0.5899220000000 1.0
C      1  0.4277810000000  0.4765400000000  0.4127080000000 1.0
C      1  0.4536880000000  0.4272300000000  0.4970000000000 1.0
C      1  0.4401040000000  0.4618300000000  0.3667470000000 1.0
C      1  0.5020470000000  0.5411240000000  0.5274440000000 1.0
C      1  0.4963440000000  0.5085300000000  0.5368030000000 1.0
C      1  0.5128690000000  0.5435530000000  0.5585000000000 1.0
C      1  0.5105470000000  0.5054930000000  0.4461120000000 1.0
C      1  0.5467310000000  0.5574010000000  0.4570690000000 1.0
C      1  0.5555330000000  0.5460900000000  0.5963190000000 1.0
C      1  0.4896090000000  0.5648460000000  0.5829410000000 1.0
C      1  0.5268800000000  0.5193040000000  0.5648550000000 1.0
C      1  0.4294200000000  0.5495790000000  0.4784530000000 1.0
C      1  0.4767610000000  0.4845990000000  0.5300140000000 1.0
C      1  0.3873690000000  0.4995500000000  0.4787490000000 1.0
C      1  0.5029450000000  0.4872600000000  0.5972800000000 1.0
C      1  0.4949970000000  0.5463100000000  0.4111320000000 1.0
C      1  0.4207120000000  0.4372660000000  0.4536570000000 1.0
C      1  0.4897570000000  0.5727960000000  0.5237510000000 1.0
C      1  0.4556980000000  0.4735590000000  0.3842420000000 1.0
C      1  0.4435510000000  0.4962750000000  0.5854390000000 1.0
C      1  0.5515710000000  0.4969830000000  0.4913740000000 1.0
C      1  0.5784860000000  0.5110670000000  0.4324090000000 1.0
C      1  0.4663550000000  0.5831880000000  0.5451570000000 1.0
C      1  0.5161090000000  0.6069610000000  0.4534410000000 1.0
C      1  0.4265150000000  0.4318230000000  0.4815080000000 1.0
C      1  0.4568770000000  0.5536210000000  0.5208340000000 1.0
C      1  0.5778650000000  0.5079990000000  0.5546210000000 1.0
C      1  0.4032050000000  0.4599870000000  0.4508430000000 1.0
C      1  0.4636610000000  0.4548980000000  0.4794820000000 1.0
C      1  0.4494290000000  0.4817130000000  0.4349970000000 1.0
END
