TITL C-2778437-8639-1315 -8.09699700283615e-08 125000 -75.1152329972037 0 0 14 (C1) n - 1
REM
REM in /home/nfs/bkarasulu/CARBON/AIRSS/Generating-Clusters/REBO/Only-C1/SD-CG/HFTN-CG
REM
REM
REM
REM
REM
REM ./C.cell (11c1c37f851c82e70ff6c80c92926a4b)
REM
REM compiler GCC version 9.2.1 20190827 (Red Hat 9.2.1-1)
REM options -cpp -mtune=generic -march=x86-64 -g -O0 -fpre-include=/usr/include/finclude/math-vector-fortran.h
REM seed 1757150900 -497076087 -1574049891 1283889033 -1395095422 -839324119 -1053095126 -441284012 -1640791917 -2144269054 -2046479464 -1605302541 -1088754719 -1455281120 -824710325 -1164862443 906261234 -107418940 371662516 919580507 -272161187 -1813704638 1805839341 542406484 174811362 -2008580672 -2118764838 -1674208491 -961445159 -140830914 -942999654 2047512595 1076803628
REM
CELL 1.54180   50.00000   50.00000   50.00000   90.00000   90.00000   90.00000
LATT -1
SFAC C  
C      1  0.4615900000000  0.4952630000000  0.5220010000000 1.0
C      1  0.5098580000000  0.5219570000000  0.4919870000000 1.0
C      1  0.4890880000000  0.4989790000000  0.5285970000000 1.0
C      1  0.5080310000000  0.4772070000000  0.5273410000000 1.0
C      1  0.5300140000000  0.5015110000000  0.4888750000000 1.0
C      1  0.4999870000000  0.5234270000000  0.5187050000000 1.0
C      1  0.4686700000000  0.5334600000000  0.4489920000000 1.0
C      1  0.5050580000000  0.4546670000000  0.5422870000000 1.0
C      1  0.4596660000000  0.5184160000000  0.4764080000000 1.0
C      1  0.4909160000000  0.5271690000000  0.4717990000000 1.0
C      1  0.5296380000000  0.4801340000000  0.5083450000000 1.0
C      1  0.4504280000000  0.5047990000000  0.4987360000000 1.0
C      1  0.5475290000000  0.5016100000000  0.4680540000000 1.0
C      1  0.5495270000000  0.4614000000000  0.5078740000000 1.0
END
