TITL C-2778428-5639-646 0.00375620794188218 125000 -1086.15419410246 0 0 185 (C1) n - 1
REM
REM in /home/nfs/bkarasulu/CARBON/AIRSS/Generating-Clusters/REBO/Only-C1/SD-CG/HFTN-CG
REM
REM
REM
REM
REM
REM ./C.cell (11c1c37f851c82e70ff6c80c92926a4b)
REM
REM compiler GCC version 9.2.1 20190827 (Red Hat 9.2.1-1)
REM options -cpp -mtune=generic -march=x86-64 -g -O0 -fpre-include=/usr/include/finclude/math-vector-fortran.h
REM seed 371359332 -1773679270 345610600 1437965169 -466524644 1506183109 -1000160333 1925436102 2137171876 -1958691281 1130037654 925977434 366541933 -1167837486 824423255 -1234514281 -1753974370 554351899 -1347511656 -2007029562 -1965685490 2014689068 -968573744 950447689 1709350013 1996724672 -1705237441 1928486898 -1195530699 -227783115 -1757023469 1847590600 -1414035702
REM
CELL 1.54180   50.00000   50.00000   50.00000   90.00000   90.00000   90.00000
LATT -1
SFAC C  
C      1  0.5223120000000  0.5279140000000  0.4303490000000 1.0
C      1  0.4392240000000  0.5067610000000  0.4892810000000 1.0
C      1  0.4943600000000  0.5523260000000  0.5720300000000 1.0
C      1  0.5797150000000  0.5899460000000  0.4642300000000 1.0
C      1  0.5710530000000  0.4473580000000  0.5406880000000 1.0
C      1  0.5119230000000  0.4873660000000  0.3890750000000 1.0
C      1  0.5223680000000  0.5318070000000  0.5221520000000 1.0
C      1  0.5697290000000  0.4148530000000  0.5407900000000 1.0
C      1  0.5119330000000  0.5351870000000  0.5900590000000 1.0
C      1  0.4752360000000  0.4188140000000  0.4113100000000 1.0
C      1  0.4092290000000  0.4767220000000  0.4998550000000 1.0
C      1  0.5386480000000  0.4975500000000  0.6097580000000 1.0
C      1  0.5255620000000  0.5105690000000  0.5743490000000 1.0
C      1  0.5740710000000  0.5296700000000  0.5693260000000 1.0
C      1  0.4994840000000  0.5609110000000  0.4374200000000 1.0
C      1  0.3947360000000  0.4602570000000  0.4740250000000 1.0
C      1  0.5081240000000  0.5414410000000  0.4972940000000 1.0
C      1  0.5136170000000  0.6112100000000  0.5062940000000 1.0
C      1  0.5257770000000  0.5611480000000  0.4518060000000 1.0
C      1  0.5685640000000  0.4247110000000  0.5080320000000 1.0
C      1  0.4993780000000  0.4303440000000  0.4222450000000 1.0
C      1  0.5688480000000  0.5193650000000  0.4998250000000 1.0
C      1  0.4552680000000  0.5398620000000  0.4092090000000 1.0
C      1  0.5921360000000  0.4585680000000  0.4471550000000 1.0
C      1  0.3953080000000  0.5268470000000  0.4726070000000 1.0
C      1  0.5668380000000  0.5188260000000  0.4545250000000 1.0
C      1  0.5178900000000  0.4407510000000  0.4040140000000 1.0
C      1  0.4718450000000  0.3923000000000  0.4066310000000 1.0
C      1  0.4382460000000  0.4740520000000  0.4343600000000 1.0
C      1  0.5421530000000  0.5974180000000  0.4970920000000 1.0
C      1  0.5380930000000  0.3995610000000  0.4472340000000 1.0
C      1  0.5240480000000  0.5172160000000  0.3937610000000 1.0
C      1  0.4803120000000  0.6078010000000  0.5160730000000 1.0
C      1  0.4602100000000  0.5369150000000  0.6012720000000 1.0
C      1  0.4730220000000  0.4270940000000  0.5813990000000 1.0
C      1  0.4963590000000  0.4452330000000  0.4492560000000 1.0
C      1  0.5565600000000  0.4256480000000  0.5705850000000 1.0
C      1  0.4440730000000  0.5315570000000  0.5371730000000 1.0
C      1  0.4954170000000  0.4435850000000  0.5929270000000 1.0
C      1  0.4998460000000  0.4521080000000  0.5414140000000 1.0
C      1  0.4425020000000  0.5020200000000  0.5434290000000 1.0
C      1  0.4222580000000  0.4929560000000  0.4481070000000 1.0
C      1  0.4546840000000  0.4388640000000  0.4057040000000 1.0
C      1  0.5362890000000  0.5004220000000  0.4212470000000 1.0
C      1  0.4367820000000  0.5414790000000  0.4611230000000 1.0
C      1  0.4334550000000  0.5178900000000  0.5910910000000 1.0
C      1  0.4982520000000  0.5772760000000  0.4084910000000 1.0
C      1  0.5118190000000  0.5733820000000  0.4871720000000 1.0
C      1  0.4102140000000  0.5456040000000  0.4973230000000 1.0
C      1  0.5372750000000  0.3901560000000  0.4770860000000 1.0
C      1  0.4062800000000  0.4371570000000  0.4968660000000 1.0
C      1  0.5360560000000  0.4487130000000  0.4515630000000 1.0
C      1  0.5375290000000  0.5572380000000  0.5346490000000 1.0
C      1  0.5086490000000  0.3906300000000  0.4608260000000 1.0
C      1  0.4827600000000  0.5333750000000  0.5270240000000 1.0
C      1  0.4270250000000  0.4873890000000  0.5217820000000 1.0
C      1  0.5869940000000  0.5636390000000  0.4814630000000 1.0
C      1  0.4814700000000  0.5887610000000  0.4360300000000 1.0
C      1  0.4622160000000  0.4594970000000  0.3877150000000 1.0
C      1  0.5688030000000  0.4961340000000  0.4173370000000 1.0
C      1  0.3968240000000  0.5211760000000  0.5428150000000 1.0
C      1  0.4956110000000  0.4124700000000  0.5441460000000 1.0
C      1  0.4488220000000  0.5347830000000  0.5060450000000 1.0
C      1  0.4868000000000  0.5028300000000  0.5685270000000 1.0
C      1  0.6052150000000  0.4477380000000  0.5406230000000 1.0
C      1  0.5480320000000  0.3984980000000  0.5011280000000 1.0
C      1  0.5406060000000  0.5094020000000  0.5133890000000 1.0
C      1  0.3877780000000  0.4978800000000  0.5305530000000 1.0
C      1  0.4889840000000  0.4904880000000  0.6064020000000 1.0
C      1  0.4411510000000  0.4684110000000  0.5803100000000 1.0
C      1  0.3965900000000  0.4934540000000  0.4659600000000 1.0
C      1  0.4349100000000  0.5745040000000  0.5394090000000 1.0
C      1  0.4090060000000  0.5571670000000  0.4653580000000 1.0
C      1  0.5534080000000  0.4229720000000  0.4435430000000 1.0
C      1  0.5163760000000  0.4377330000000  0.4761210000000 1.0
C      1  0.5174640000000  0.4804920000000  0.6097300000000 1.0
C      1  0.5302170000000  0.4874470000000  0.4727540000000 1.0
C      1  0.4715070000000  0.4382200000000  0.5071560000000 1.0
C      1  0.4388400000000  0.4462950000000  0.4287650000000 1.0
C      1  0.5725110000000  0.5414540000000  0.4392700000000 1.0
C      1  0.5034890000000  0.5930290000000  0.4604860000000 1.0
C      1  0.4533960000000  0.4306770000000  0.5329790000000 1.0
C      1  0.5410220000000  0.5636780000000  0.5018360000000 1.0
C      1  0.4956420000000  0.4912970000000  0.5210620000000 1.0
C      1  0.5064020000000  0.5218380000000  0.5486390000000 1.0
C      1  0.5312320000000  0.5782290000000  0.4163040000000 1.0
C      1  0.5715270000000  0.4758880000000  0.5844400000000 1.0
C      1  0.5045130000000  0.4035200000000  0.5192010000000 1.0
C      1  0.4622210000000  0.5532800000000  0.4634040000000 1.0
C      1  0.4730080000000  0.4666190000000  0.5874090000000 1.0
C      1  0.4803610000000  0.5286610000000  0.4947540000000 1.0
C      1  0.4908280000000  0.5245090000000  0.6099270000000 1.0
C      1  0.4561100000000  0.5835400000000  0.5645760000000 1.0
C      1  0.5256190000000  0.4790370000000  0.4415770000000 1.0
C      1  0.4568520000000  0.4944560000000  0.4735730000000 1.0
C      1  0.4354520000000  0.5179490000000  0.4462010000000 1.0
C      1  0.5071590000000  0.4823070000000  0.4907080000000 1.0
C      1  0.5352280000000  0.4765040000000  0.5180470000000 1.0
C      1  0.4816050000000  0.5409210000000  0.4475720000000 1.0
C      1  0.4506930000000  0.5821640000000  0.4375610000000 1.0
C      1  0.5406320000000  0.5707990000000  0.5657100000000 1.0
C      1  0.4549730000000  0.5169290000000  0.4250530000000 1.0
C      1  0.4829940000000  0.4020030000000  0.4730940000000 1.0
C      1  0.5368400000000  0.4367740000000  0.5034300000000 1.0
C      1  0.4494970000000  0.4642140000000  0.5280740000000 1.0
C      1  0.5715630000000  0.5593680000000  0.5310420000000 1.0
C      1  0.4407540000000  0.5850490000000  0.4885980000000 1.0
C      1  0.4945390000000  0.4209710000000  0.4963780000000 1.0
C      1  0.5196960000000  0.4296740000000  0.5561100000000 1.0
C      1  0.4935570000000  0.4759720000000  0.4418910000000 1.0
C      1  0.5471960000000  0.5514450000000  0.4291020000000 1.0
C      1  0.4807570000000  0.5077030000000  0.4720110000000 1.0
C      1  0.5132130000000  0.6038280000000  0.5383810000000 1.0
C      1  0.4498920000000  0.4035920000000  0.4807240000000 1.0
C      1  0.4728580000000  0.4320120000000  0.4646380000000 1.0
C      1  0.5788440000000  0.5000310000000  0.4755900000000 1.0
C      1  0.4046930000000  0.4458070000000  0.5267570000000 1.0
C      1  0.4576020000000  0.5998730000000  0.5359140000000 1.0
C      1  0.5612550000000  0.4608420000000  0.4341530000000 1.0
C      1  0.5306760000000  0.3943490000000  0.5226130000000 1.0
C      1  0.5482250000000  0.4510870000000  0.5838240000000 1.0
C      1  0.5259210000000  0.5394050000000  0.4719420000000 1.0
C      1  0.5080590000000  0.4821530000000  0.5518210000000 1.0
C      1  0.4136930000000  0.5156810000000  0.5061700000000 1.0
C      1  0.5557850000000  0.4693780000000  0.4057100000000 1.0
C      1  0.5895710000000  0.4905630000000  0.4355130000000 1.0
C      1  0.5935950000000  0.4481580000000  0.5084300000000 1.0
C      1  0.5943330000000  0.4736120000000  0.5593180000000 1.0
C      1  0.5897400000000  0.5615550000000  0.4498010000000 1.0
C      1  0.5661540000000  0.5486900000000  0.4930930000000 1.0
C      1  0.5834690000000  0.5342770000000  0.5416390000000 1.0
C      1  0.4711700000000  0.4194740000000  0.5542990000000 1.0
C      1  0.4677090000000  0.5795940000000  0.4762200000000 1.0
C      1  0.4942940000000  0.5111310000000  0.4408630000000 1.0
C      1  0.5394480000000  0.5162870000000  0.4645600000000 1.0
C      1  0.4878750000000  0.6050180000000  0.4847450000000 1.0
C      1  0.4643990000000  0.5052320000000  0.5900050000000 1.0
C      1  0.5390880000000  0.4473010000000  0.5361030000000 1.0
C      1  0.3912140000000  0.4696030000000  0.5350450000000 1.0
C      1  0.4315100000000  0.4940320000000  0.5708540000000 1.0
C      1  0.6133940000000  0.4959270000000  0.4949320000000 1.0
C      1  0.4884440000000  0.5033630000000  0.4079390000000 1.0
C      1  0.5574250000000  0.4797810000000  0.4850900000000 1.0
C      1  0.4563620000000  0.4538700000000  0.4822730000000 1.0
C      1  0.4997250000000  0.5601510000000  0.5395190000000 1.0
C      1  0.5586050000000  0.5899060000000  0.5258600000000 1.0
C      1  0.4326820000000  0.5642750000000  0.5094350000000 1.0
C      1  0.5580140000000  0.5071580000000  0.5846510000000 1.0
C      1  0.4267290000000  0.4460180000000  0.5708880000000 1.0
C      1  0.4435680000000  0.4301520000000  0.4515070000000 1.0
C      1  0.4290970000000  0.4148270000000  0.4875910000000 1.0
C      1  0.5992940000000  0.4783830000000  0.5252010000000 1.0
C      1  0.5807230000000  0.4277100000000  0.4444780000000 1.0
C      1  0.5597750000000  0.5030690000000  0.5349910000000 1.0
C      1  0.4455590000000  0.5647910000000  0.4153050000000 1.0
C      1  0.5406810000000  0.4036030000000  0.5500780000000 1.0
C      1  0.4734720000000  0.4720460000000  0.5055030000000 1.0
C      1  0.5203390000000  0.4547130000000  0.5988230000000 1.0
C      1  0.4795480000000  0.4794310000000  0.3856800000000 1.0
C      1  0.4283060000000  0.4567800000000  0.4797430000000 1.0
C      1  0.5345900000000  0.5551600000000  0.5942870000000 1.0
C      1  0.4870800000000  0.5894970000000  0.5506080000000 1.0
C      1  0.5642580000000  0.5538420000000  0.5815570000000 1.0
C      1  0.5537880000000  0.6010120000000  0.4682390000000 1.0
C      1  0.5948870000000  0.5115720000000  0.5189160000000 1.0
C      1  0.4316080000000  0.5810110000000  0.4592320000000 1.0
C      1  0.4249140000000  0.4370310000000  0.5440410000000 1.0
C      1  0.4403450000000  0.5454880000000  0.5743930000000 1.0
C      1  0.6043950000000  0.4843680000000  0.4656180000000 1.0
C      1  0.4657240000000  0.4869930000000  0.4267580000000 1.0
C      1  0.4713410000000  0.4942720000000  0.5421540000000 1.0
C      1  0.4725070000000  0.4639090000000  0.5535160000000 1.0
C      1  0.5170390000000  0.5490550000000  0.4036810000000 1.0
C      1  0.4176310000000  0.5467070000000  0.5490650000000 1.0
C      1  0.4737430000000  0.5704680000000  0.5842520000000 1.0
C      1  0.3847560000000  0.4999570000000  0.4975500000000 1.0
C      1  0.4938180000000  0.5774680000000  0.5130700000000 1.0
C      1  0.5301620000000  0.4643570000000  0.3952340000000 1.0
C      1  0.5647730000000  0.4642400000000  0.5111530000000 1.0
C      1  0.4678880000000  0.5428590000000  0.5559570000000 1.0
C      1  0.5392910000000  0.5951270000000  0.5470340000000 1.0
C      1  0.5351210000000  0.4786130000000  0.5685130000000 1.0
C      1  0.5333440000000  0.5929400000000  0.4471790000000 1.0
C      1  0.5092890000000  0.4552900000000  0.5111510000000 1.0
C      1  0.5628420000000  0.4836760000000  0.5529660000000 1.0
END
