TITL C-2778436-5916-434 0.00272301072887444 125000 -934.92929784551 0 0 159 (C1) n - 1
REM
REM in /home/nfs/bkarasulu/CARBON/AIRSS/Generating-Clusters/REBO/Only-C1/SD-CG/HFTN-CG
REM
REM
REM
REM
REM
REM ./C.cell (11c1c37f851c82e70ff6c80c92926a4b)
REM
REM compiler GCC version 9.2.1 20190827 (Red Hat 9.2.1-1)
REM options -cpp -mtune=generic -march=x86-64 -g -O0 -fpre-include=/usr/include/finclude/math-vector-fortran.h
REM seed 44126103 -116444644 358230965 -1829638475 1543052355 2086586106 -1996026278 -1704193709 -892252642 -2011865733 -1940105140 1195774876 -31451441 -1838078568 555912507 -75237567 -590778662 -1832245911 -1233805048 1952090828 -1804901892 587360713 717560822 519371612 -1435363896 367687844 -326447606 -905887733 -258527558 -992923755 -1675340714 292465232 -990236978
REM
CELL 1.54180   50.00000   50.00000   50.00000   90.00000   90.00000   90.00000
LATT -1
SFAC C  
C      1  0.5121860000000  0.4216100000000  0.4648060000000 1.0
C      1  0.4717200000000  0.5955570000000  0.5506660000000 1.0
C      1  0.5669240000000  0.4120610000000  0.4826190000000 1.0
C      1  0.4565210000000  0.4388210000000  0.4714910000000 1.0
C      1  0.5811400000000  0.4870350000000  0.5633430000000 1.0
C      1  0.4585610000000  0.5981510000000  0.5004850000000 1.0
C      1  0.5783940000000  0.5210340000000  0.5632370000000 1.0
C      1  0.5038450000000  0.5320720000000  0.4922820000000 1.0
C      1  0.5598170000000  0.5081430000000  0.4287730000000 1.0
C      1  0.4643640000000  0.5331480000000  0.5338760000000 1.0
C      1  0.4794730000000  0.6095820000000  0.5247830000000 1.0
C      1  0.4383000000000  0.5421710000000  0.5173090000000 1.0
C      1  0.5836450000000  0.5426810000000  0.5439780000000 1.0
C      1  0.6017720000000  0.5134730000000  0.4997140000000 1.0
C      1  0.5085270000000  0.4759440000000  0.5274810000000 1.0
C      1  0.5448020000000  0.4462180000000  0.5738110000000 1.0
C      1  0.4796440000000  0.5088320000000  0.5189060000000 1.0
C      1  0.5334610000000  0.4591970000000  0.4650020000000 1.0
C      1  0.5488610000000  0.4386080000000  0.4835160000000 1.0
C      1  0.5346600000000  0.4635480000000  0.4375330000000 1.0
C      1  0.4019510000000  0.4633130000000  0.5298530000000 1.0
C      1  0.5026660000000  0.5516000000000  0.5166090000000 1.0
C      1  0.4764220000000  0.4325740000000  0.5157080000000 1.0
C      1  0.4996380000000  0.4941060000000  0.5552830000000 1.0
C      1  0.4564480000000  0.4921550000000  0.4727250000000 1.0
C      1  0.4272060000000  0.5674670000000  0.5338680000000 1.0
C      1  0.4791850000000  0.5967670000000  0.4430940000000 1.0
C      1  0.4872890000000  0.4319280000000  0.5651740000000 1.0
C      1  0.5436880000000  0.5129960000000  0.4995250000000 1.0
C      1  0.5406210000000  0.5526670000000  0.5286380000000 1.0
C      1  0.4852520000000  0.5530860000000  0.5375270000000 1.0
C      1  0.4910120000000  0.5741560000000  0.5563760000000 1.0
C      1  0.5275300000000  0.5082590000000  0.5964570000000 1.0
C      1  0.4998090000000  0.4327500000000  0.4936680000000 1.0
C      1  0.4421200000000  0.5677170000000  0.4358900000000 1.0
C      1  0.5235860000000  0.5730800000000  0.5108480000000 1.0
C      1  0.5638500000000  0.5638170000000  0.5472650000000 1.0
C      1  0.4387770000000  0.4583200000000  0.5465710000000 1.0
C      1  0.5378680000000  0.3990950000000  0.5054360000000 1.0
C      1  0.4174910000000  0.5472540000000  0.4388790000000 1.0
C      1  0.5772770000000  0.5115490000000  0.4782200000000 1.0
C      1  0.5178110000000  0.4985490000000  0.3939180000000 1.0
C      1  0.5406540000000  0.4731840000000  0.5015720000000 1.0
C      1  0.4475930000000  0.5343300000000  0.4415230000000 1.0
C      1  0.4287500000000  0.4786860000000  0.4124660000000 1.0
C      1  0.5054400000000  0.4110710000000  0.5560970000000 1.0
C      1  0.5142940000000  0.4146780000000  0.5174030000000 1.0
C      1  0.5154560000000  0.4789720000000  0.4842690000000 1.0
C      1  0.5133060000000  0.5081670000000  0.5155840000000 1.0
C      1  0.4597270000000  0.4106370000000  0.5104790000000 1.0
C      1  0.5332070000000  0.4235140000000  0.5543260000000 1.0
C      1  0.5661210000000  0.4076800000000  0.5162640000000 1.0
C      1  0.4720960000000  0.4915310000000  0.4278210000000 1.0
C      1  0.5729100000000  0.4767830000000  0.4272890000000 1.0
C      1  0.4868760000000  0.4242250000000  0.4214170000000 1.0
C      1  0.5463620000000  0.6043930000000  0.5017300000000 1.0
C      1  0.4959660000000  0.3939600000000  0.5337160000000 1.0
C      1  0.5473090000000  0.4979950000000  0.4698580000000 1.0
C      1  0.5649620000000  0.4253260000000  0.5421200000000 1.0
C      1  0.4904240000000  0.5925030000000  0.4907800000000 1.0
C      1  0.4474450000000  0.4986820000000  0.5239430000000 1.0
C      1  0.4723940000000  0.3857710000000  0.5194540000000 1.0
C      1  0.4425960000000  0.4693010000000  0.5187800000000 1.0
C      1  0.3831470000000  0.5186590000000  0.4995640000000 1.0
C      1  0.5370810000000  0.5554680000000  0.4468910000000 1.0
C      1  0.4462480000000  0.5894420000000  0.5312140000000 1.0
C      1  0.5131250000000  0.4230190000000  0.4323030000000 1.0
C      1  0.4694430000000  0.4851160000000  0.5953330000000 1.0
C      1  0.5899710000000  0.5543050000000  0.4810990000000 1.0
C      1  0.4214740000000  0.4731620000000  0.4438730000000 1.0
C      1  0.5006950000000  0.5255770000000  0.6048100000000 1.0
C      1  0.4522860000000  0.5904650000000  0.4505690000000 1.0
C      1  0.5059410000000  0.5523930000000  0.4421290000000 1.0
C      1  0.6200850000000  0.4651970000000  0.4932920000000 1.0
C      1  0.3926650000000  0.4894000000000  0.5359700000000 1.0
C      1  0.5338840000000  0.4411660000000  0.5122200000000 1.0
C      1  0.4761460000000  0.4532100000000  0.5332560000000 1.0
C      1  0.5887570000000  0.4625040000000  0.5062070000000 1.0
C      1  0.5004390000000  0.4888610000000  0.5892440000000 1.0
C      1  0.4988760000000  0.6073850000000  0.4636710000000 1.0
C      1  0.5225210000000  0.4699190000000  0.5773670000000 1.0
C      1  0.5785650000000  0.5362300000000  0.4624010000000 1.0
C      1  0.6084130000000  0.4881690000000  0.5158600000000 1.0
C      1  0.4565890000000  0.5130470000000  0.4954270000000 1.0
C      1  0.4733640000000  0.5398540000000  0.5731460000000 1.0
C      1  0.5475740000000  0.5855230000000  0.4431690000000 1.0
C      1  0.4562180000000  0.4695860000000  0.5737780000000 1.0
C      1  0.5673370000000  0.4640130000000  0.4858700000000 1.0
C      1  0.5014230000000  0.5241160000000  0.5706700000000 1.0
C      1  0.4665620000000  0.3659750000000  0.4989000000000 1.0
C      1  0.4169380000000  0.4607280000000  0.5021510000000 1.0
C      1  0.4878900000000  0.5395060000000  0.4655320000000 1.0
C      1  0.4588990000000  0.5353760000000  0.4715150000000 1.0
C      1  0.5060180000000  0.5281060000000  0.3997600000000 1.0
C      1  0.5238310000000  0.5273810000000  0.5398850000000 1.0
C      1  0.4749250000000  0.4524920000000  0.4217690000000 1.0
C      1  0.4753420000000  0.4740460000000  0.5494440000000 1.0
C      1  0.4095370000000  0.4425020000000  0.5504400000000 1.0
C      1  0.5116500000000  0.4518860000000  0.5516190000000 1.0
C      1  0.5999810000000  0.4872100000000  0.4768800000000 1.0
C      1  0.4871500000000  0.4439590000000  0.4584890000000 1.0
C      1  0.5355040000000  0.4022530000000  0.4744680000000 1.0
C      1  0.5503680000000  0.4540390000000  0.5351690000000 1.0
C      1  0.4530710000000  0.3832930000000  0.4739590000000 1.0
C      1  0.5581040000000  0.5436370000000  0.5029640000000 1.0
C      1  0.4943770000000  0.4724430000000  0.4416260000000 1.0
C      1  0.4077600000000  0.5449060000000  0.4678710000000 1.0
C      1  0.4203770000000  0.5736120000000  0.4811390000000 1.0
C      1  0.4931840000000  0.4647080000000  0.4991010000000 1.0
C      1  0.4984130000000  0.5521690000000  0.4095860000000 1.0
C      1  0.5431290000000  0.4802510000000  0.5529530000000 1.0
C      1  0.5740050000000  0.4539790000000  0.5597320000000 1.0
C      1  0.3917280000000  0.5161920000000  0.5264260000000 1.0
C      1  0.5364910000000  0.4377930000000  0.4216230000000 1.0
C      1  0.4763210000000  0.5250520000000  0.6168530000000 1.0
C      1  0.5515170000000  0.5284060000000  0.5825810000000 1.0
C      1  0.4643590000000  0.4068240000000  0.4272330000000 1.0
C      1  0.4564330000000  0.5041480000000  0.4469360000000 1.0
C      1  0.5592150000000  0.5338200000000  0.4416860000000 1.0
C      1  0.5091240000000  0.6026510000000  0.5159790000000 1.0
C      1  0.5423500000000  0.5852740000000  0.5517280000000 1.0
C      1  0.5273450000000  0.5426220000000  0.5684830000000 1.0
C      1  0.4501880000000  0.5245900000000  0.5771460000000 1.0
C      1  0.5802940000000  0.4822490000000  0.5323320000000 1.0
C      1  0.4342720000000  0.5453300000000  0.4887520000000 1.0
C      1  0.4290340000000  0.4538130000000  0.4710520000000 1.0
C      1  0.4888420000000  0.5762530000000  0.4272720000000 1.0
C      1  0.5354200000000  0.4885610000000  0.4211470000000 1.0
C      1  0.4373650000000  0.5185320000000  0.5493070000000 1.0
C      1  0.4008940000000  0.4952560000000  0.4601400000000 1.0
C      1  0.5752390000000  0.5897450000000  0.4488830000000 1.0
C      1  0.3994930000000  0.4697610000000  0.4764370000000 1.0
C      1  0.4623710000000  0.4660020000000  0.4911710000000 1.0
C      1  0.5165140000000  0.4940990000000  0.4557670000000 1.0
C      1  0.5298250000000  0.6047260000000  0.4521430000000 1.0
C      1  0.5326490000000  0.5659120000000  0.4783700000000 1.0
C      1  0.4525330000000  0.4103280000000  0.4825160000000 1.0
C      1  0.5594380000000  0.5766850000000  0.4937570000000 1.0
C      1  0.4566960000000  0.5100640000000  0.6016780000000 1.0
C      1  0.5380180000000  0.6043990000000  0.5309330000000 1.0
C      1  0.5644660000000  0.4522960000000  0.4138090000000 1.0
C      1  0.5276280000000  0.6135220000000  0.4822490000000 1.0
C      1  0.5904720000000  0.5400520000000  0.5120260000000 1.0
C      1  0.3932610000000  0.5192470000000  0.4730830000000 1.0
C      1  0.5532870000000  0.4952830000000  0.5800040000000 1.0
C      1  0.4123890000000  0.5365270000000  0.5375230000000 1.0
C      1  0.4540590000000  0.3507210000000  0.4729830000000 1.0
C      1  0.5081550000000  0.5063500000000  0.4257230000000 1.0
C      1  0.5839760000000  0.5821510000000  0.4748310000000 1.0
C      1  0.4410800000000  0.4207360000000  0.4350010000000 1.0
C      1  0.4404210000000  0.5933580000000  0.4766400000000 1.0
C      1  0.5004990000000  0.5653120000000  0.4795880000000 1.0
C      1  0.5727660000000  0.4779720000000  0.4582330000000 1.0
C      1  0.4615320000000  0.4378750000000  0.5718820000000 1.0
C      1  0.4435580000000  0.4488910000000  0.4342710000000 1.0
C      1  0.5194360000000  0.5722300000000  0.5643200000000 1.0
C      1  0.4351990000000  0.4266400000000  0.5618170000000 1.0
C      1  0.4558140000000  0.4767170000000  0.4073710000000 1.0
C      1  0.5507520000000  0.4923120000000  0.5239970000000 1.0
END
