TITL C-2778431-5191-677 0.000590342565246399 125000 -565.470103296625 0 0 98 (C1) n - 1
REM
REM in /home/nfs/bkarasulu/CARBON/AIRSS/Generating-Clusters/REBO/Only-C1/SD-CG/HFTN-CG
REM
REM
REM
REM
REM
REM ./C.cell (11c1c37f851c82e70ff6c80c92926a4b)
REM
REM compiler GCC version 9.2.1 20190827 (Red Hat 9.2.1-1)
REM options -cpp -mtune=generic -march=x86-64 -g -O0 -fpre-include=/usr/include/finclude/math-vector-fortran.h
REM seed 1889116140 -2107091897 41274685 -203557989 -122406460 -553717437 -1274246056 153801652 1961548814 2097567117 1482742191 1148438277 586841220 1693893552 -564108928 -628068475 870485005 180874826 1044511243 -395665353 -1767737106 463098256 881986405 1779742676 -1609477606 111968465 -25060112 860468899 1773429735 -227887743 1176449419 -1679912932 -773758236
REM
CELL 1.54180   50.00000   50.00000   50.00000   90.00000   90.00000   90.00000
LATT -1
SFAC C  
C      1  0.5898310000000  0.4306530000000  0.5103780000000 1.0
C      1  0.4392620000000  0.5339860000000  0.5352400000000 1.0
C      1  0.4437460000000  0.4955050000000  0.4500620000000 1.0
C      1  0.5070940000000  0.5459790000000  0.4366650000000 1.0
C      1  0.4478540000000  0.5428630000000  0.4884410000000 1.0
C      1  0.5112740000000  0.4384940000000  0.5177600000000 1.0
C      1  0.4171220000000  0.5059510000000  0.4921980000000 1.0
C      1  0.4702060000000  0.5222930000000  0.4819640000000 1.0
C      1  0.5204270000000  0.4497050000000  0.4893840000000 1.0
C      1  0.5207550000000  0.5189040000000  0.5502610000000 1.0
C      1  0.4242240000000  0.4313800000000  0.5077540000000 1.0
C      1  0.4980290000000  0.5120510000000  0.4180100000000 1.0
C      1  0.5328280000000  0.4341910000000  0.4638730000000 1.0
C      1  0.5601350000000  0.4750170000000  0.5547460000000 1.0
C      1  0.4755220000000  0.5355630000000  0.4281680000000 1.0
C      1  0.5545820000000  0.4680970000000  0.5228420000000 1.0
C      1  0.5250010000000  0.5768610000000  0.5298700000000 1.0
C      1  0.5893650000000  0.5127690000000  0.4757210000000 1.0
C      1  0.4966700000000  0.4548050000000  0.4695770000000 1.0
C      1  0.4986120000000  0.5121920000000  0.5751820000000 1.0
C      1  0.5867690000000  0.4863260000000  0.4600220000000 1.0
C      1  0.4299820000000  0.4806460000000  0.5361840000000 1.0
C      1  0.4328830000000  0.5554960000000  0.4626540000000 1.0
C      1  0.4603850000000  0.5705320000000  0.4763210000000 1.0
C      1  0.4863380000000  0.4314450000000  0.5762880000000 1.0
C      1  0.4412390000000  0.4663770000000  0.4421250000000 1.0
C      1  0.4555760000000  0.4256480000000  0.5096380000000 1.0
C      1  0.5408780000000  0.5527870000000  0.5450450000000 1.0
C      1  0.5853470000000  0.5125040000000  0.5252650000000 1.0
C      1  0.5055910000000  0.5417240000000  0.5298540000000 1.0
C      1  0.5905700000000  0.4831990000000  0.5187720000000 1.0
C      1  0.5448850000000  0.5106370000000  0.4822910000000 1.0
C      1  0.5417450000000  0.5384600000000  0.5140370000000 1.0
C      1  0.5528820000000  0.4520320000000  0.4540430000000 1.0
C      1  0.4504270000000  0.4360410000000  0.4553210000000 1.0
C      1  0.4888040000000  0.5398680000000  0.4653670000000 1.0
C      1  0.4504490000000  0.5616950000000  0.5420340000000 1.0
C      1  0.4645830000000  0.4432820000000  0.5322320000000 1.0
C      1  0.4172030000000  0.4806190000000  0.5062710000000 1.0
C      1  0.5330360000000  0.5815450000000  0.5025180000000 1.0
C      1  0.4907730000000  0.4802810000000  0.4176390000000 1.0
C      1  0.4834290000000  0.5788820000000  0.4942800000000 1.0
C      1  0.4773810000000  0.4037440000000  0.5054320000000 1.0
C      1  0.5590410000000  0.4844390000000  0.4461680000000 1.0
C      1  0.4635690000000  0.4615080000000  0.4209050000000 1.0
C      1  0.5185430000000  0.5167350000000  0.5017150000000 1.0
C      1  0.4693190000000  0.5073650000000  0.4448930000000 1.0
C      1  0.4212270000000  0.5091500000000  0.4624450000000 1.0
C      1  0.5273590000000  0.5236820000000  0.4271390000000 1.0
C      1  0.4917130000000  0.4381210000000  0.5448980000000 1.0
C      1  0.4430910000000  0.4562300000000  0.5532130000000 1.0
C      1  0.5459550000000  0.4936570000000  0.5694940000000 1.0
C      1  0.5408780000000  0.4727370000000  0.4926410000000 1.0
C      1  0.5465720000000  0.5144880000000  0.4485200000000 1.0
C      1  0.5005400000000  0.4937250000000  0.4474410000000 1.0
C      1  0.4732990000000  0.5641810000000  0.4465560000000 1.0
C      1  0.4922080000000  0.4525880000000  0.4359070000000 1.0
C      1  0.5186260000000  0.5508190000000  0.4746450000000 1.0
C      1  0.5783420000000  0.5445040000000  0.4791330000000 1.0
C      1  0.5486050000000  0.5449220000000  0.4631980000000 1.0
C      1  0.5082510000000  0.4166570000000  0.4706870000000 1.0
C      1  0.5130140000000  0.4691050000000  0.5322010000000 1.0
C      1  0.5685070000000  0.4929240000000  0.4947990000000 1.0
C      1  0.5043390000000  0.4642460000000  0.5635600000000 1.0
C      1  0.4742490000000  0.4944730000000  0.5657520000000 1.0
C      1  0.5515810000000  0.5257200000000  0.5635940000000 1.0
C      1  0.5118430000000  0.5888720000000  0.4844100000000 1.0
C      1  0.4921990000000  0.5138250000000  0.5231410000000 1.0
C      1  0.4933910000000  0.4995460000000  0.4861990000000 1.0
C      1  0.5566620000000  0.5178240000000  0.5327310000000 1.0
C      1  0.5047540000000  0.5748160000000  0.4546080000000 1.0
C      1  0.4605530000000  0.4742140000000  0.5222880000000 1.0
C      1  0.5027720000000  0.5556230000000  0.5044000000000 1.0
C      1  0.4980110000000  0.5802600000000  0.5389670000000 1.0
C      1  0.5792570000000  0.4554250000000  0.5031450000000 1.0
C      1  0.4803460000000  0.5597360000000  0.5789760000000 1.0
C      1  0.4709190000000  0.4613100000000  0.5699670000000 1.0
C      1  0.4856230000000  0.4860850000000  0.5358340000000 1.0
C      1  0.5023480000000  0.5424880000000  0.5821490000000 1.0
C      1  0.5205340000000  0.4905030000000  0.4716490000000 1.0
C      1  0.4481720000000  0.5049490000000  0.5487860000000 1.0
C      1  0.5336780000000  0.4935680000000  0.5314300000000 1.0
C      1  0.4613540000000  0.4435700000000  0.4844550000000 1.0
C      1  0.4824790000000  0.4275350000000  0.4545890000000 1.0
C      1  0.4165520000000  0.4549100000000  0.4928850000000 1.0
C      1  0.5189070000000  0.4878220000000  0.5763380000000 1.0
C      1  0.5950880000000  0.5290150000000  0.5039150000000 1.0
C      1  0.4755330000000  0.4716220000000  0.4853200000000 1.0
C      1  0.5264470000000  0.5533220000000  0.5750740000000 1.0
C      1  0.5763960000000  0.4605400000000  0.4727500000000 1.0
C      1  0.4618740000000  0.5140820000000  0.5201390000000 1.0
C      1  0.4552160000000  0.4946070000000  0.4954850000000 1.0
C      1  0.5023930000000  0.4137700000000  0.4986120000000 1.0
C      1  0.4277160000000  0.5290880000000  0.5060820000000 1.0
C      1  0.4748620000000  0.5708550000000  0.5531940000000 1.0
C      1  0.4222490000000  0.4521440000000  0.4653350000000 1.0
C      1  0.5525590000000  0.5589810000000  0.4937030000000 1.0
C      1  0.4167920000000  0.5360850000000  0.4522100000000 1.0
END
