TITL C-2778436-5916-543 -0.00330498946853977 125000 -990.73483576337 0 0 169 (C1) n - 1
REM
REM in /home/nfs/bkarasulu/CARBON/AIRSS/Generating-Clusters/REBO/Only-C1/SD-CG/HFTN-CG
REM
REM
REM
REM
REM
REM ./C.cell (11c1c37f851c82e70ff6c80c92926a4b)
REM
REM compiler GCC version 9.2.1 20190827 (Red Hat 9.2.1-1)
REM options -cpp -mtune=generic -march=x86-64 -g -O0 -fpre-include=/usr/include/finclude/math-vector-fortran.h
REM seed 1999110256 -231437673 731667781 1177258664 -1867377137 -887593712 150729070 1566348406 1698109434 948483553 1118744506 1299497644 1864745351 1696939431 27563178 1611275077 -1988466601 193485575 1353059280 532197429 -1496340679 884302453 1735091911 1855244685 1587722908 -1736597169 1989439528 -406135121 -746962765 297936484 -1035806029 -596756540 1747029282
REM
CELL 1.54180   50.00000   50.00000   50.00000   90.00000   90.00000   90.00000
LATT -1
SFAC C  
C      1  0.5463830000000  0.5281280000000  0.5528100000000 1.0
C      1  0.5818630000000  0.5392880000000  0.4860260000000 1.0
C      1  0.4301120000000  0.5011600000000  0.4552400000000 1.0
C      1  0.4611690000000  0.4989410000000  0.4679920000000 1.0
C      1  0.4269560000000  0.4565110000000  0.5269450000000 1.0
C      1  0.5464460000000  0.4975920000000  0.6072600000000 1.0
C      1  0.5598970000000  0.4086880000000  0.5229460000000 1.0
C      1  0.4000640000000  0.4421420000000  0.5011630000000 1.0
C      1  0.4695780000000  0.4483640000000  0.5222660000000 1.0
C      1  0.5644800000000  0.5374600000000  0.4299770000000 1.0
C      1  0.4951210000000  0.5368960000000  0.5483440000000 1.0
C      1  0.4414700000000  0.4808770000000  0.5077620000000 1.0
C      1  0.4499330000000  0.4216040000000  0.5554830000000 1.0
C      1  0.4579120000000  0.4707280000000  0.5836860000000 1.0
C      1  0.4660890000000  0.5479520000000  0.4062030000000 1.0
C      1  0.4529100000000  0.4261620000000  0.5260270000000 1.0
C      1  0.5215800000000  0.4197710000000  0.4300030000000 1.0
C      1  0.4460790000000  0.4516090000000  0.4715350000000 1.0
C      1  0.5490110000000  0.4502260000000  0.4673210000000 1.0
C      1  0.5394010000000  0.5509140000000  0.4185270000000 1.0
C      1  0.4919760000000  0.5840030000000  0.5600680000000 1.0
C      1  0.5186300000000  0.4487600000000  0.4754500000000 1.0
C      1  0.4914040000000  0.4036270000000  0.4992280000000 1.0
C      1  0.5405040000000  0.4858710000000  0.5449900000000 1.0
C      1  0.4080750000000  0.4810980000000  0.4673290000000 1.0
C      1  0.4872130000000  0.4726450000000  0.6023230000000 1.0
C      1  0.4976930000000  0.6104990000000  0.4735670000000 1.0
C      1  0.5204550000000  0.4730700000000  0.4513320000000 1.0
C      1  0.4403170000000  0.4852870000000  0.5508550000000 1.0
C      1  0.4637260000000  0.5163980000000  0.3975980000000 1.0
C      1  0.5888370000000  0.4541070000000  0.5862500000000 1.0
C      1  0.5065220000000  0.4869360000000  0.3928710000000 1.0
C      1  0.5373650000000  0.4320860000000  0.5663240000000 1.0
C      1  0.4712530000000  0.5672370000000  0.4760360000000 1.0
C      1  0.4680570000000  0.5237230000000  0.5220430000000 1.0
C      1  0.4261030000000  0.5554450000000  0.5370000000000 1.0
C      1  0.5024080000000  0.5198420000000  0.3881170000000 1.0
C      1  0.5230280000000  0.4622210000000  0.4060630000000 1.0
C      1  0.4154050000000  0.5757410000000  0.4595670000000 1.0
C      1  0.4751420000000  0.5911810000000  0.4307970000000 1.0
C      1  0.5125300000000  0.4987660000000  0.5861770000000 1.0
C      1  0.4713290000000  0.4682590000000  0.4976210000000 1.0
C      1  0.5699410000000  0.4746020000000  0.5964730000000 1.0
C      1  0.5022470000000  0.5257480000000  0.6136910000000 1.0
C      1  0.4555590000000  0.4716630000000  0.4535010000000 1.0
C      1  0.4171110000000  0.4619380000000  0.4424360000000 1.0
C      1  0.3954380000000  0.4676420000000  0.5203670000000 1.0
C      1  0.4798350000000  0.4416880000000  0.4189200000000 1.0
C      1  0.5059010000000  0.4849030000000  0.4865410000000 1.0
C      1  0.4666910000000  0.5383220000000  0.4640630000000 1.0
C      1  0.5945800000000  0.4610780000000  0.4847450000000 1.0
C      1  0.5338830000000  0.5863070000000  0.4969060000000 1.0
C      1  0.4194670000000  0.5414050000000  0.5123520000000 1.0
C      1  0.4896640000000  0.5223560000000  0.4441690000000 1.0
C      1  0.5061080000000  0.3942670000000  0.5252550000000 1.0
C      1  0.5736140000000  0.5061750000000  0.5879260000000 1.0
C      1  0.4461070000000  0.4374580000000  0.4212410000000 1.0
C      1  0.5343150000000  0.4967800000000  0.4821960000000 1.0
C      1  0.5219670000000  0.4733820000000  0.6042910000000 1.0
C      1  0.6042050000000  0.4601620000000  0.5584000000000 1.0
C      1  0.5709840000000  0.5356890000000  0.5755460000000 1.0
C      1  0.4513740000000  0.5235940000000  0.5735790000000 1.0
C      1  0.4820160000000  0.5335330000000  0.5791750000000 1.0
C      1  0.5651690000000  0.4816070000000  0.5231060000000 1.0
C      1  0.5329330000000  0.5462510000000  0.5784930000000 1.0
C      1  0.5275970000000  0.5016560000000  0.4130210000000 1.0
C      1  0.4148010000000  0.4947330000000  0.5494420000000 1.0
C      1  0.5397930000000  0.5786010000000  0.4152940000000 1.0
C      1  0.4994700000000  0.4514710000000  0.5796440000000 1.0
C      1  0.4381670000000  0.5296050000000  0.4793030000000 1.0
C      1  0.4920660000000  0.5015260000000  0.5304800000000 1.0
C      1  0.5648700000000  0.5873200000000  0.5676750000000 1.0
C      1  0.3862190000000  0.4963940000000  0.4817110000000 1.0
C      1  0.5343950000000  0.3960350000000  0.5182230000000 1.0
C      1  0.5941210000000  0.4791190000000  0.5105130000000 1.0
C      1  0.4223790000000  0.4627070000000  0.4877770000000 1.0
C      1  0.5855210000000  0.5117890000000  0.4671750000000 1.0
C      1  0.4512420000000  0.4211820000000  0.4629090000000 1.0
C      1  0.5590460000000  0.5655200000000  0.5832700000000 1.0
C      1  0.5150420000000  0.5659600000000  0.4539900000000 1.0
C      1  0.5144390000000  0.4486760000000  0.5244640000000 1.0
C      1  0.5113160000000  0.5429900000000  0.4325340000000 1.0
C      1  0.5810220000000  0.5169770000000  0.4373240000000 1.0
C      1  0.5881040000000  0.4560570000000  0.4615600000000 1.0
C      1  0.5352900000000  0.5244050000000  0.4620510000000 1.0
C      1  0.4235660000000  0.4310760000000  0.4459360000000 1.0
C      1  0.4987380000000  0.4748790000000  0.5161590000000 1.0
C      1  0.5626440000000  0.5969800000000  0.4830550000000 1.0
C      1  0.5654460000000  0.5566080000000  0.5322610000000 1.0
C      1  0.4601320000000  0.4650440000000  0.4058430000000 1.0
C      1  0.4098530000000  0.5630070000000  0.4884700000000 1.0
C      1  0.4982660000000  0.4059120000000  0.5484820000000 1.0
C      1  0.4314700000000  0.5661500000000  0.4368120000000 1.0
C      1  0.5483410000000  0.4233920000000  0.4453030000000 1.0
C      1  0.4778630000000  0.4376960000000  0.4516490000000 1.0
C      1  0.4264570000000  0.5383840000000  0.5603170000000 1.0
C      1  0.4281000000000  0.4268650000000  0.5091740000000 1.0
C      1  0.5499000000000  0.5852380000000  0.4541570000000 1.0
C      1  0.3857710000000  0.5231040000000  0.4728480000000 1.0
C      1  0.4259140000000  0.5360800000000  0.4362630000000 1.0
C      1  0.4936200000000  0.5457980000000  0.5166490000000 1.0
C      1  0.4580900000000  0.5783840000000  0.5063300000000 1.0
C      1  0.4449410000000  0.4958110000000  0.5890500000000 1.0
C      1  0.4887680000000  0.5822440000000  0.4596250000000 1.0
C      1  0.5863180000000  0.5364630000000  0.5466310000000 1.0
C      1  0.4819400000000  0.5063000000000  0.5997020000000 1.0
C      1  0.5088240000000  0.4381290000000  0.4108310000000 1.0
C      1  0.5226420000000  0.5319490000000  0.5135900000000 1.0
C      1  0.4437030000000  0.5781790000000  0.5333950000000 1.0
C      1  0.4744210000000  0.4026210000000  0.4701860000000 1.0
C      1  0.5553400000000  0.4108460000000  0.4743140000000 1.0
C      1  0.4089930000000  0.5326880000000  0.4627070000000 1.0
C      1  0.5458540000000  0.4801790000000  0.5730000000000 1.0
C      1  0.4560560000000  0.5711040000000  0.4219700000000 1.0
C      1  0.5480170000000  0.5508170000000  0.5085970000000 1.0
C      1  0.5995820000000  0.4833450000000  0.5432550000000 1.0
C      1  0.4986390000000  0.4109470000000  0.4472030000000 1.0
C      1  0.5103140000000  0.4334460000000  0.5528700000000 1.0
C      1  0.4416650000000  0.5607690000000  0.4855270000000 1.0
C      1  0.5014130000000  0.5942190000000  0.5345600000000 1.0
C      1  0.4951460000000  0.5397160000000  0.4054000000000 1.0
C      1  0.5602770000000  0.4304150000000  0.5445840000000 1.0
C      1  0.4678300000000  0.5002980000000  0.5544460000000 1.0
C      1  0.5291760000000  0.5247830000000  0.5996090000000 1.0
C      1  0.5294440000000  0.4021630000000  0.4874140000000 1.0
C      1  0.5058750000000  0.3897930000000  0.4711020000000 1.0
C      1  0.5222430000000  0.5101740000000  0.5368940000000 1.0
C      1  0.5582100000000  0.5993750000000  0.5167520000000 1.0
C      1  0.5602760000000  0.5147180000000  0.5258300000000 1.0
C      1  0.4744470000000  0.4905500000000  0.3955750000000 1.0
C      1  0.4845190000000  0.5070360000000  0.4806280000000 1.0
C      1  0.5615400000000  0.5125810000000  0.4920730000000 1.0
C      1  0.5388230000000  0.4518870000000  0.5862940000000 1.0
C      1  0.5248260000000  0.5580870000000  0.4836590000000 1.0
C      1  0.4390300000000  0.4762280000000  0.4255640000000 1.0
C      1  0.5643140000000  0.5639420000000  0.4834540000000 1.0
C      1  0.4409180000000  0.5148470000000  0.5079150000000 1.0
C      1  0.4639980000000  0.5764170000000  0.5558970000000 1.0
C      1  0.4792990000000  0.4576390000000  0.5464880000000 1.0
C      1  0.4883530000000  0.5745110000000  0.5113400000000 1.0
C      1  0.4946440000000  0.4819950000000  0.5646400000000 1.0
C      1  0.4160060000000  0.4235960000000  0.4774920000000 1.0
C      1  0.5552290000000  0.4747350000000  0.4813020000000 1.0
C      1  0.4980630000000  0.6146990000000  0.4397650000000 1.0
C      1  0.4640810000000  0.5466820000000  0.5459520000000 1.0
C      1  0.4326830000000  0.5063360000000  0.4220500000000 1.0
C      1  0.5727520000000  0.4131840000000  0.4966840000000 1.0
C      1  0.5385380000000  0.4671400000000  0.4298610000000 1.0
C      1  0.5350320000000  0.5108670000000  0.4340380000000 1.0
C      1  0.5071780000000  0.6000810000000  0.5014540000000 1.0
C      1  0.5526210000000  0.5520570000000  0.4560620000000 1.0
C      1  0.5902510000000  0.5058690000000  0.5582230000000 1.0
C      1  0.5236390000000  0.5954160000000  0.4387320000000 1.0
C      1  0.5057160000000  0.5570890000000  0.5716070000000 1.0
C      1  0.5091320000000  0.5277510000000  0.4836070000000 1.0
C      1  0.3822490000000  0.4881340000000  0.5085790000000 1.0
C      1  0.5856030000000  0.4347430000000  0.5598900000000 1.0
C      1  0.5019540000000  0.4930950000000  0.4476450000000 1.0
C      1  0.4573200000000  0.5234730000000  0.4363800000000 1.0
C      1  0.4888090000000  0.4589310000000  0.4711330000000 1.0
C      1  0.5447120000000  0.4560250000000  0.5312700000000 1.0
C      1  0.5136560000000  0.4296930000000  0.4998990000000 1.0
C      1  0.4738960000000  0.4342930000000  0.5687370000000 1.0
C      1  0.5892370000000  0.5293240000000  0.5155770000000 1.0
C      1  0.4413120000000  0.4543910000000  0.5581180000000 1.0
C      1  0.5657210000000  0.4506030000000  0.4379740000000 1.0
C      1  0.4057580000000  0.5188010000000  0.5586900000000 1.0
C      1  0.5650330000000  0.5840870000000  0.5393510000000 1.0
C      1  0.6005950000000  0.5060120000000  0.4967960000000 1.0
END
