TITL C-2778427-5640-118 -0.000308677250970488 125000 -988.692522656673 0 0 168 (C1) n - 1
REM
REM in /home/nfs/bkarasulu/CARBON/AIRSS/Generating-Clusters/REBO/Only-C1/SD-CG/HFTN-CG
REM
REM
REM
REM
REM
REM ./C.cell (11c1c37f851c82e70ff6c80c92926a4b)
REM
REM compiler GCC version 9.2.1 20190827 (Red Hat 9.2.1-1)
REM options -cpp -mtune=generic -march=x86-64 -g -O0 -fpre-include=/usr/include/finclude/math-vector-fortran.h
REM seed 615178012 -621283903 326008143 -737325644 1688056235 1539348474 -984271785 -1707915290 462621362 -534437165 -20388902 1952199554 -1561392711 -1788232003 1563409932 -1899308926 -1189903381 -2070477862 -1904882361 -1032869395 110953941 3311265 1609122904 1528914184 2139853262 -203278062 694896220 1399691322 187152160 -681610321 -820899107 -1336879150 473684739
REM
CELL 1.54180   50.00000   50.00000   50.00000   90.00000   90.00000   90.00000
LATT -1
SFAC C  
C      1  0.5108590000000  0.4559200000000  0.5318770000000 1.0
C      1  0.4844310000000  0.4252810000000  0.4201030000000 1.0
C      1  0.5380530000000  0.4462950000000  0.6066110000000 1.0
C      1  0.4979240000000  0.5740710000000  0.4403650000000 1.0
C      1  0.4709860000000  0.4648730000000  0.4263900000000 1.0
C      1  0.5346820000000  0.5117220000000  0.5288490000000 1.0
C      1  0.5471360000000  0.4497460000000  0.6319730000000 1.0
C      1  0.4940730000000  0.5381880000000  0.4032250000000 1.0
C      1  0.5282180000000  0.5396540000000  0.5838200000000 1.0
C      1  0.4339070000000  0.4325090000000  0.4654120000000 1.0
C      1  0.4838160000000  0.5626560000000  0.5953340000000 1.0
C      1  0.4862120000000  0.5150870000000  0.4239440000000 1.0
C      1  0.4221060000000  0.4499540000000  0.5448580000000 1.0
C      1  0.5583550000000  0.4851370000000  0.5117620000000 1.0
C      1  0.4815070000000  0.4825400000000  0.5299740000000 1.0
C      1  0.4629000000000  0.5483370000000  0.4785800000000 1.0
C      1  0.5487470000000  0.5839480000000  0.4364340000000 1.0
C      1  0.5589890000000  0.4268830000000  0.4767880000000 1.0
C      1  0.5716140000000  0.5588690000000  0.4795060000000 1.0
C      1  0.5033290000000  0.4347630000000  0.4683980000000 1.0
C      1  0.4464930000000  0.5152830000000  0.5517290000000 1.0
C      1  0.5736480000000  0.5442370000000  0.5523920000000 1.0
C      1  0.4876090000000  0.4005940000000  0.4819520000000 1.0
C      1  0.5536350000000  0.5530120000000  0.5068640000000 1.0
C      1  0.5507690000000  0.5901640000000  0.5399970000000 1.0
C      1  0.5219390000000  0.5066690000000  0.3948720000000 1.0
C      1  0.5232890000000  0.4516450000000  0.5607400000000 1.0
C      1  0.6100700000000  0.4797340000000  0.4890660000000 1.0
C      1  0.5023920000000  0.5627690000000  0.5330050000000 1.0
C      1  0.5514150000000  0.5800420000000  0.4630690000000 1.0
C      1  0.4756870000000  0.5494010000000  0.5067310000000 1.0
C      1  0.4472310000000  0.4457910000000  0.4209880000000 1.0
C      1  0.4921450000000  0.5448670000000  0.5586100000000 1.0
C      1  0.5017430000000  0.5018560000000  0.5091070000000 1.0
C      1  0.5049420000000  0.5175650000000  0.5541050000000 1.0
C      1  0.4681570000000  0.5645040000000  0.5362720000000 1.0
C      1  0.5886990000000  0.4954340000000  0.5351730000000 1.0
C      1  0.4733190000000  0.5603810000000  0.3988680000000 1.0
C      1  0.4660500000000  0.4030840000000  0.5450570000000 1.0
C      1  0.4689890000000  0.4824340000000  0.5960390000000 1.0
C      1  0.3907930000000  0.5371100000000  0.5023220000000 1.0
C      1  0.5104800000000  0.5665750000000  0.5861950000000 1.0
C      1  0.5711880000000  0.5182020000000  0.5947100000000 1.0
C      1  0.4637920000000  0.4942690000000  0.4858460000000 1.0
C      1  0.4256570000000  0.4528560000000  0.4440620000000 1.0
C      1  0.4337010000000  0.5719210000000  0.5173690000000 1.0
C      1  0.5466740000000  0.4192970000000  0.5667130000000 1.0
C      1  0.4942360000000  0.4835310000000  0.4271270000000 1.0
C      1  0.5244370000000  0.5834610000000  0.5406130000000 1.0
C      1  0.6067290000000  0.4634460000000  0.4615900000000 1.0
C      1  0.5634240000000  0.4927150000000  0.5780010000000 1.0
C      1  0.5044720000000  0.4870020000000  0.4582620000000 1.0
C      1  0.4950910000000  0.4706490000000  0.5838770000000 1.0
C      1  0.5085430000000  0.5487890000000  0.5027930000000 1.0
C      1  0.4253110000000  0.5029930000000  0.4289890000000 1.0
C      1  0.4960800000000  0.4333370000000  0.5198570000000 1.0
C      1  0.5604720000000  0.4958800000000  0.4313160000000 1.0
C      1  0.4876870000000  0.4415790000000  0.3986120000000 1.0
C      1  0.5883490000000  0.4730380000000  0.5095390000000 1.0
C      1  0.4547440000000  0.5791680000000  0.4714930000000 1.0
C      1  0.4654500000000  0.5834300000000  0.5872170000000 1.0
C      1  0.4465900000000  0.4379980000000  0.4916980000000 1.0
C      1  0.4220840000000  0.4914630000000  0.5113840000000 1.0
C      1  0.4738880000000  0.5332390000000  0.5922280000000 1.0
C      1  0.4876240000000  0.5984060000000  0.5434930000000 1.0
C      1  0.5111440000000  0.4506300000000  0.5987200000000 1.0
C      1  0.5844000000000  0.5328990000000  0.5219850000000 1.0
C      1  0.5184330000000  0.4119610000000  0.5598510000000 1.0
C      1  0.5577430000000  0.5192110000000  0.5099420000000 1.0
C      1  0.5235270000000  0.4371240000000  0.4157690000000 1.0
C      1  0.5173830000000  0.5079010000000  0.5906590000000 1.0
C      1  0.4771430000000  0.5315260000000  0.4525080000000 1.0
C      1  0.4885400000000  0.5100180000000  0.4723050000000 1.0
C      1  0.5068570000000  0.4651740000000  0.4803030000000 1.0
C      1  0.4346680000000  0.4642040000000  0.5098220000000 1.0
C      1  0.5686670000000  0.5585940000000  0.4128510000000 1.0
C      1  0.5491770000000  0.4777170000000  0.5438360000000 1.0
C      1  0.4660310000000  0.5101210000000  0.3973620000000 1.0
C      1  0.4597440000000  0.5501570000000  0.5659710000000 1.0
C      1  0.5382780000000  0.5189520000000  0.5587330000000 1.0
C      1  0.4434430000000  0.5102860000000  0.5013270000000 1.0
C      1  0.4696750000000  0.4270270000000  0.5677010000000 1.0
C      1  0.5102530000000  0.5884840000000  0.5667920000000 1.0
C      1  0.4583960000000  0.5379580000000  0.3854160000000 1.0
C      1  0.4169270000000  0.5523570000000  0.5004290000000 1.0
C      1  0.5933740000000  0.5543660000000  0.5036710000000 1.0
C      1  0.5145930000000  0.5229230000000  0.4889420000000 1.0
C      1  0.5458830000000  0.4835090000000  0.4028500000000 1.0
C      1  0.4869840000000  0.5235580000000  0.5256520000000 1.0
C      1  0.4205030000000  0.4837630000000  0.4522220000000 1.0
C      1  0.5316740000000  0.4822310000000  0.5735030000000 1.0
C      1  0.4624820000000  0.5893330000000  0.5592380000000 1.0
C      1  0.4256600000000  0.4326680000000  0.5182680000000 1.0
C      1  0.5669220000000  0.4431600000000  0.4337320000000 1.0
C      1  0.4576950000000  0.4617120000000  0.5313390000000 1.0
C      1  0.4579470000000  0.3907810000000  0.4941240000000 1.0
C      1  0.4452960000000  0.4752790000000  0.5810690000000 1.0
C      1  0.4743380000000  0.5799170000000  0.4192970000000 1.0
C      1  0.5739240000000  0.5050590000000  0.4579150000000 1.0
C      1  0.5193210000000  0.4014220000000  0.4828700000000 1.0
C      1  0.5558590000000  0.4398180000000  0.5844490000000 1.0
C      1  0.5691550000000  0.4615380000000  0.4133090000000 1.0
C      1  0.5804510000000  0.4451520000000  0.4958340000000 1.0
C      1  0.4552770000000  0.5394520000000  0.4292250000000 1.0
C      1  0.4896030000000  0.4900440000000  0.5590910000000 1.0
C      1  0.5977770000000  0.5792770000000  0.5192650000000 1.0
C      1  0.4118180000000  0.4800380000000  0.5424020000000 1.0
C      1  0.4286970000000  0.5305050000000  0.4356300000000 1.0
C      1  0.6008550000000  0.4947820000000  0.4628580000000 1.0
C      1  0.4834000000000  0.3957180000000  0.5162350000000 1.0
C      1  0.4568710000000  0.5845580000000  0.5036880000000 1.0
C      1  0.4297340000000  0.5488500000000  0.5650910000000 1.0
C      1  0.4403550000000  0.4950040000000  0.4072760000000 1.0
C      1  0.5079940000000  0.5825920000000  0.4988870000000 1.0
C      1  0.4897790000000  0.4662940000000  0.3868590000000 1.0
C      1  0.3990550000000  0.4936010000000  0.4721620000000 1.0
C      1  0.4201290000000  0.5442240000000  0.4592010000000 1.0
C      1  0.4988110000000  0.4319830000000  0.5745460000000 1.0
C      1  0.5422270000000  0.4290740000000  0.4342340000000 1.0
C      1  0.4224920000000  0.4898870000000  0.5709080000000 1.0
C      1  0.4721390000000  0.5900950000000  0.4502400000000 1.0
C      1  0.5393600000000  0.5211270000000  0.4709790000000 1.0
C      1  0.4799850000000  0.4704950000000  0.4993350000000 1.0
C      1  0.5829370000000  0.4441250000000  0.4614200000000 1.0
C      1  0.5193060000000  0.4675340000000  0.4136710000000 1.0
C      1  0.4932630000000  0.4936520000000  0.3885550000000 1.0
C      1  0.5639130000000  0.4221800000000  0.5143520000000 1.0
C      1  0.4845810000000  0.5930100000000  0.5137170000000 1.0
C      1  0.5190290000000  0.5574870000000  0.4347870000000 1.0
C      1  0.4682330000000  0.5112330000000  0.5684600000000 1.0
C      1  0.4205530000000  0.5203020000000  0.5706100000000 1.0
C      1  0.5395210000000  0.4444790000000  0.5066060000000 1.0
C      1  0.5317060000000  0.4808340000000  0.4401070000000 1.0
C      1  0.5769780000000  0.5463940000000  0.4327120000000 1.0
C      1  0.5679420000000  0.5680110000000  0.5311620000000 1.0
C      1  0.3905400000000  0.5077570000000  0.4929770000000 1.0
C      1  0.4454520000000  0.4074930000000  0.5182900000000 1.0
C      1  0.5225040000000  0.5408500000000  0.3955360000000 1.0
C      1  0.4479900000000  0.4769300000000  0.4668570000000 1.0
C      1  0.4638000000000  0.4588500000000  0.4547330000000 1.0
C      1  0.5611910000000  0.5416220000000  0.5820870000000 1.0
C      1  0.5688690000000  0.5356180000000  0.4605270000000 1.0
C      1  0.5378670000000  0.5660670000000  0.4093000000000 1.0
C      1  0.5372720000000  0.4702260000000  0.4911960000000 1.0
C      1  0.4500350000000  0.4507440000000  0.5623020000000 1.0
C      1  0.5106040000000  0.4066970000000  0.5309190000000 1.0
C      1  0.4357620000000  0.5336080000000  0.4846040000000 1.0
C      1  0.3970700000000  0.5394590000000  0.5326620000000 1.0
C      1  0.5328650000000  0.4214640000000  0.4619990000000 1.0
C      1  0.4559720000000  0.5202310000000  0.5263250000000 1.0
C      1  0.5655330000000  0.4618110000000  0.5693230000000 1.0
C      1  0.4899450000000  0.5064760000000  0.6008500000000 1.0
C      1  0.5371940000000  0.5163380000000  0.4228190000000 1.0
C      1  0.4791010000000  0.4387790000000  0.4913300000000 1.0
C      1  0.5462740000000  0.4892420000000  0.4679860000000 1.0
C      1  0.5297020000000  0.5333440000000  0.4436500000000 1.0
C      1  0.5318520000000  0.4111710000000  0.5091340000000 1.0
C      1  0.5210700000000  0.4830990000000  0.5252060000000 1.0
C      1  0.5709450000000  0.5103850000000  0.5521460000000 1.0
C      1  0.4814830000000  0.4161920000000  0.4522390000000 1.0
C      1  0.4516640000000  0.4227340000000  0.4428640000000 1.0
C      1  0.4662760000000  0.4324890000000  0.5284910000000 1.0
C      1  0.4252340000000  0.5720460000000  0.4605970000000 1.0
C      1  0.5438480000000  0.4348900000000  0.5389510000000 1.0
C      1  0.5359760000000  0.5741650000000  0.4887960000000 1.0
C      1  0.5617690000000  0.6138090000000  0.5489600000000 1.0
C      1  0.3962780000000  0.5059940000000  0.5266170000000 1.0
C      1  0.4176880000000  0.5578310000000  0.5407470000000 1.0
END
