TITL C-2778433-5640-30 0.00498300949425854 125000 -786.284658787635 0 0 132 (C1) n - 1
REM
REM in /home/nfs/bkarasulu/CARBON/AIRSS/Generating-Clusters/REBO/Only-C1/SD-CG/HFTN-CG
REM
REM
REM
REM
REM
REM ./C.cell (11c1c37f851c82e70ff6c80c92926a4b)
REM
REM compiler GCC version 9.2.1 20190827 (Red Hat 9.2.1-1)
REM options -cpp -mtune=generic -march=x86-64 -g -O0 -fpre-include=/usr/include/finclude/math-vector-fortran.h
REM seed 1824516919 545738367 -761165532 -1424974416 1844186468 1769579117 -1253794420 -93059447 -572115443 1112425554 -1273146332 2132448748 -1061161365 -1816161622 1340639603 1512732687 -567033766 570842108 -1136476428 -1186496294 502767171 -2140504579 94362434 -1883165349 -495941138 1745969119 1308868596 1343217210 -1049417977 118456847 -474489782 1388817564 572679338
REM
CELL 1.54180   50.00000   50.00000   50.00000   90.00000   90.00000   90.00000
LATT -1
SFAC C  
C      1  0.4362840000000  0.4707340000000  0.4732720000000 1.0
C      1  0.5604120000000  0.4798260000000  0.5316280000000 1.0
C      1  0.4101180000000  0.5220620000000  0.4520370000000 1.0
C      1  0.4526710000000  0.5472830000000  0.5369870000000 1.0
C      1  0.5279990000000  0.4297170000000  0.5399230000000 1.0
C      1  0.4195540000000  0.5230900000000  0.5075660000000 1.0
C      1  0.5224640000000  0.4661580000000  0.5942620000000 1.0
C      1  0.4435390000000  0.5316630000000  0.5586540000000 1.0
C      1  0.5370900000000  0.4973750000000  0.4195350000000 1.0
C      1  0.4131670000000  0.4998820000000  0.5312680000000 1.0
C      1  0.4483320000000  0.5151660000000  0.4614010000000 1.0
C      1  0.4513160000000  0.4992140000000  0.5803050000000 1.0
C      1  0.4674170000000  0.5293600000000  0.5795580000000 1.0
C      1  0.4872660000000  0.4710600000000  0.4914070000000 1.0
C      1  0.4788690000000  0.5604380000000  0.4390260000000 1.0
C      1  0.5343890000000  0.5666660000000  0.4782140000000 1.0
C      1  0.5666060000000  0.4412920000000  0.4309710000000 1.0
C      1  0.5651800000000  0.5399660000000  0.5584150000000 1.0
C      1  0.3945940000000  0.5372690000000  0.4977970000000 1.0
C      1  0.4606430000000  0.5851400000000  0.4887640000000 1.0
C      1  0.5087230000000  0.5401520000000  0.5431570000000 1.0
C      1  0.5048600000000  0.4949400000000  0.4599060000000 1.0
C      1  0.5901670000000  0.4329330000000  0.4912980000000 1.0
C      1  0.5250390000000  0.5171730000000  0.5837580000000 1.0
C      1  0.4885870000000  0.5840930000000  0.5584200000000 1.0
C      1  0.5411720000000  0.5290150000000  0.4084560000000 1.0
C      1  0.4679050000000  0.4584060000000  0.4434180000000 1.0
C      1  0.4732690000000  0.5226390000000  0.5085810000000 1.0
C      1  0.4291270000000  0.5056780000000  0.5580280000000 1.0
C      1  0.5718080000000  0.5566620000000  0.5112670000000 1.0
C      1  0.4956310000000  0.5728620000000  0.5036980000000 1.0
C      1  0.4682140000000  0.4810280000000  0.4676340000000 1.0
C      1  0.5859620000000  0.5410070000000  0.4904400000000 1.0
C      1  0.4474560000000  0.3981570000000  0.4693670000000 1.0
C      1  0.4797350000000  0.4411540000000  0.5818730000000 1.0
C      1  0.4244590000000  0.4522040000000  0.5194830000000 1.0
C      1  0.4187430000000  0.4891730000000  0.4547490000000 1.0
C      1  0.4696260000000  0.3876950000000  0.4932660000000 1.0
C      1  0.5557150000000  0.5802790000000  0.5169000000000 1.0
C      1  0.4586050000000  0.4403270000000  0.5635420000000 1.0
C      1  0.4494320000000  0.5173570000000  0.4111710000000 1.0
C      1  0.5930390000000  0.4516330000000  0.4754890000000 1.0
C      1  0.4741250000000  0.5210390000000  0.4424140000000 1.0
C      1  0.5634030000000  0.4555420000000  0.5104580000000 1.0
C      1  0.5562390000000  0.4312040000000  0.5415890000000 1.0
C      1  0.5207460000000  0.5453500000000  0.5739680000000 1.0
C      1  0.4899100000000  0.5545840000000  0.5752630000000 1.0
C      1  0.5410290000000  0.4371040000000  0.4426690000000 1.0
C      1  0.4925470000000  0.4816160000000  0.4076940000000 1.0
C      1  0.5387120000000  0.5769450000000  0.5403360000000 1.0
C      1  0.4371100000000  0.4590910000000  0.5642040000000 1.0
C      1  0.5461140000000  0.4943060000000  0.4972100000000 1.0
C      1  0.5674640000000  0.4510350000000  0.5584500000000 1.0
C      1  0.5291670000000  0.5498820000000  0.4316310000000 1.0
C      1  0.5232490000000  0.5455750000000  0.4942460000000 1.0
C      1  0.4848050000000  0.5387110000000  0.4144220000000 1.0
C      1  0.5050930000000  0.4512440000000  0.5760260000000 1.0
C      1  0.4002430000000  0.4887210000000  0.5018080000000 1.0
C      1  0.5157720000000  0.6062040000000  0.4949620000000 1.0
C      1  0.5397850000000  0.5901240000000  0.4944390000000 1.0
C      1  0.4217590000000  0.5511140000000  0.4619330000000 1.0
C      1  0.5976700000000  0.4881650000000  0.4909600000000 1.0
C      1  0.5242520000000  0.5717420000000  0.4519730000000 1.0
C      1  0.5293180000000  0.5327290000000  0.5218320000000 1.0
C      1  0.4754410000000  0.4820410000000  0.5197830000000 1.0
C      1  0.5730560000000  0.4954180000000  0.5877020000000 1.0
C      1  0.4459650000000  0.5409710000000  0.5079160000000 1.0
C      1  0.4460220000000  0.5603910000000  0.4836260000000 1.0
C      1  0.5890540000000  0.4660670000000  0.5432320000000 1.0
C      1  0.4412460000000  0.4998900000000  0.4342040000000 1.0
C      1  0.5169820000000  0.4168070000000  0.5140460000000 1.0
C      1  0.5584450000000  0.4912330000000  0.4421170000000 1.0
C      1  0.3979330000000  0.5032030000000  0.4771120000000 1.0
C      1  0.4428970000000  0.4131100000000  0.4459320000000 1.0
C      1  0.4664170000000  0.4778790000000  0.5930320000000 1.0
C      1  0.5669590000000  0.4230500000000  0.5118860000000 1.0
C      1  0.4909760000000  0.5066890000000  0.5304110000000 1.0
C      1  0.4234380000000  0.4695780000000  0.5418940000000 1.0
C      1  0.4672740000000  0.4319390000000  0.5354010000000 1.0
C      1  0.4838980000000  0.6094750000000  0.5401050000000 1.0
C      1  0.5030300000000  0.4428640000000  0.5025230000000 1.0
C      1  0.4320020000000  0.5383550000000  0.4315280000000 1.0
C      1  0.5027250000000  0.5381510000000  0.4496100000000 1.0
C      1  0.5313450000000  0.4810100000000  0.5435580000000 1.0
C      1  0.5130210000000  0.4553190000000  0.5472440000000 1.0
C      1  0.4942960000000  0.4467660000000  0.4421450000000 1.0
C      1  0.5531080000000  0.5079690000000  0.4708660000000 1.0
C      1  0.4924170000000  0.5413710000000  0.4904830000000 1.0
C      1  0.4525080000000  0.5573660000000  0.4501600000000 1.0
C      1  0.5273210000000  0.5164390000000  0.4532740000000 1.0
C      1  0.4897830000000  0.5934920000000  0.4770160000000 1.0
C      1  0.5369530000000  0.4951860000000  0.5709010000000 1.0
C      1  0.4904420000000  0.6062750000000  0.5140350000000 1.0
C      1  0.4977940000000  0.5816250000000  0.4511600000000 1.0
C      1  0.4837160000000  0.4102080000000  0.5149940000000 1.0
C      1  0.5111140000000  0.5787480000000  0.5335030000000 1.0
C      1  0.4473090000000  0.4394230000000  0.4391220000000 1.0
C      1  0.5154530000000  0.4674780000000  0.4736420000000 1.0
C      1  0.4792630000000  0.4181960000000  0.4821650000000 1.0
C      1  0.3735880000000  0.5492030000000  0.4895760000000 1.0
C      1  0.4453580000000  0.4160430000000  0.4953710000000 1.0
C      1  0.5738700000000  0.5197930000000  0.5757860000000 1.0
C      1  0.5191670000000  0.4722900000000  0.4115560000000 1.0
C      1  0.4921880000000  0.5173730000000  0.5609430000000 1.0
C      1  0.4986990000000  0.5092260000000  0.5933820000000 1.0
C      1  0.5851420000000  0.4810490000000  0.4618940000000 1.0
C      1  0.5413630000000  0.4153590000000  0.4942600000000 1.0
C      1  0.4949050000000  0.4817510000000  0.5996700000000 1.0
C      1  0.4495330000000  0.4836220000000  0.5023460000000 1.0
C      1  0.5931200000000  0.5146370000000  0.5009340000000 1.0
C      1  0.5541420000000  0.4686800000000  0.5820370000000 1.0
C      1  0.4783870000000  0.5099420000000  0.3987920000000 1.0
C      1  0.4983590000000  0.4383930000000  0.4708170000000 1.0
C      1  0.5395330000000  0.4352000000000  0.4717290000000 1.0
C      1  0.5552330000000  0.5315180000000  0.4391980000000 1.0
C      1  0.4852760000000  0.4927660000000  0.4342340000000 1.0
C      1  0.5189360000000  0.4496470000000  0.4289280000000 1.0
C      1  0.4149840000000  0.4645340000000  0.4963800000000 1.0
C      1  0.4883470000000  0.4546560000000  0.5278240000000 1.0
C      1  0.5596530000000  0.5342150000000  0.5291270000000 1.0
C      1  0.5222400000000  0.5014040000000  0.5204080000000 1.0
C      1  0.4797120000000  0.5563340000000  0.5423310000000 1.0
C      1  0.5716770000000  0.5359790000000  0.4666150000000 1.0
C      1  0.5451170000000  0.5600670000000  0.5629840000000 1.0
C      1  0.4388760000000  0.5081580000000  0.4867050000000 1.0
C      1  0.5778600000000  0.4657150000000  0.4335130000000 1.0
C      1  0.4833040000000  0.5097260000000  0.4795990000000 1.0
C      1  0.5931640000000  0.4692140000000  0.5113910000000 1.0
C      1  0.5433070000000  0.4637450000000  0.4876400000000 1.0
C      1  0.5685100000000  0.5073290000000  0.5187340000000 1.0
C      1  0.5106120000000  0.5171120000000  0.4082700000000 1.0
C      1  0.4425400000000  0.4313830000000  0.5173230000000 1.0
END
