TITL C-2778426-5645-161 -0.00112617514361153 125000 -368.798261275356 0 0 65 (C1) n - 1
REM
REM in /home/nfs/bkarasulu/CARBON/AIRSS/Generating-Clusters/REBO/Only-C1/SD-CG/HFTN-CG
REM
REM
REM
REM
REM
REM ./C.cell (11c1c37f851c82e70ff6c80c92926a4b)
REM
REM compiler GCC version 9.2.1 20190827 (Red Hat 9.2.1-1)
REM options -cpp -mtune=generic -march=x86-64 -g -O0 -fpre-include=/usr/include/finclude/math-vector-fortran.h
REM seed -1737009129 -243174502 1304491896 1260357407 -1506153918 -1134287536 -1833104698 74013011 -1740586543 1381427271 -1713864152 -144297948 -1882499434 -1237586282 1047084760 -1392317299 1693165950 1112276614 810701301 321823462 505744126 -1032926557 -851612845 2061987215 1465446452 -61388289 -800754816 1915401231 -1844257776 1212178237 -1102913988 905581486 1444862638
REM
CELL 1.54180   50.00000   50.00000   50.00000   90.00000   90.00000   90.00000
LATT -1
SFAC C  
C      1  0.4537700000000  0.5464840000000  0.4933550000000 1.0
C      1  0.5364870000000  0.4729890000000  0.5443170000000 1.0
C      1  0.5439540000000  0.4896480000000  0.4948620000000 1.0
C      1  0.4891680000000  0.5609960000000  0.4619060000000 1.0
C      1  0.4634700000000  0.4513840000000  0.4882790000000 1.0
C      1  0.4310170000000  0.4469780000000  0.4866910000000 1.0
C      1  0.4778310000000  0.5623850000000  0.4923580000000 1.0
C      1  0.4682680000000  0.5422740000000  0.4464760000000 1.0
C      1  0.5755640000000  0.4532330000000  0.5225750000000 1.0
C      1  0.5311570000000  0.4976070000000  0.4275120000000 1.0
C      1  0.4516480000000  0.5124240000000  0.4478540000000 1.0
C      1  0.4794030000000  0.5019300000000  0.4844580000000 1.0
C      1  0.5225260000000  0.5560120000000  0.5038480000000 1.0
C      1  0.4269420000000  0.5113720000000  0.4945910000000 1.0
C      1  0.5185260000000  0.5599120000000  0.4467420000000 1.0
C      1  0.4698850000000  0.5635500000000  0.5424120000000 1.0
C      1  0.5407820000000  0.5383470000000  0.5159470000000 1.0
C      1  0.5136360000000  0.4638350000000  0.5217260000000 1.0
C      1  0.4661450000000  0.4767660000000  0.4656850000000 1.0
C      1  0.4827160000000  0.5504050000000  0.5659160000000 1.0
C      1  0.4999430000000  0.4693190000000  0.4456290000000 1.0
C      1  0.5160380000000  0.4613460000000  0.4914780000000 1.0
C      1  0.4319510000000  0.5032550000000  0.4650700000000 1.0
C      1  0.5087440000000  0.5191330000000  0.4182960000000 1.0
C      1  0.4430010000000  0.5455030000000  0.4679320000000 1.0
C      1  0.4224670000000  0.4765270000000  0.4758480000000 1.0
C      1  0.5461170000000  0.4854870000000  0.4425080000000 1.0
C      1  0.5102280000000  0.5568410000000  0.5704300000000 1.0
C      1  0.5042190000000  0.4811860000000  0.4738370000000 1.0
C      1  0.5639100000000  0.4771730000000  0.5323990000000 1.0
C      1  0.4416230000000  0.5020770000000  0.5239910000000 1.0
C      1  0.4771850000000  0.5178600000000  0.5608040000000 1.0
C      1  0.5327540000000  0.4993180000000  0.5144400000000 1.0
C      1  0.5132140000000  0.4295630000000  0.5012270000000 1.0
C      1  0.4694210000000  0.4523770000000  0.5334620000000 1.0
C      1  0.4958090000000  0.5551440000000  0.5132460000000 1.0
C      1  0.5625500000000  0.5238470000000  0.5040340000000 1.0
C      1  0.5102710000000  0.4945080000000  0.5469810000000 1.0
C      1  0.4550770000000  0.4960910000000  0.5519890000000 1.0
C      1  0.4810160000000  0.5328200000000  0.5304110000000 1.0
C      1  0.5233380000000  0.5156900000000  0.5874200000000 1.0
C      1  0.5291370000000  0.5364190000000  0.4364750000000 1.0
C      1  0.4986400000000  0.4993210000000  0.5775350000000 1.0
C      1  0.5668530000000  0.4349800000000  0.5042230000000 1.0
C      1  0.5628750000000  0.5233490000000  0.4755700000000 1.0
C      1  0.4881990000000  0.4810170000000  0.5285510000000 1.0
C      1  0.5285020000000  0.5215210000000  0.5399900000000 1.0
C      1  0.4634440000000  0.5200220000000  0.5077550000000 1.0
C      1  0.4803230000000  0.4330600000000  0.5093360000000 1.0
C      1  0.4649890000000  0.4688630000000  0.5585000000000 1.0
C      1  0.5420680000000  0.4403250000000  0.4864350000000 1.0
C      1  0.5721730000000  0.5019340000000  0.5203970000000 1.0
C      1  0.4811910000000  0.5150980000000  0.4305640000000 1.0
C      1  0.5083350000000  0.5253950000000  0.3909710000000 1.0
C      1  0.5204010000000  0.5654720000000  0.4772100000000 1.0
C      1  0.5505000000000  0.5255090000000  0.4514050000000 1.0
C      1  0.5045060000000  0.4334820000000  0.5340460000000 1.0
C      1  0.4910430000000  0.4694230000000  0.5723060000000 1.0
C      1  0.5244890000000  0.4537210000000  0.4531450000000 1.0
C      1  0.4362990000000  0.4743310000000  0.5064140000000 1.0
C      1  0.4753320000000  0.4839010000000  0.4368230000000 1.0
C      1  0.5286000000000  0.5351660000000  0.5679570000000 1.0
C      1  0.5487120000000  0.4697000000000  0.4704070000000 1.0
C      1  0.5125330000000  0.4540470000000  0.5599270000000 1.0
C      1  0.4690890000000  0.4803420000000  0.5051140000000 1.0
END
