TITL C-2778429-3646-1014 -0.0030857682463877 125000 -756.010805055508 0 0 131 (C1) n - 1
REM
REM in /home/nfs/bkarasulu/CARBON/AIRSS/Generating-Clusters/REBO/Only-C1/SD-CG/HFTN-CG
REM
REM
REM
REM
REM
REM ./C.cell (11c1c37f851c82e70ff6c80c92926a4b)
REM
REM compiler GCC version 9.2.1 20190827 (Red Hat 9.2.1-1)
REM options -cpp -mtune=generic -march=x86-64 -g -O0 -fpre-include=/usr/include/finclude/math-vector-fortran.h
REM seed 1842728558 -1890531266 -486971454 -1056027411 1083079326 1505533749 1224457779 693181978 1623436007 -1846967942 1492545143 -768510540 -326686844 -1041955220 1253030625 -1196465727 1658880953 -1714420294 396751140 -1492352257 1448728632 -1276405719 -1379874302 340062419 -2035171331 1137570370 -1016996758 -2041213091 825338683 -1601496840 628904871 867234341 1505736285
REM
CELL 1.54180   50.00000   50.00000   50.00000   90.00000   90.00000   90.00000
LATT -1
SFAC C  
C      1  0.4297540000000  0.4467770000000  0.5076230000000 1.0
C      1  0.5030410000000  0.5055160000000  0.4125870000000 1.0
C      1  0.5130420000000  0.5549330000000  0.4250720000000 1.0
C      1  0.5181310000000  0.4881020000000  0.4450070000000 1.0
C      1  0.4350660000000  0.5250850000000  0.4366850000000 1.0
C      1  0.4158150000000  0.4886620000000  0.5375250000000 1.0
C      1  0.4232180000000  0.4664360000000  0.4411760000000 1.0
C      1  0.4902970000000  0.4023590000000  0.5209310000000 1.0
C      1  0.5592320000000  0.5095820000000  0.4743750000000 1.0
C      1  0.5147790000000  0.5389760000000  0.5892670000000 1.0
C      1  0.4848590000000  0.5186490000000  0.5172910000000 1.0
C      1  0.4835890000000  0.4857770000000  0.4811130000000 1.0
C      1  0.5541210000000  0.5480440000000  0.4837430000000 1.0
C      1  0.4569910000000  0.5550000000000  0.4508050000000 1.0
C      1  0.5400870000000  0.5515300000000  0.4341440000000 1.0
C      1  0.4805420000000  0.4830560000000  0.4133200000000 1.0
C      1  0.5154890000000  0.4562060000000  0.4832940000000 1.0
C      1  0.4351630000000  0.4961790000000  0.4548540000000 1.0
C      1  0.4984350000000  0.5093780000000  0.4520890000000 1.0
C      1  0.5626510000000  0.4589930000000  0.4309610000000 1.0
C      1  0.5176600000000  0.4565840000000  0.4528010000000 1.0
C      1  0.4053370000000  0.5162110000000  0.5206840000000 1.0
C      1  0.5400390000000  0.4225160000000  0.5079790000000 1.0
C      1  0.5181200000000  0.4031760000000  0.5132790000000 1.0
C      1  0.5457870000000  0.4721940000000  0.5484090000000 1.0
C      1  0.5086860000000  0.4392320000000  0.5274040000000 1.0
C      1  0.5804410000000  0.4970650000000  0.5057700000000 1.0
C      1  0.4509950000000  0.4735600000000  0.5615080000000 1.0
C      1  0.5571890000000  0.5604680000000  0.5097890000000 1.0
C      1  0.5622310000000  0.5113540000000  0.5504700000000 1.0
C      1  0.5849730000000  0.5020460000000  0.4316960000000 1.0
C      1  0.5008620000000  0.6018930000000  0.5211800000000 1.0
C      1  0.4178600000000  0.4921520000000  0.4844440000000 1.0
C      1  0.4487990000000  0.4870000000000  0.5303490000000 1.0
C      1  0.6021580000000  0.5341690000000  0.4701950000000 1.0
C      1  0.5570890000000  0.4574560000000  0.4647160000000 1.0
C      1  0.5376980000000  0.4635990000000  0.5784480000000 1.0
C      1  0.5850030000000  0.5230060000000  0.4878650000000 1.0
C      1  0.4302310000000  0.5701790000000  0.4763150000000 1.0
C      1  0.4647420000000  0.5441190000000  0.4798750000000 1.0
C      1  0.4900440000000  0.5264640000000  0.5995730000000 1.0
C      1  0.5877140000000  0.5243870000000  0.5336990000000 1.0
C      1  0.4883780000000  0.4521230000000  0.4260260000000 1.0
C      1  0.4816510000000  0.4732010000000  0.4517350000000 1.0
C      1  0.5844470000000  0.4904440000000  0.5377870000000 1.0
C      1  0.4903540000000  0.4859250000000  0.5647800000000 1.0
C      1  0.4608820000000  0.4499060000000  0.5215430000000 1.0
C      1  0.4708880000000  0.4157380000000  0.5006580000000 1.0
C      1  0.5055790000000  0.4403720000000  0.5817470000000 1.0
C      1  0.5330730000000  0.5203980000000  0.5392490000000 1.0
C      1  0.5176220000000  0.5151280000000  0.5114010000000 1.0
C      1  0.5741880000000  0.4590640000000  0.5349670000000 1.0
C      1  0.4293190000000  0.5677030000000  0.4443900000000 1.0
C      1  0.4247620000000  0.4562440000000  0.5373740000000 1.0
C      1  0.4667760000000  0.5454090000000  0.5136180000000 1.0
C      1  0.4974530000000  0.4234950000000  0.4690330000000 1.0
C      1  0.4799240000000  0.5093530000000  0.5485530000000 1.0
C      1  0.5318530000000  0.4359720000000  0.5596120000000 1.0
C      1  0.4981310000000  0.4349610000000  0.4993790000000 1.0
C      1  0.5102700000000  0.4278440000000  0.4307520000000 1.0
C      1  0.4869860000000  0.4940750000000  0.5979120000000 1.0
C      1  0.5010980000000  0.4225130000000  0.5533550000000 1.0
C      1  0.4668160000000  0.5125420000000  0.4909220000000 1.0
C      1  0.5002360000000  0.6011220000000  0.4869810000000 1.0
C      1  0.4485510000000  0.4276690000000  0.4906860000000 1.0
C      1  0.4733680000000  0.4393230000000  0.5756750000000 1.0
C      1  0.4846000000000  0.5693320000000  0.5050470000000 1.0
C      1  0.5335150000000  0.5750270000000  0.5168850000000 1.0
C      1  0.5701880000000  0.4544710000000  0.5031140000000 1.0
C      1  0.4641600000000  0.5535420000000  0.5629720000000 1.0
C      1  0.4196300000000  0.5404100000000  0.4630210000000 1.0
C      1  0.4543870000000  0.4424520000000  0.4671340000000 1.0
C      1  0.5249310000000  0.4179970000000  0.4601270000000 1.0
C      1  0.5332890000000  0.4949240000000  0.4173910000000 1.0
C      1  0.4664540000000  0.5371760000000  0.4283990000000 1.0
C      1  0.4454290000000  0.4398290000000  0.5567590000000 1.0
C      1  0.5039930000000  0.5299770000000  0.5500530000000 1.0
C      1  0.4086460000000  0.5227950000000  0.4869740000000 1.0
C      1  0.5186590000000  0.4647960000000  0.5338660000000 1.0
C      1  0.5015290000000  0.4840180000000  0.5266600000000 1.0
C      1  0.4943440000000  0.5548430000000  0.5589170000000 1.0
C      1  0.6056840000000  0.5199590000000  0.4128080000000 1.0
C      1  0.4099390000000  0.4520190000000  0.4607950000000 1.0
C      1  0.4298290000000  0.5372430000000  0.5082660000000 1.0
C      1  0.5092580000000  0.5315710000000  0.4651610000000 1.0
C      1  0.4548420000000  0.5208940000000  0.5632380000000 1.0
C      1  0.4519890000000  0.5016090000000  0.4185040000000 1.0
C      1  0.4684700000000  0.5027930000000  0.4483730000000 1.0
C      1  0.5504970000000  0.4860360000000  0.5176570000000 1.0
C      1  0.5869270000000  0.4725790000000  0.4862540000000 1.0
C      1  0.6035600000000  0.5275300000000  0.4432430000000 1.0
C      1  0.4698700000000  0.4224690000000  0.5398700000000 1.0
C      1  0.5146010000000  0.4898370000000  0.4896790000000 1.0
C      1  0.5683550000000  0.5478620000000  0.5332110000000 1.0
C      1  0.5388820000000  0.4858430000000  0.4693800000000 1.0
C      1  0.5020540000000  0.5805140000000  0.4340100000000 1.0
C      1  0.4399440000000  0.5049890000000  0.5042420000000 1.0
C      1  0.4438100000000  0.5864560000000  0.4919420000000 1.0
C      1  0.5448530000000  0.4296170000000  0.4778770000000 1.0
C      1  0.5315730000000  0.5256650000000  0.4846790000000 1.0
C      1  0.4481830000000  0.4694910000000  0.4721250000000 1.0
C      1  0.4643860000000  0.5367650000000  0.5910800000000 1.0
C      1  0.5767110000000  0.4850690000000  0.4577260000000 1.0
C      1  0.4456580000000  0.5870110000000  0.5317360000000 1.0
C      1  0.4687030000000  0.5969790000000  0.5112320000000 1.0
C      1  0.5466170000000  0.5478070000000  0.5542550000000 1.0
C      1  0.5091910000000  0.4681650000000  0.5971230000000 1.0
C      1  0.5494660000000  0.4357600000000  0.5326560000000 1.0
C      1  0.5565330000000  0.5549950000000  0.4560560000000 1.0
C      1  0.5334780000000  0.5178430000000  0.5869190000000 1.0
C      1  0.5133580000000  0.5727770000000  0.4969780000000 1.0
C      1  0.5197120000000  0.5859650000000  0.5414820000000 1.0
C      1  0.5228970000000  0.5652290000000  0.5683510000000 1.0
C      1  0.5407520000000  0.4618040000000  0.5008280000000 1.0
C      1  0.4269390000000  0.5151730000000  0.5540890000000 1.0
C      1  0.5211630000000  0.4925810000000  0.5776830000000 1.0
C      1  0.4119620000000  0.4621480000000  0.4869980000000 1.0
C      1  0.4567600000000  0.4860740000000  0.5864440000000 1.0
C      1  0.4939210000000  0.5327010000000  0.4199310000000 1.0
C      1  0.4747750000000  0.4785550000000  0.5120590000000 1.0
C      1  0.6163310000000  0.5243600000000  0.3885460000000 1.0
C      1  0.5595890000000  0.5192790000000  0.5796750000000 1.0
C      1  0.4958770000000  0.5814670000000  0.4621720000000 1.0
C      1  0.4788300000000  0.4600140000000  0.5490470000000 1.0
C      1  0.4189430000000  0.5421420000000  0.5388580000000 1.0
C      1  0.5388560000000  0.4427660000000  0.4323880000000 1.0
C      1  0.4922990000000  0.5533860000000  0.4693040000000 1.0
C      1  0.4772470000000  0.4337220000000  0.4524650000000 1.0
C      1  0.4536570000000  0.4702160000000  0.4309790000000 1.0
C      1  0.5605450000000  0.4856240000000  0.4207110000000 1.0
C      1  0.4474070000000  0.5584570000000  0.5371540000000 1.0
END
