TITL C-2778437-8639-31 -0.0042431296267658 125000 -546.678438347231 0 0 94 (C1) n - 1
REM
REM in /home/nfs/bkarasulu/CARBON/AIRSS/Generating-Clusters/REBO/Only-C1/SD-CG/HFTN-CG
REM
REM
REM
REM
REM
REM ./C.cell (11c1c37f851c82e70ff6c80c92926a4b)
REM
REM compiler GCC version 9.2.1 20190827 (Red Hat 9.2.1-1)
REM options -cpp -mtune=generic -march=x86-64 -g -O0 -fpre-include=/usr/include/finclude/math-vector-fortran.h
REM seed -654063326 1750793438 893527564 -542541885 388830804 -1800629529 551320116 -776342904 1043457406 468778274 86335323 -299745504 373466602 1018854596 -1251414670 -1746481234 -1325674542 -1940215397 476583415 -2111050454 -1237261742 -262222056 -586070964 1484846405 -243033721 1511539348 86987330 -994704122 -1001526496 -1526817153 -1884156116 373970040 -353216957
REM
CELL 1.54180   50.00000   50.00000   50.00000   90.00000   90.00000   90.00000
LATT -1
SFAC C  
C      1  0.4618750000000  0.4477190000000  0.4424000000000 1.0
C      1  0.5489470000000  0.5104490000000  0.4586830000000 1.0
C      1  0.5705510000000  0.4903810000000  0.5563140000000 1.0
C      1  0.4935730000000  0.4753440000000  0.4123600000000 1.0
C      1  0.4644290000000  0.5248110000000  0.4769580000000 1.0
C      1  0.4189490000000  0.5048500000000  0.4891310000000 1.0
C      1  0.4612040000000  0.4424650000000  0.5306640000000 1.0
C      1  0.5200730000000  0.5896440000000  0.4636100000000 1.0
C      1  0.4518020000000  0.5438430000000  0.4516300000000 1.0
C      1  0.4738780000000  0.5535110000000  0.4834560000000 1.0
C      1  0.5273300000000  0.5680790000000  0.4493630000000 1.0
C      1  0.5418700000000  0.4346510000000  0.5072810000000 1.0
C      1  0.5549860000000  0.4342340000000  0.4556660000000 1.0
C      1  0.4894470000000  0.5079290000000  0.4669340000000 1.0
C      1  0.4509070000000  0.5725690000000  0.5100070000000 1.0
C      1  0.5080840000000  0.4718190000000  0.5452230000000 1.0
C      1  0.4947460000000  0.5550800000000  0.5266320000000 1.0
C      1  0.4934630000000  0.5106630000000  0.5005080000000 1.0
C      1  0.4681930000000  0.5730480000000  0.4567660000000 1.0
C      1  0.5349800000000  0.5297570000000  0.5337270000000 1.0
C      1  0.5094820000000  0.4211270000000  0.4725780000000 1.0
C      1  0.4692100000000  0.4216990000000  0.5086090000000 1.0
C      1  0.4783520000000  0.4715740000000  0.5053290000000 1.0
C      1  0.5444470000000  0.4916410000000  0.5046610000000 1.0
C      1  0.5293220000000  0.5778910000000  0.5005480000000 1.0
C      1  0.5755040000000  0.4959420000000  0.5087470000000 1.0
C      1  0.5070920000000  0.4565180000000  0.5085740000000 1.0
C      1  0.5118870000000  0.5453520000000  0.5456730000000 1.0
C      1  0.5477860000000  0.5865720000000  0.5201100000000 1.0
C      1  0.4195620000000  0.4508290000000  0.5068290000000 1.0
C      1  0.4983030000000  0.5414700000000  0.5697310000000 1.0
C      1  0.5094930000000  0.4420650000000  0.5718910000000 1.0
C      1  0.5793660000000  0.4513650000000  0.5315080000000 1.0
C      1  0.4771540000000  0.5166820000000  0.4375360000000 1.0
C      1  0.4333260000000  0.4483240000000  0.5306000000000 1.0
C      1  0.5328760000000  0.5397840000000  0.4222160000000 1.0
C      1  0.4648270000000  0.5341980000000  0.5675680000000 1.0
C      1  0.4448620000000  0.5120690000000  0.4447780000000 1.0
C      1  0.4179050000000  0.5374490000000  0.4895020000000 1.0
C      1  0.4941500000000  0.4626850000000  0.5815650000000 1.0
C      1  0.5066520000000  0.4911470000000  0.5733690000000 1.0
C      1  0.4505780000000  0.4222590000000  0.4823720000000 1.0
C      1  0.5124890000000  0.4892470000000  0.5162310000000 1.0
C      1  0.4884700000000  0.5384440000000  0.5058630000000 1.0
C      1  0.5507290000000  0.5145530000000  0.5560820000000 1.0
C      1  0.4553810000000  0.5284410000000  0.5259730000000 1.0
C      1  0.5657560000000  0.5698640000000  0.5327350000000 1.0
C      1  0.4756710000000  0.3962480000000  0.5182820000000 1.0
C      1  0.5215550000000  0.5021320000000  0.4736230000000 1.0
C      1  0.5489730000000  0.5418660000000  0.4519260000000 1.0
C      1  0.5339700000000  0.5526550000000  0.4894080000000 1.0
C      1  0.4328050000000  0.4450340000000  0.4826900000000 1.0
C      1  0.4736090000000  0.5856450000000  0.4879660000000 1.0
C      1  0.5075220000000  0.4735900000000  0.4602640000000 1.0
C      1  0.4900000000000  0.6050800000000  0.5187730000000 1.0
C      1  0.4926330000000  0.4564090000000  0.4365200000000 1.0
C      1  0.5746570000000  0.5288450000000  0.5057180000000 1.0
C      1  0.4290990000000  0.5579140000000  0.4974710000000 1.0
C      1  0.5087220000000  0.5569390000000  0.4267720000000 1.0
C      1  0.5345720000000  0.4516120000000  0.5535600000000 1.0
C      1  0.4202880000000  0.4973580000000  0.5216550000000 1.0
C      1  0.4932050000000  0.4245990000000  0.4487380000000 1.0
C      1  0.4625310000000  0.4906380000000  0.5158250000000 1.0
C      1  0.4778750000000  0.4593640000000  0.5453540000000 1.0
C      1  0.4902170000000  0.4362760000000  0.4911310000000 1.0
C      1  0.4874380000000  0.4994980000000  0.4142840000000 1.0
C      1  0.5731190000000  0.4162460000000  0.4456070000000 1.0
C      1  0.5043520000000  0.5962720000000  0.4912070000000 1.0
C      1  0.5622330000000  0.5394090000000  0.4826680000000 1.0
C      1  0.4576150000000  0.5548470000000  0.5414810000000 1.0
C      1  0.5736030000000  0.5015830000000  0.4765880000000 1.0
C      1  0.4789500000000  0.4639120000000  0.4744100000000 1.0
C      1  0.4485290000000  0.5132610000000  0.4982430000000 1.0
C      1  0.4325740000000  0.4925210000000  0.4623850000000 1.0
C      1  0.4677120000000  0.5048810000000  0.5408620000000 1.0
C      1  0.4526130000000  0.5020780000000  0.5685400000000 1.0
C      1  0.5532240000000  0.4392290000000  0.5325050000000 1.0
C      1  0.4891540000000  0.5134180000000  0.5794450000000 1.0
C      1  0.5314630000000  0.5213010000000  0.5006420000000 1.0
C      1  0.4760070000000  0.5803260000000  0.5301550000000 1.0
C      1  0.5824920000000  0.4798380000000  0.5328900000000 1.0
C      1  0.5643710000000  0.5417950000000  0.5291270000000 1.0
C      1  0.5364830000000  0.4961180000000  0.5760530000000 1.0
C      1  0.5353570000000  0.4635440000000  0.4950720000000 1.0
C      1  0.5364450000000  0.4231730000000  0.4798130000000 1.0
C      1  0.4465530000000  0.4660040000000  0.4641770000000 1.0
C      1  0.5348740000000  0.4603290000000  0.4655010000000 1.0
C      1  0.4284840000000  0.4985880000000  0.5448400000000 1.0
C      1  0.5549280000000  0.4646650000000  0.4407740000000 1.0
C      1  0.5521340000000  0.4702040000000  0.5717410000000 1.0
C      1  0.4810050000000  0.5503480000000  0.4346930000000 1.0
C      1  0.4629890000000  0.4198070000000  0.4560090000000 1.0
C      1  0.4663800000000  0.4732700000000  0.5715240000000 1.0
C      1  0.5567690000000  0.4912960000000  0.4345930000000 1.0
END
