TITL C-2778437-8639-444 -0.00782113484168521 125000 -1095.52734419351 0 0 188 (C1) n - 1
REM
REM in /home/nfs/bkarasulu/CARBON/AIRSS/Generating-Clusters/REBO/Only-C1/SD-CG/HFTN-CG
REM
REM
REM
REM
REM
REM ./C.cell (11c1c37f851c82e70ff6c80c92926a4b)
REM
REM compiler GCC version 9.2.1 20190827 (Red Hat 9.2.1-1)
REM options -cpp -mtune=generic -march=x86-64 -g -O0 -fpre-include=/usr/include/finclude/math-vector-fortran.h
REM seed 1524841872 -921579105 1097117726 -1809818534 -1607979472 234181481 -2010131903 -1437840614 2055077818 754835812 173229341 -683662348 -1151651876 -458870908 -623437375 -1284843047 434717739 -1145340109 161519549 -1327261573 1646771012 -1294757194 -1069960555 1935232848 718674449 -572073874 -1308439114 62104441 1412524806 -289506028 -140539532 -429304113 -60109949
REM
CELL 1.54180   50.00000   50.00000   50.00000   90.00000   90.00000   90.00000
LATT -1
SFAC C  
C      1  0.5235050000000  0.4793020000000  0.6021910000000 1.0
C      1  0.5905490000000  0.4671720000000  0.4796970000000 1.0
C      1  0.4871310000000  0.5268940000000  0.5858040000000 1.0
C      1  0.4530730000000  0.5843590000000  0.5625350000000 1.0
C      1  0.5928020000000  0.5253650000000  0.4625160000000 1.0
C      1  0.4146950000000  0.5268600000000  0.5885100000000 1.0
C      1  0.4924480000000  0.4638010000000  0.5022930000000 1.0
C      1  0.5571090000000  0.4479400000000  0.5873610000000 1.0
C      1  0.5642010000000  0.5947600000000  0.5230600000000 1.0
C      1  0.5320780000000  0.5111060000000  0.5272560000000 1.0
C      1  0.5290570000000  0.4856650000000  0.4487180000000 1.0
C      1  0.4554140000000  0.4343600000000  0.5930410000000 1.0
C      1  0.5084720000000  0.5258030000000  0.4763910000000 1.0
C      1  0.4253560000000  0.4973200000000  0.4167120000000 1.0
C      1  0.6205910000000  0.4595780000000  0.5323740000000 1.0
C      1  0.4422450000000  0.5537270000000  0.4710440000000 1.0
C      1  0.5199690000000  0.5242000000000  0.5968910000000 1.0
C      1  0.5313640000000  0.5871760000000  0.4198330000000 1.0
C      1  0.4989140000000  0.5565420000000  0.5947260000000 1.0
C      1  0.4028120000000  0.5479830000000  0.5237070000000 1.0
C      1  0.5485350000000  0.5684380000000  0.5608390000000 1.0
C      1  0.4440690000000  0.3932920000000  0.5223840000000 1.0
C      1  0.4952650000000  0.4585210000000  0.5326950000000 1.0
C      1  0.5098940000000  0.4289680000000  0.5823210000000 1.0
C      1  0.5798860000000  0.5051340000000  0.4176210000000 1.0
C      1  0.4188170000000  0.4877210000000  0.5224140000000 1.0
C      1  0.5661690000000  0.5299790000000  0.4137380000000 1.0
C      1  0.4569190000000  0.5155760000000  0.5423780000000 1.0
C      1  0.5873390000000  0.5206080000000  0.5307380000000 1.0
C      1  0.5751530000000  0.4648190000000  0.5674990000000 1.0
C      1  0.5230050000000  0.4353380000000  0.4693070000000 1.0
C      1  0.4556010000000  0.5165090000000  0.4650410000000 1.0
C      1  0.4601370000000  0.5285310000000  0.4273110000000 1.0
C      1  0.4278190000000  0.5706340000000  0.5638500000000 1.0
C      1  0.3838030000000  0.4510280000000  0.5125720000000 1.0
C      1  0.5835080000000  0.5774280000000  0.5439310000000 1.0
C      1  0.5979380000000  0.5052210000000  0.4387630000000 1.0
C      1  0.5677660000000  0.4789730000000  0.5013820000000 1.0
C      1  0.5342720000000  0.6048840000000  0.4522510000000 1.0
C      1  0.4095960000000  0.5127380000000  0.4410240000000 1.0
C      1  0.4697840000000  0.4050300000000  0.5238480000000 1.0
C      1  0.5313580000000  0.6100590000000  0.4822960000000 1.0
C      1  0.5861310000000  0.5874210000000  0.4767470000000 1.0
C      1  0.5195310000000  0.5452910000000  0.4509990000000 1.0
C      1  0.4656630000000  0.4775970000000  0.4940490000000 1.0
C      1  0.5359800000000  0.5059980000000  0.4239520000000 1.0
C      1  0.4186360000000  0.4481130000000  0.4783780000000 1.0
C      1  0.4319610000000  0.5448540000000  0.5762260000000 1.0
C      1  0.4996450000000  0.6090140000000  0.4888580000000 1.0
C      1  0.5044870000000  0.4913900000000  0.5344760000000 1.0
C      1  0.5745150000000  0.5287120000000  0.5810150000000 1.0
C      1  0.5139570000000  0.3954980000000  0.5331230000000 1.0
C      1  0.4585030000000  0.4278580000000  0.4329930000000 1.0
C      1  0.4980930000000  0.3990280000000  0.4886030000000 1.0
C      1  0.5595820000000  0.4718740000000  0.4549810000000 1.0
C      1  0.4823820000000  0.4716070000000  0.4644650000000 1.0
C      1  0.4922200000000  0.4370040000000  0.5560880000000 1.0
C      1  0.5449110000000  0.4612410000000  0.6083170000000 1.0
C      1  0.5382190000000  0.3857270000000  0.4615480000000 1.0
C      1  0.4716550000000  0.5562760000000  0.4218820000000 1.0
C      1  0.3928400000000  0.5165080000000  0.5321840000000 1.0
C      1  0.5409170000000  0.5371420000000  0.3994500000000 1.0
C      1  0.4050600000000  0.5264940000000  0.4722920000000 1.0
C      1  0.5527960000000  0.5014530000000  0.4944810000000 1.0
C      1  0.5030080000000  0.5622770000000  0.4320950000000 1.0
C      1  0.4538460000000  0.4313900000000  0.4872310000000 1.0
C      1  0.5596620000000  0.4481400000000  0.4779270000000 1.0
C      1  0.4728100000000  0.5629990000000  0.5739720000000 1.0
C      1  0.4852770000000  0.4502060000000  0.5929880000000 1.0
C      1  0.4781490000000  0.4140310000000  0.4756020000000 1.0
C      1  0.3898750000000  0.5278710000000  0.5001090000000 1.0
C      1  0.4851410000000  0.5969320000000  0.4622800000000 1.0
C      1  0.5713700000000  0.5489010000000  0.5539000000000 1.0
C      1  0.5711990000000  0.4350020000000  0.5264600000000 1.0
C      1  0.5495490000000  0.4527320000000  0.5083900000000 1.0
C      1  0.4175330000000  0.4671820000000  0.5496480000000 1.0
C      1  0.3834100000000  0.4838260000000  0.4803210000000 1.0
C      1  0.4961490000000  0.4750270000000  0.6090360000000 1.0
C      1  0.4091140000000  0.5005790000000  0.5907480000000 1.0
C      1  0.4929500000000  0.3904220000000  0.5151570000000 1.0
C      1  0.5429310000000  0.4815500000000  0.5325620000000 1.0
C      1  0.5854600000000  0.4095200000000  0.4565550000000 1.0
C      1  0.5237800000000  0.5107710000000  0.3939110000000 1.0
C      1  0.4223740000000  0.5058290000000  0.4930810000000 1.0
C      1  0.4244620000000  0.5179950000000  0.5385920000000 1.0
C      1  0.4496740000000  0.4538970000000  0.4143810000000 1.0
C      1  0.4094890000000  0.5569310000000  0.4622880000000 1.0
C      1  0.5009280000000  0.4266760000000  0.4055220000000 1.0
C      1  0.3612610000000  0.4409670000000  0.5213750000000 1.0
C      1  0.5446480000000  0.5275500000000  0.5974640000000 1.0
C      1  0.4870320000000  0.5774300000000  0.4908320000000 1.0
C      1  0.5187100000000  0.5750280000000  0.5212200000000 1.0
C      1  0.5490220000000  0.4027120000000  0.5522710000000 1.0
C      1  0.5406520000000  0.4390970000000  0.5384580000000 1.0
C      1  0.4254470000000  0.4149430000000  0.4825660000000 1.0
C      1  0.5046490000000  0.4968100000000  0.4629460000000 1.0
C      1  0.4748040000000  0.4333040000000  0.5211330000000 1.0
C      1  0.4985520000000  0.4635780000000  0.4357790000000 1.0
C      1  0.5879920000000  0.4522090000000  0.4509370000000 1.0
C      1  0.5397340000000  0.5818010000000  0.5382830000000 1.0
C      1  0.3860620000000  0.4953030000000  0.5074210000000 1.0
C      1  0.4955920000000  0.5997350000000  0.5454710000000 1.0
C      1  0.4739030000000  0.4950040000000  0.6016790000000 1.0
C      1  0.5031380000000  0.5080890000000  0.5633730000000 1.0
C      1  0.5382440000000  0.6134510000000  0.5141980000000 1.0
C      1  0.5448030000000  0.4752340000000  0.5592820000000 1.0
C      1  0.5325240000000  0.4928850000000  0.3743030000000 1.0
C      1  0.4336300000000  0.4295680000000  0.4530700000000 1.0
C      1  0.4486880000000  0.4475420000000  0.5142060000000 1.0
C      1  0.4137340000000  0.4766400000000  0.5810150000000 1.0
C      1  0.5752290000000  0.5779690000000  0.4999330000000 1.0
C      1  0.4845000000000  0.4730790000000  0.4096350000000 1.0
C      1  0.5394530000000  0.4291230000000  0.5715560000000 1.0
C      1  0.6094300000000  0.5110080000000  0.5265900000000 1.0
C      1  0.4839650000000  0.4186550000000  0.4485020000000 1.0
C      1  0.4506150000000  0.5153400000000  0.5088820000000 1.0
C      1  0.5767220000000  0.4961360000000  0.5710960000000 1.0
C      1  0.4662470000000  0.4860320000000  0.4311420000000 1.0
C      1  0.4998590000000  0.5396780000000  0.5502250000000 1.0
C      1  0.4920970000000  0.5478980000000  0.3970170000000 1.0
C      1  0.4800240000000  0.5094150000000  0.4472700000000 1.0
C      1  0.5749150000000  0.4376420000000  0.4301860000000 1.0
C      1  0.5266380000000  0.5804640000000  0.4948290000000 1.0
C      1  0.5759420000000  0.5739440000000  0.4538210000000 1.0
C      1  0.5163990000000  0.6135520000000  0.5315380000000 1.0
C      1  0.4298900000000  0.4691620000000  0.4552120000000 1.0
C      1  0.5578930000000  0.5878430000000  0.4381910000000 1.0
C      1  0.5636230000000  0.5500070000000  0.4959240000000 1.0
C      1  0.6242060000000  0.4864930000000  0.5123960000000 1.0
C      1  0.5928380000000  0.4753910000000  0.5191810000000 1.0
C      1  0.5051460000000  0.5931550000000  0.4410560000000 1.0
C      1  0.4300570000000  0.4706040000000  0.4248380000000 1.0
C      1  0.5248730000000  0.5576160000000  0.5755750000000 1.0
C      1  0.4517170000000  0.4783470000000  0.5228400000000 1.0
C      1  0.6070560000000  0.5864320000000  0.5518830000000 1.0
C      1  0.5155210000000  0.4213450000000  0.5409260000000 1.0
C      1  0.4617290000000  0.5353440000000  0.4888040000000 1.0
C      1  0.5689460000000  0.5438200000000  0.4626010000000 1.0
C      1  0.4570510000000  0.4531330000000  0.4638730000000 1.0
C      1  0.5600030000000  0.4185190000000  0.4664350000000 1.0
C      1  0.4567200000000  0.5832550000000  0.4658410000000 1.0
C      1  0.4665380000000  0.6033710000000  0.5453870000000 1.0
C      1  0.6157720000000  0.4831270000000  0.4824520000000 1.0
C      1  0.4350220000000  0.5313250000000  0.4463600000000 1.0
C      1  0.4068750000000  0.5716810000000  0.5446980000000 1.0
C      1  0.4542990000000  0.6091760000000  0.5201080000000 1.0
C      1  0.4947490000000  0.5195260000000  0.3914530000000 1.0
C      1  0.3910540000000  0.4919150000000  0.4579900000000 1.0
C      1  0.5236000000000  0.4070740000000  0.4784280000000 1.0
C      1  0.5092080000000  0.4177330000000  0.4324060000000 1.0
C      1  0.5604900000000  0.4151760000000  0.5004190000000 1.0
C      1  0.4742590000000  0.4774840000000  0.5756980000000 1.0
C      1  0.5316430000000  0.5333450000000  0.5523870000000 1.0
C      1  0.5273360000000  0.4518020000000  0.4427210000000 1.0
C      1  0.5895630000000  0.4529520000000  0.5437340000000 1.0
C      1  0.5516560000000  0.4507000000000  0.4221870000000 1.0
C      1  0.4727410000000  0.4882860000000  0.5466010000000 1.0
C      1  0.5594070000000  0.5316990000000  0.5240110000000 1.0
C      1  0.5461220000000  0.5341200000000  0.4403200000000 1.0
C      1  0.6178140000000  0.5045570000000  0.4639920000000 1.0
C      1  0.4891600000000  0.5448960000000  0.4925240000000 1.0
C      1  0.5532440000000  0.5140580000000  0.5609450000000 1.0
C      1  0.5293310000000  0.5591840000000  0.4780940000000 1.0
C      1  0.4732260000000  0.4346400000000  0.4034790000000 1.0
C      1  0.4364450000000  0.5479060000000  0.5265880000000 1.0
C      1  0.5373940000000  0.4111340000000  0.4413980000000 1.0
C      1  0.5001170000000  0.5729700000000  0.5590320000000 1.0
C      1  0.4928270000000  0.5557180000000  0.5237920000000 1.0
C      1  0.5218210000000  0.5608350000000  0.4035480000000 1.0
C      1  0.4483970000000  0.5729460000000  0.4366230000000 1.0
C      1  0.5528760000000  0.3996610000000  0.5250030000000 1.0
C      1  0.5259810000000  0.4888130000000  0.5756070000000 1.0
C      1  0.4485410000000  0.5103090000000  0.4050520000000 1.0
C      1  0.4602240000000  0.5332930000000  0.5678010000000 1.0
C      1  0.5394310000000  0.5282330000000  0.4886640000000 1.0
C      1  0.4438370000000  0.4901970000000  0.4752910000000 1.0
C      1  0.4384590000000  0.4418870000000  0.5434280000000 1.0
C      1  0.5101010000000  0.4521460000000  0.4870040000000 1.0
C      1  0.4617060000000  0.4278530000000  0.5602380000000 1.0
C      1  0.4210360000000  0.5676280000000  0.4372350000000 1.0
C      1  0.4802000000000  0.4120550000000  0.5845660000000 1.0
C      1  0.4745070000000  0.4996230000000  0.3945820000000 1.0
C      1  0.4234780000000  0.3943570000000  0.5044280000000 1.0
C      1  0.5587470000000  0.4825520000000  0.4223540000000 1.0
C      1  0.4321780000000  0.4492570000000  0.5762160000000 1.0
C      1  0.4592530000000  0.5602660000000  0.5199600000000 1.0
C      1  0.4558790000000  0.5857080000000  0.4999110000000 1.0
C      1  0.4070870000000  0.4614210000000  0.5034790000000 1.0
END
