TITL C-2778422-5617-348 0.00253100897525498 125000 -926.311553463247 0 0 162 (C1) n - 1
REM
REM in /home/nfs/bkarasulu/CARBON/AIRSS/Generating-Clusters/REBO/Only-C1/SD-CG/HFTN-CG
REM
REM
REM
REM
REM
REM ./C.cell (11c1c37f851c82e70ff6c80c92926a4b)
REM
REM compiler GCC version 9.2.1 20190827 (Red Hat 9.2.1-1)
REM options -cpp -mtune=generic -march=x86-64 -g -O0 -fpre-include=/usr/include/finclude/math-vector-fortran.h
REM seed -921836353 -2063740628 647424312 -41829045 -1865047297 1514444820 814425574 -2035261196 1926835763 1302653243 860863571 -868583775 -1517427257 1628310958 -1471841706 -1749526092 -1764092356 -1493564802 1623856368 552539869 -23261413 -935605289 1229721559 1232437917 -412269161 -1020109933 -909343197 -1961995667 -213858883 -835829460 291526357 835838549 -328269348
REM
CELL 1.54180   50.00000   50.00000   50.00000   90.00000   90.00000   90.00000
LATT -1
SFAC C  
C      1  0.5132190000000  0.5546650000000  0.5774450000000 1.0
C      1  0.5454060000000  0.4065850000000  0.4931770000000 1.0
C      1  0.4566850000000  0.5658400000000  0.4251870000000 1.0
C      1  0.5518250000000  0.5104110000000  0.5975570000000 1.0
C      1  0.5171230000000  0.4795360000000  0.4498100000000 1.0
C      1  0.5181800000000  0.4966110000000  0.6141520000000 1.0
C      1  0.4885480000000  0.3849790000000  0.4775610000000 1.0
C      1  0.4433130000000  0.4700210000000  0.5141210000000 1.0
C      1  0.5879660000000  0.4534700000000  0.4720090000000 1.0
C      1  0.4191760000000  0.5794430000000  0.5077820000000 1.0
C      1  0.5046930000000  0.4638660000000  0.5962190000000 1.0
C      1  0.5293650000000  0.5074660000000  0.5730570000000 1.0
C      1  0.5188180000000  0.4884480000000  0.3937390000000 1.0
C      1  0.5002180000000  0.4960460000000  0.4283120000000 1.0
C      1  0.5508050000000  0.4476540000000  0.4225960000000 1.0
C      1  0.6011270000000  0.4902640000000  0.5046420000000 1.0
C      1  0.4486510000000  0.4903390000000  0.4615170000000 1.0
C      1  0.4838120000000  0.5365970000000  0.5240250000000 1.0
C      1  0.4775360000000  0.5198320000000  0.3830650000000 1.0
C      1  0.4788430000000  0.4476580000000  0.4401810000000 1.0
C      1  0.4933140000000  0.4738530000000  0.4737210000000 1.0
C      1  0.5164410000000  0.5508820000000  0.5468340000000 1.0
C      1  0.5106030000000  0.4483900000000  0.4861530000000 1.0
C      1  0.5898210000000  0.5228550000000  0.4848830000000 1.0
C      1  0.4950300000000  0.4348750000000  0.5704250000000 1.0
C      1  0.5927780000000  0.5180570000000  0.5185390000000 1.0
C      1  0.4764240000000  0.4989490000000  0.4714620000000 1.0
C      1  0.5713850000000  0.5101850000000  0.5372310000000 1.0
C      1  0.5019610000000  0.4093810000000  0.5184620000000 1.0
C      1  0.4534860000000  0.5229160000000  0.3983900000000 1.0
C      1  0.5046740000000  0.5704000000000  0.5234730000000 1.0
C      1  0.4321350000000  0.4582060000000  0.5765170000000 1.0
C      1  0.5058640000000  0.5291180000000  0.4221750000000 1.0
C      1  0.5493620000000  0.4744910000000  0.5633630000000 1.0
C      1  0.4273460000000  0.5315380000000  0.4412190000000 1.0
C      1  0.4421920000000  0.5193700000000  0.5163420000000 1.0
C      1  0.4908000000000  0.4827880000000  0.6187150000000 1.0
C      1  0.5393380000000  0.5739880000000  0.5430400000000 1.0
C      1  0.5925670000000  0.5624740000000  0.4815390000000 1.0
C      1  0.4478950000000  0.3965720000000  0.5041610000000 1.0
C      1  0.5563630000000  0.4578090000000  0.5132930000000 1.0
C      1  0.4895800000000  0.5889610000000  0.4595850000000 1.0
C      1  0.4468990000000  0.5427320000000  0.4647090000000 1.0
C      1  0.5218160000000  0.5892240000000  0.4667830000000 1.0
C      1  0.4482180000000  0.4085770000000  0.4794150000000 1.0
C      1  0.4118250000000  0.4689240000000  0.5095710000000 1.0
C      1  0.4873030000000  0.5851210000000  0.5497010000000 1.0
C      1  0.4584050000000  0.4914490000000  0.5168790000000 1.0
C      1  0.4268210000000  0.4466120000000  0.4560150000000 1.0
C      1  0.5658380000000  0.5130330000000  0.4705280000000 1.0
C      1  0.4409450000000  0.4383840000000  0.4820910000000 1.0
C      1  0.5230570000000  0.4385670000000  0.5876520000000 1.0
C      1  0.5483330000000  0.5238320000000  0.4347200000000 1.0
C      1  0.5267320000000  0.4601230000000  0.4065870000000 1.0
C      1  0.4782420000000  0.4696300000000  0.5799580000000 1.0
C      1  0.5234790000000  0.4241530000000  0.5565190000000 1.0
C      1  0.5392330000000  0.4562220000000  0.4743470000000 1.0
C      1  0.4893920000000  0.5645940000000  0.5880460000000 1.0
C      1  0.4747450000000  0.4434610000000  0.5189110000000 1.0
C      1  0.5149020000000  0.3936010000000  0.4949900000000 1.0
C      1  0.4767930000000  0.5176650000000  0.4931350000000 1.0
C      1  0.5177390000000  0.4207600000000  0.4463660000000 1.0
C      1  0.5342490000000  0.5651930000000  0.4580210000000 1.0
C      1  0.4263370000000  0.5083690000000  0.4601480000000 1.0
C      1  0.5734210000000  0.5546170000000  0.5364620000000 1.0
C      1  0.4889300000000  0.5248210000000  0.5891720000000 1.0
C      1  0.4942620000000  0.6028660000000  0.5215140000000 1.0
C      1  0.5561300000000  0.5244370000000  0.5608260000000 1.0
C      1  0.4760840000000  0.5114590000000  0.4419950000000 1.0
C      1  0.5324760000000  0.5994350000000  0.4922870000000 1.0
C      1  0.4563690000000  0.5855130000000  0.4529730000000 1.0
C      1  0.5120240000000  0.6177690000000  0.5060700000000 1.0
C      1  0.5177210000000  0.5362330000000  0.4793010000000 1.0
C      1  0.4270350000000  0.5681760000000  0.4567410000000 1.0
C      1  0.5046400000000  0.5831200000000  0.4312520000000 1.0
C      1  0.5750930000000  0.4766200000000  0.4914140000000 1.0
C      1  0.5935710000000  0.5497450000000  0.5097920000000 1.0
C      1  0.4855850000000  0.5046010000000  0.5222270000000 1.0
C      1  0.6175450000000  0.5055000000000  0.4808160000000 1.0
C      1  0.4360880000000  0.5904870000000  0.4802810000000 1.0
C      1  0.5776400000000  0.4803150000000  0.5485300000000 1.0
C      1  0.4901070000000  0.4757310000000  0.4053190000000 1.0
C      1  0.5761660000000  0.5010180000000  0.5757180000000 1.0
C      1  0.5206050000000  0.4025220000000  0.4625000000000 1.0
C      1  0.4382920000000  0.5126510000000  0.5746160000000 1.0
C      1  0.5657120000000  0.4370630000000  0.4515270000000 1.0
C      1  0.4419000000000  0.4365080000000  0.4299430000000 1.0
C      1  0.4018990000000  0.4939660000000  0.4714300000000 1.0
C      1  0.4229170000000  0.5565710000000  0.5481670000000 1.0
C      1  0.5423230000000  0.6033430000000  0.5276150000000 1.0
C      1  0.4567970000000  0.5723410000000  0.4965350000000 1.0
C      1  0.4983620000000  0.4452250000000  0.4131630000000 1.0
C      1  0.5175470000000  0.4682600000000  0.5222000000000 1.0
C      1  0.4883030000000  0.5581220000000  0.4242980000000 1.0
C      1  0.5477030000000  0.5463400000000  0.4830850000000 1.0
C      1  0.4705200000000  0.4927290000000  0.5571570000000 1.0
C      1  0.4284520000000  0.4404470000000  0.5133840000000 1.0
C      1  0.5140320000000  0.4370020000000  0.5153290000000 1.0
C      1  0.4862040000000  0.4352220000000  0.4662220000000 1.0
C      1  0.4402550000000  0.5433060000000  0.4177270000000 1.0
C      1  0.4984230000000  0.5509710000000  0.4976170000000 1.0
C      1  0.5491110000000  0.4886640000000  0.4762460000000 1.0
C      1  0.5932600000000  0.4654030000000  0.5250230000000 1.0
C      1  0.4715400000000  0.5567990000000  0.5412530000000 1.0
C      1  0.5616540000000  0.4357670000000  0.5570420000000 1.0
C      1  0.5545160000000  0.5417660000000  0.5122330000000 1.0
C      1  0.5239300000000  0.5958210000000  0.4192130000000 1.0
C      1  0.5398430000000  0.4869770000000  0.5071010000000 1.0
C      1  0.4739810000000  0.4064220000000  0.4680730000000 1.0
C      1  0.4485570000000  0.5480440000000  0.5592550000000 1.0
C      1  0.4540440000000  0.5192420000000  0.5452300000000 1.0
C      1  0.6392050000000  0.5043630000000  0.4667320000000 1.0
C      1  0.4179470000000  0.5024690000000  0.5475300000000 1.0
C      1  0.5281840000000  0.4492420000000  0.4450290000000 1.0
C      1  0.4939890000000  0.4075660000000  0.5514330000000 1.0
C      1  0.4122770000000  0.5474910000000  0.5179880000000 1.0
C      1  0.4386100000000  0.4456840000000  0.5454770000000 1.0
C      1  0.4395770000000  0.4793310000000  0.5526020000000 1.0
C      1  0.5582470000000  0.4303480000000  0.4842150000000 1.0
C      1  0.4628700000000  0.4227110000000  0.5505340000000 1.0
C      1  0.5478480000000  0.5751540000000  0.5105560000000 1.0
C      1  0.4687150000000  0.4098850000000  0.5212490000000 1.0
C      1  0.4968280000000  0.5097220000000  0.5630290000000 1.0
C      1  0.5250200000000  0.4875680000000  0.5456630000000 1.0
C      1  0.5368530000000  0.4753340000000  0.5952410000000 1.0
C      1  0.5157350000000  0.5420750000000  0.4483870000000 1.0
C      1  0.5143980000000  0.5241680000000  0.6059160000000 1.0
C      1  0.4525490000000  0.5394940000000  0.4947820000000 1.0
C      1  0.4793710000000  0.5627800000000  0.4764360000000 1.0
C      1  0.5425010000000  0.4391980000000  0.5334380000000 1.0
C      1  0.5784010000000  0.4926740000000  0.4030500000000 1.0
C      1  0.4060010000000  0.5149970000000  0.5748050000000 1.0
C      1  0.5681750000000  0.4832830000000  0.4265870000000 1.0
C      1  0.4586060000000  0.5141860000000  0.5986990000000 1.0
C      1  0.4289450000000  0.4859600000000  0.4271880000000 1.0
C      1  0.5844320000000  0.4404100000000  0.5035880000000 1.0
C      1  0.5433650000000  0.5134970000000  0.5214890000000 1.0
C      1  0.4606380000000  0.4735030000000  0.3974260000000 1.0
C      1  0.4710440000000  0.4528830000000  0.4895870000000 1.0
C      1  0.5443140000000  0.4959230000000  0.4372240000000 1.0
C      1  0.4758500000000  0.5416110000000  0.4503090000000 1.0
C      1  0.4710210000000  0.4251600000000  0.4164630000000 1.0
C      1  0.4512240000000  0.4645030000000  0.5974130000000 1.0
C      1  0.4667130000000  0.5827750000000  0.5219870000000 1.0
C      1  0.5172470000000  0.5204560000000  0.5379440000000 1.0
C      1  0.4772100000000  0.4539860000000  0.5507190000000 1.0
C      1  0.5040350000000  0.5152130000000  0.3936080000000 1.0
C      1  0.4561130000000  0.4687110000000  0.4405800000000 1.0
C      1  0.4437030000000  0.4564520000000  0.4046210000000 1.0
C      1  0.5661940000000  0.5442280000000  0.4394880000000 1.0
C      1  0.4635510000000  0.4876470000000  0.6124740000000 1.0
C      1  0.4149250000000  0.5571640000000  0.4854030000000 1.0
C      1  0.5529370000000  0.4478070000000  0.5829980000000 1.0
C      1  0.4516170000000  0.5053720000000  0.4232920000000 1.0
C      1  0.4621780000000  0.5459200000000  0.5866700000000 1.0
C      1  0.5718810000000  0.5540820000000  0.4653610000000 1.0
C      1  0.5395000000000  0.5418660000000  0.5924490000000 1.0
C      1  0.4102450000000  0.5151090000000  0.5186730000000 1.0
C      1  0.5551920000000  0.5555620000000  0.5652450000000 1.0
C      1  0.4006820000000  0.4925180000000  0.4999660000000 1.0
C      1  0.4137570000000  0.4717790000000  0.4507900000000 1.0
C      1  0.5820330000000  0.4642080000000  0.4410190000000 1.0
END
