TITL C-2778423-5760-957 0.0140896717106122 125000 -132.415748274633 0 0 25 (C1) n - 1
REM
REM in /home/nfs/bkarasulu/CARBON/AIRSS/Generating-Clusters/REBO/Only-C1/SD-CG/HFTN-CG
REM
REM
REM
REM
REM
REM ./C.cell (11c1c37f851c82e70ff6c80c92926a4b)
REM
REM compiler GCC version 9.2.1 20190827 (Red Hat 9.2.1-1)
REM options -cpp -mtune=generic -march=x86-64 -g -O0 -fpre-include=/usr/include/finclude/math-vector-fortran.h
REM seed -517901647 1892571093 1362068450 -823928665 1537214315 1357385134 -309227565 -1670908578 -770581709 -1402387122 -1878365769 -919829312 -1297500242 -1403168148 -834651948 -351183127 -374326048 -247042979 -1590788526 -145541974 -2047254996 31896859 -1011389504 1338082950 -244465532 2061864636 195033691 1463705971 1780248927 1574898161 1660710414 61803703 -696236645
REM
CELL 1.54180   50.00000   50.00000   50.00000   90.00000   90.00000   90.00000
LATT -1
SFAC C  
C      1  0.5000360000000  0.5335090000000  0.5297260000000 1.0
C      1  0.4797240000000  0.4724260000000  0.5012240000000 1.0
C      1  0.4893890000000  0.5085730000000  0.5357670000000 1.0
C      1  0.4620410000000  0.5293190000000  0.4221500000000 1.0
C      1  0.5278610000000  0.5028690000000  0.5047610000000 1.0
C      1  0.5003030000000  0.4873550000000  0.5166890000000 1.0
C      1  0.4553480000000  0.4960250000000  0.5754850000000 1.0
C      1  0.5047390000000  0.5550030000000  0.5068980000000 1.0
C      1  0.5343950000000  0.4488450000000  0.5368420000000 1.0
C      1  0.4713940000000  0.5524650000000  0.4141750000000 1.0
C      1  0.5298040000000  0.4719790000000  0.5190820000000 1.0
C      1  0.4719320000000  0.5021380000000  0.5561360000000 1.0
C      1  0.5284280000000  0.5319810000000  0.5116400000000 1.0
C      1  0.4334240000000  0.4913770000000  0.4157990000000 1.0
C      1  0.5558950000000  0.5435400000000  0.5160820000000 1.0
C      1  0.4704030000000  0.4832720000000  0.4774490000000 1.0
C      1  0.4705670000000  0.4481750000000  0.5111120000000 1.0
C      1  0.5521910000000  0.4819700000000  0.4960490000000 1.0
C      1  0.5383630000000  0.4288500000000  0.5521930000000 1.0
C      1  0.4961810000000  0.5764460000000  0.4931780000000 1.0
C      1  0.5729910000000  0.4769880000000  0.4819810000000 1.0
C      1  0.4520580000000  0.5046160000000  0.4306610000000 1.0
C      1  0.5791590000000  0.5533310000000  0.5198440000000 1.0
C      1  0.4619170000000  0.4252670000000  0.5204520000000 1.0
C      1  0.4614560000000  0.4936820000000  0.4546290000000 1.0
END
