TITL C-2778432-5617-534 -0.0133324422347856 125000 -1085.83652017183 0 0 187 (C1) n - 1
REM
REM in /home/nfs/bkarasulu/CARBON/AIRSS/Generating-Clusters/REBO/Only-C1/SD-CG/HFTN-CG
REM
REM
REM
REM
REM
REM ./C.cell (11c1c37f851c82e70ff6c80c92926a4b)
REM
REM compiler GCC version 9.2.1 20190827 (Red Hat 9.2.1-1)
REM options -cpp -mtune=generic -march=x86-64 -g -O0 -fpre-include=/usr/include/finclude/math-vector-fortran.h
REM seed 2018693129 499134968 -459663101 -1464963609 1635202734 105145386 -525183379 1063756712 1809620699 -1058404092 -1742993334 -523329045 1496635325 232496039 1232445877 1996642709 -1939457388 -568362811 1011194869 1068043095 1283669319 -82504231 1771601339 -1694452319 -205637834 469663563 1470260795 -886433350 169768585 69692302 1078189290 786075081 1285078990
REM
CELL 1.54180   50.00000   50.00000   50.00000   90.00000   90.00000   90.00000
LATT -1
SFAC C  
C      1  0.4371130000000  0.5432630000000  0.4808330000000 1.0
C      1  0.4180190000000  0.5555700000000  0.4549870000000 1.0
C      1  0.3898300000000  0.4821910000000  0.5478090000000 1.0
C      1  0.4082580000000  0.5420070000000  0.5566590000000 1.0
C      1  0.5467340000000  0.5806290000000  0.4438190000000 1.0
C      1  0.5922430000000  0.5141550000000  0.4159900000000 1.0
C      1  0.5426260000000  0.4719440000000  0.5167280000000 1.0
C      1  0.5192040000000  0.4528970000000  0.4099240000000 1.0
C      1  0.4709530000000  0.5068010000000  0.5953530000000 1.0
C      1  0.5443090000000  0.5247250000000  0.5272360000000 1.0
C      1  0.4029650000000  0.4580320000000  0.5451280000000 1.0
C      1  0.5184110000000  0.5530100000000  0.5938280000000 1.0
C      1  0.5292180000000  0.5094860000000  0.6134890000000 1.0
C      1  0.4670460000000  0.4399200000000  0.4171260000000 1.0
C      1  0.5443920000000  0.5547610000000  0.5768440000000 1.0
C      1  0.5902240000000  0.5548840000000  0.4917180000000 1.0
C      1  0.4678850000000  0.3930360000000  0.4788300000000 1.0
C      1  0.5891110000000  0.4569590000000  0.4887210000000 1.0
C      1  0.5074120000000  0.4956230000000  0.5440460000000 1.0
C      1  0.4828670000000  0.3932490000000  0.5588110000000 1.0
C      1  0.5166120000000  0.4705220000000  0.4699620000000 1.0
C      1  0.4463150000000  0.4206540000000  0.4355090000000 1.0
C      1  0.4911200000000  0.5593900000000  0.5744960000000 1.0
C      1  0.4359720000000  0.5255170000000  0.5308540000000 1.0
C      1  0.4209540000000  0.4190640000000  0.5160620000000 1.0
C      1  0.4469140000000  0.5725100000000  0.5560590000000 1.0
C      1  0.5705200000000  0.5227330000000  0.4787620000000 1.0
C      1  0.4266660000000  0.4762880000000  0.4654440000000 1.0
C      1  0.5578170000000  0.4595550000000  0.4746770000000 1.0
C      1  0.5414470000000  0.4205040000000  0.4360640000000 1.0
C      1  0.5376230000000  0.4936650000000  0.5396790000000 1.0
C      1  0.4299760000000  0.4581990000000  0.5623610000000 1.0
C      1  0.4997280000000  0.5549060000000  0.4927460000000 1.0
C      1  0.4694600000000  0.6059180000000  0.5264330000000 1.0
C      1  0.4585510000000  0.4868880000000  0.5563200000000 1.0
C      1  0.5193790000000  0.5740820000000  0.5338560000000 1.0
C      1  0.4525280000000  0.5419900000000  0.5100160000000 1.0
C      1  0.6069720000000  0.4689970000000  0.5123110000000 1.0
C      1  0.4071130000000  0.4604850000000  0.4962430000000 1.0
C      1  0.5051140000000  0.5241510000000  0.5557350000000 1.0
C      1  0.4787990000000  0.5462220000000  0.4366620000000 1.0
C      1  0.5417220000000  0.5571380000000  0.4825560000000 1.0
C      1  0.5330390000000  0.4005540000000  0.4866400000000 1.0
C      1  0.4662380000000  0.4814420000000  0.4679980000000 1.0
C      1  0.5130980000000  0.4450670000000  0.4486320000000 1.0
C      1  0.5435410000000  0.5475980000000  0.4219690000000 1.0
C      1  0.4669160000000  0.5853360000000  0.4676400000000 1.0
C      1  0.5001080000000  0.4143790000000  0.5575670000000 1.0
C      1  0.3850450000000  0.5118140000000  0.5184490000000 1.0
C      1  0.5518750000000  0.4455500000000  0.4162770000000 1.0
C      1  0.4986140000000  0.6071980000000  0.5422630000000 1.0
C      1  0.4735990000000  0.4742330000000  0.4360180000000 1.0
C      1  0.5687160000000  0.5330450000000  0.5792520000000 1.0
C      1  0.4842810000000  0.3951320000000  0.5086380000000 1.0
C      1  0.5070630000000  0.4344780000000  0.5807240000000 1.0
C      1  0.5595120000000  0.5960830000000  0.5054060000000 1.0
C      1  0.4991900000000  0.4419060000000  0.4775850000000 1.0
C      1  0.5353880000000  0.5292260000000  0.5577900000000 1.0
C      1  0.4777020000000  0.4109070000000  0.4281060000000 1.0
C      1  0.4648000000000  0.3935360000000  0.5365570000000 1.0
C      1  0.6022110000000  0.5251590000000  0.5029050000000 1.0
C      1  0.5332680000000  0.5232220000000  0.4126060000000 1.0
C      1  0.5670510000000  0.4820100000000  0.5851450000000 1.0
C      1  0.5973330000000  0.5464250000000  0.5297880000000 1.0
C      1  0.4447320000000  0.5355430000000  0.5848850000000 1.0
C      1  0.5548350000000  0.4332910000000  0.5219840000000 1.0
C      1  0.5781970000000  0.4889430000000  0.4251650000000 1.0
C      1  0.5176880000000  0.4989380000000  0.5839360000000 1.0
C      1  0.5201740000000  0.5690210000000  0.4280370000000 1.0
C      1  0.5263220000000  0.5737920000000  0.5034690000000 1.0
C      1  0.4017080000000  0.5600460000000  0.5082130000000 1.0
C      1  0.4083080000000  0.5087850000000  0.5556650000000 1.0
C      1  0.4635720000000  0.5666350000000  0.5284570000000 1.0
C      1  0.5427160000000  0.4800990000000  0.6081310000000 1.0
C      1  0.5788430000000  0.5571570000000  0.5567100000000 1.0
C      1  0.4411650000000  0.5043670000000  0.5935250000000 1.0
C      1  0.4158580000000  0.5794660000000  0.5235720000000 1.0
C      1  0.5188060000000  0.5909580000000  0.4608220000000 1.0
C      1  0.5480970000000  0.4948310000000  0.4214910000000 1.0
C      1  0.5095760000000  0.4161880000000  0.4344190000000 1.0
C      1  0.4463200000000  0.5971860000000  0.4834590000000 1.0
C      1  0.5768750000000  0.4946050000000  0.5063260000000 1.0
C      1  0.4404490000000  0.4587250000000  0.4883550000000 1.0
C      1  0.4550180000000  0.4217440000000  0.4661600000000 1.0
C      1  0.5567850000000  0.5928670000000  0.4728210000000 1.0
C      1  0.4040530000000  0.4432590000000  0.5209430000000 1.0
C      1  0.4887770000000  0.5451420000000  0.3958890000000 1.0
C      1  0.5277110000000  0.5975880000000  0.5571750000000 1.0
C      1  0.4533100000000  0.5169290000000  0.5575930000000 1.0
C      1  0.5697980000000  0.5555060000000  0.4385460000000 1.0
C      1  0.4733540000000  0.4372680000000  0.5764720000000 1.0
C      1  0.5447720000000  0.5077970000000  0.4698840000000 1.0
C      1  0.4572620000000  0.5572330000000  0.4583040000000 1.0
C      1  0.4715930000000  0.4693390000000  0.5815100000000 1.0
C      1  0.5495040000000  0.5076760000000  0.5792410000000 1.0
C      1  0.5365180000000  0.4413150000000  0.5695660000000 1.0
C      1  0.5988720000000  0.5311650000000  0.5662070000000 1.0
C      1  0.5957390000000  0.4845390000000  0.4574380000000 1.0
C      1  0.4612040000000  0.4955650000000  0.4988840000000 1.0
C      1  0.3979630000000  0.4583280000000  0.4634480000000 1.0
C      1  0.5875140000000  0.4774700000000  0.5621170000000 1.0
C      1  0.4874390000000  0.4995350000000  0.4232820000000 1.0
C      1  0.6098350000000  0.4894860000000  0.5394210000000 1.0
C      1  0.4947670000000  0.5282070000000  0.5246050000000 1.0
C      1  0.5499920000000  0.4180100000000  0.4655060000000 1.0
C      1  0.5794720000000  0.4588660000000  0.4280340000000 1.0
C      1  0.4573730000000  0.4557540000000  0.5146860000000 1.0
C      1  0.5454480000000  0.4535050000000  0.4480960000000 1.0
C      1  0.5316560000000  0.4110660000000  0.5173790000000 1.0
C      1  0.4497150000000  0.4682120000000  0.3981320000000 1.0
C      1  0.4719240000000  0.4265140000000  0.5154410000000 1.0
C      1  0.5178070000000  0.4617990000000  0.5980790000000 1.0
C      1  0.4097270000000  0.5228980000000  0.4761270000000 1.0
C      1  0.5194050000000  0.4499640000000  0.5138590000000 1.0
C      1  0.5033870000000  0.4241290000000  0.5283350000000 1.0
C      1  0.5812580000000  0.5726460000000  0.5170660000000 1.0
C      1  0.3973140000000  0.4913470000000  0.4728650000000 1.0
C      1  0.5691370000000  0.5250110000000  0.5120660000000 1.0
C      1  0.5320100000000  0.4875570000000  0.3946800000000 1.0
C      1  0.5063330000000  0.4927700000000  0.4886860000000 1.0
C      1  0.4248720000000  0.4226550000000  0.4818680000000 1.0
C      1  0.4818330000000  0.5266660000000  0.5739610000000 1.0
C      1  0.5627570000000  0.4432890000000  0.5480050000000 1.0
C      1  0.4943120000000  0.5861520000000  0.4835980000000 1.0
C      1  0.3988110000000  0.4895610000000  0.5053650000000 1.0
C      1  0.6042500000000  0.4939060000000  0.4892060000000 1.0
C      1  0.5481290000000  0.4710710000000  0.5611610000000 1.0
C      1  0.5918090000000  0.4505330000000  0.4559660000000 1.0
C      1  0.5729770000000  0.4776770000000  0.5309850000000 1.0
C      1  0.4478920000000  0.4320650000000  0.5621120000000 1.0
C      1  0.5054140000000  0.5235310000000  0.4067080000000 1.0
C      1  0.4912770000000  0.4599500000000  0.4105580000000 1.0
C      1  0.4243380000000  0.4886320000000  0.5766940000000 1.0
C      1  0.5530720000000  0.5796060000000  0.5323140000000 1.0
C      1  0.4899280000000  0.4617760000000  0.5196470000000 1.0
C      1  0.4601020000000  0.5150180000000  0.4643210000000 1.0
C      1  0.5905540000000  0.5330680000000  0.4362590000000 1.0
C      1  0.4440970000000  0.5911950000000  0.5142080000000 1.0
C      1  0.4917790000000  0.4836760000000  0.6005330000000 1.0
C      1  0.4827560000000  0.4648230000000  0.5493970000000 1.0
C      1  0.4670450000000  0.5226440000000  0.4202380000000 1.0
C      1  0.3987230000000  0.5535340000000  0.4811000000000 1.0
C      1  0.4474220000000  0.4069690000000  0.5019610000000 1.0
C      1  0.5527270000000  0.4858700000000  0.4889050000000 1.0
C      1  0.5911700000000  0.5177610000000  0.4603030000000 1.0
C      1  0.5219480000000  0.5345360000000  0.5089010000000 1.0
C      1  0.5214340000000  0.5367250000000  0.6160190000000 1.0
C      1  0.4433070000000  0.4128980000000  0.5410390000000 1.0
C      1  0.5081150000000  0.5096890000000  0.4440170000000 1.0
C      1  0.5796250000000  0.4263040000000  0.4773130000000 1.0
C      1  0.4391550000000  0.4932740000000  0.4189610000000 1.0
C      1  0.5100320000000  0.5416150000000  0.4429610000000 1.0
C      1  0.4208410000000  0.4959880000000  0.5266960000000 1.0
C      1  0.4906950000000  0.3983830000000  0.4557250000000 1.0
C      1  0.4603000000000  0.5295450000000  0.3870570000000 1.0
C      1  0.4916390000000  0.5768510000000  0.4451550000000 1.0
C      1  0.4400460000000  0.5520490000000  0.4293160000000 1.0
C      1  0.4549660000000  0.5000520000000  0.3895880000000 1.0
C      1  0.4406910000000  0.5189080000000  0.4378330000000 1.0
C      1  0.5630820000000  0.4083060000000  0.5014110000000 1.0
C      1  0.4888840000000  0.4953800000000  0.5154680000000 1.0
C      1  0.5086240000000  0.4716720000000  0.5666130000000 1.0
C      1  0.4034300000000  0.5346210000000  0.5255650000000 1.0
C      1  0.4576010000000  0.5609170000000  0.5793630000000 1.0
C      1  0.5944390000000  0.4528060000000  0.5397040000000 1.0
C      1  0.4402790000000  0.4729960000000  0.5341250000000 1.0
C      1  0.4696970000000  0.4483430000000  0.4753510000000 1.0
C      1  0.4190430000000  0.5695680000000  0.5511390000000 1.0
C      1  0.5409870000000  0.4394620000000  0.4911440000000 1.0
C      1  0.4986860000000  0.5184200000000  0.4733070000000 1.0
C      1  0.5106740000000  0.4830560000000  0.3836600000000 1.0
C      1  0.4754410000000  0.5351520000000  0.4862650000000 1.0
C      1  0.4582670000000  0.5579800000000  0.4045050000000 1.0
C      1  0.4929190000000  0.5586590000000  0.5400400000000 1.0
C      1  0.5296180000000  0.6035950000000  0.4905570000000 1.0
C      1  0.4223470000000  0.4390170000000  0.4517650000000 1.0
C      1  0.4959260000000  0.6038930000000  0.5085460000000 1.0
C      1  0.6113840000000  0.5177120000000  0.5417410000000 1.0
C      1  0.4981040000000  0.5917150000000  0.5723420000000 1.0
C      1  0.5701110000000  0.5620900000000  0.4700680000000 1.0
C      1  0.4347660000000  0.5031470000000  0.4795120000000 1.0
C      1  0.4796840000000  0.4774100000000  0.3847560000000 1.0
C      1  0.5270010000000  0.5313520000000  0.4755930000000 1.0
C      1  0.5320480000000  0.4909780000000  0.4473550000000 1.0
C      1  0.5550720000000  0.5805710000000  0.5638090000000 1.0
C      1  0.4407820000000  0.4598950000000  0.4319910000000 1.0
C      1  0.5035600000000  0.4094430000000  0.4845470000000 1.0
END
