TITL C-2778435-5768-1251 0.0061874264189869 125000 -931.033216943946 0 0 161 (C1) n - 1
REM
REM in /home/nfs/bkarasulu/CARBON/AIRSS/Generating-Clusters/REBO/Only-C1/SD-CG/HFTN-CG
REM
REM
REM
REM
REM
REM ./C.cell (11c1c37f851c82e70ff6c80c92926a4b)
REM
REM compiler GCC version 9.2.1 20190827 (Red Hat 9.2.1-1)
REM options -cpp -mtune=generic -march=x86-64 -g -O0 -fpre-include=/usr/include/finclude/math-vector-fortran.h
REM seed -867009435 -1111857606 626714712 -915232275 3803033 1551813801 726875318 -611507122 214981238 1111296511 -1978412051 -985765283 935573093 -1664651435 -30296470 805138646 -459221507 1245246677 1228818850 1517012060 1797606362 1473345788 -1431176034 -395125038 -317556886 -572035638 -1973580724 832194675 1715398102 1127809290 1284407032 -972905090 31363021
REM
CELL 1.54180   50.00000   50.00000   50.00000   90.00000   90.00000   90.00000
LATT -1
SFAC C  
C      1  0.4599400000000  0.5382350000000  0.4200160000000 1.0
C      1  0.5654090000000  0.4476650000000  0.5675600000000 1.0
C      1  0.5494780000000  0.4260430000000  0.4976140000000 1.0
C      1  0.5021450000000  0.4052230000000  0.4925880000000 1.0
C      1  0.4542510000000  0.5384630000000  0.5316370000000 1.0
C      1  0.4711430000000  0.4332980000000  0.5264920000000 1.0
C      1  0.4864730000000  0.5751210000000  0.5541510000000 1.0
C      1  0.5680280000000  0.5221360000000  0.4320500000000 1.0
C      1  0.4958500000000  0.4042060000000  0.4615590000000 1.0
C      1  0.4064870000000  0.4723250000000  0.5321560000000 1.0
C      1  0.5726770000000  0.5270050000000  0.5477530000000 1.0
C      1  0.5355700000000  0.4603800000000  0.4316130000000 1.0
C      1  0.4522050000000  0.4333810000000  0.4913620000000 1.0
C      1  0.5505740000000  0.4745360000000  0.5766990000000 1.0
C      1  0.5081530000000  0.4835720000000  0.5470470000000 1.0
C      1  0.5504340000000  0.4767680000000  0.4070630000000 1.0
C      1  0.4420710000000  0.5884830000000  0.5419260000000 1.0
C      1  0.5185610000000  0.5781060000000  0.5467140000000 1.0
C      1  0.4221250000000  0.4425200000000  0.5388230000000 1.0
C      1  0.5499920000000  0.4216730000000  0.4408290000000 1.0
C      1  0.4694780000000  0.4881660000000  0.4950560000000 1.0
C      1  0.4251220000000  0.4378400000000  0.4750400000000 1.0
C      1  0.4319040000000  0.4770410000000  0.5887440000000 1.0
C      1  0.4753880000000  0.4602530000000  0.6143920000000 1.0
C      1  0.5861650000000  0.4936570000000  0.4380240000000 1.0
C      1  0.5460950000000  0.5812240000000  0.5293200000000 1.0
C      1  0.6012310000000  0.4724360000000  0.4986650000000 1.0
C      1  0.5860560000000  0.4614110000000  0.4506190000000 1.0
C      1  0.4337100000000  0.5223560000000  0.4320180000000 1.0
C      1  0.5466350000000  0.4944350000000  0.4689840000000 1.0
C      1  0.6016240000000  0.4809990000000  0.5246240000000 1.0
C      1  0.4684560000000  0.4865420000000  0.4059150000000 1.0
C      1  0.5185310000000  0.6097670000000  0.4825580000000 1.0
C      1  0.4590070000000  0.4487210000000  0.4049560000000 1.0
C      1  0.4345850000000  0.4551490000000  0.5098960000000 1.0
C      1  0.4214140000000  0.4463630000000  0.4437710000000 1.0
C      1  0.4250190000000  0.5233780000000  0.5680290000000 1.0
C      1  0.4841510000000  0.5600300000000  0.4094070000000 1.0
C      1  0.4921500000000  0.4238590000000  0.5850590000000 1.0
C      1  0.5253600000000  0.6177810000000  0.5118190000000 1.0
C      1  0.4504570000000  0.4565680000000  0.4590910000000 1.0
C      1  0.5751740000000  0.4191820000000  0.4798030000000 1.0
C      1  0.4492440000000  0.5315010000000  0.4834110000000 1.0
C      1  0.4153160000000  0.4751060000000  0.4611200000000 1.0
C      1  0.4361930000000  0.5455050000000  0.5823270000000 1.0
C      1  0.4009310000000  0.4404500000000  0.4932910000000 1.0
C      1  0.5354720000000  0.5127800000000  0.5465350000000 1.0
C      1  0.4726560000000  0.4231570000000  0.4445640000000 1.0
C      1  0.5054140000000  0.4674240000000  0.6019660000000 1.0
C      1  0.4920680000000  0.5106820000000  0.5462780000000 1.0
C      1  0.5081290000000  0.4456170000000  0.5171180000000 1.0
C      1  0.4692530000000  0.5182650000000  0.4454490000000 1.0
C      1  0.5716350000000  0.5154640000000  0.4794670000000 1.0
C      1  0.4904970000000  0.4616940000000  0.4052440000000 1.0
C      1  0.4480470000000  0.5087230000000  0.5056730000000 1.0
C      1  0.5499830000000  0.6068960000000  0.5208200000000 1.0
C      1  0.5789210000000  0.5567280000000  0.4722660000000 1.0
C      1  0.5009440000000  0.6020530000000  0.5292500000000 1.0
C      1  0.5758920000000  0.4374150000000  0.5296440000000 1.0
C      1  0.4711120000000  0.5445130000000  0.4755190000000 1.0
C      1  0.4678020000000  0.5974820000000  0.4545110000000 1.0
C      1  0.4698780000000  0.5975180000000  0.5412920000000 1.0
C      1  0.5116820000000  0.5689540000000  0.4500650000000 1.0
C      1  0.4930070000000  0.5943920000000  0.4422240000000 1.0
C      1  0.4458650000000  0.4742340000000  0.5360140000000 1.0
C      1  0.4823520000000  0.5547510000000  0.6006200000000 1.0
C      1  0.4320110000000  0.5543470000000  0.4441150000000 1.0
C      1  0.4223720000000  0.5355260000000  0.4679460000000 1.0
C      1  0.5221970000000  0.4709020000000  0.4726730000000 1.0
C      1  0.4390030000000  0.5875270000000  0.4920580000000 1.0
C      1  0.4796180000000  0.5574170000000  0.4489900000000 1.0
C      1  0.5553980000000  0.5315330000000  0.5756460000000 1.0
C      1  0.5033040000000  0.4441930000000  0.5505710000000 1.0
C      1  0.6054210000000  0.4805050000000  0.4703070000000 1.0
C      1  0.4829260000000  0.4154710000000  0.5096470000000 1.0
C      1  0.4410050000000  0.5692790000000  0.5642050000000 1.0
C      1  0.4292150000000  0.4955060000000  0.4181230000000 1.0
C      1  0.4774840000000  0.4596050000000  0.5629220000000 1.0
C      1  0.5377510000000  0.5961630000000  0.4671570000000 1.0
C      1  0.5168670000000  0.5572500000000  0.4779000000000 1.0
C      1  0.4989120000000  0.4891010000000  0.5790510000000 1.0
C      1  0.4742220000000  0.4149860000000  0.5618710000000 1.0
C      1  0.4722140000000  0.4578990000000  0.4842080000000 1.0
C      1  0.5028110000000  0.5123490000000  0.4999350000000 1.0
C      1  0.5178540000000  0.4728310000000  0.3980430000000 1.0
C      1  0.5268660000000  0.4027730000000  0.5351450000000 1.0
C      1  0.5791580000000  0.5397990000000  0.5000630000000 1.0
C      1  0.4981150000000  0.5229240000000  0.4054850000000 1.0
C      1  0.5042810000000  0.4118470000000  0.5491100000000 1.0
C      1  0.5322250000000  0.4620780000000  0.5508580000000 1.0
C      1  0.5434830000000  0.5313310000000  0.4540920000000 1.0
C      1  0.5350960000000  0.4980550000000  0.5190590000000 1.0
C      1  0.4677040000000  0.5501260000000  0.5582710000000 1.0
C      1  0.4918490000000  0.4460440000000  0.4344540000000 1.0
C      1  0.4581780000000  0.5396320000000  0.6005530000000 1.0
C      1  0.4915220000000  0.6034950000000  0.4972770000000 1.0
C      1  0.4496780000000  0.4234500000000  0.5450910000000 1.0
C      1  0.5206420000000  0.4348160000000  0.4315190000000 1.0
C      1  0.4758850000000  0.5187660000000  0.5198620000000 1.0
C      1  0.5115590000000  0.5601570000000  0.4111780000000 1.0
C      1  0.6103400000000  0.5078540000000  0.5273250000000 1.0
C      1  0.4950860000000  0.4841420000000  0.5165280000000 1.0
C      1  0.5316880000000  0.5549490000000  0.5679140000000 1.0
C      1  0.5709360000000  0.5553440000000  0.4391830000000 1.0
C      1  0.4826400000000  0.5270790000000  0.5717860000000 1.0
C      1  0.5508020000000  0.5167190000000  0.4083650000000 1.0
C      1  0.5384590000000  0.4713940000000  0.5208740000000 1.0
C      1  0.5017290000000  0.4536570000000  0.4915110000000 1.0
C      1  0.5558590000000  0.4849810000000  0.4399720000000 1.0
C      1  0.5406440000000  0.4360960000000  0.5807020000000 1.0
C      1  0.4380050000000  0.4993700000000  0.4567210000000 1.0
C      1  0.4364320000000  0.4958290000000  0.5606950000000 1.0
C      1  0.4651840000000  0.4115290000000  0.4743020000000 1.0
C      1  0.4750340000000  0.4636840000000  0.5301410000000 1.0
C      1  0.5728520000000  0.4304610000000  0.4537050000000 1.0
C      1  0.5959820000000  0.5084670000000  0.4648640000000 1.0
C      1  0.5793870000000  0.4668910000000  0.5435380000000 1.0
C      1  0.4570830000000  0.5703680000000  0.4273710000000 1.0
C      1  0.5876980000000  0.4356540000000  0.5037990000000 1.0
C      1  0.5520490000000  0.4202040000000  0.5317040000000 1.0
C      1  0.4470460000000  0.4312330000000  0.4284180000000 1.0
C      1  0.4483910000000  0.4711350000000  0.4284170000000 1.0
C      1  0.5931580000000  0.5291090000000  0.5257490000000 1.0
C      1  0.4947900000000  0.5430630000000  0.4926390000000 1.0
C      1  0.4178020000000  0.4959720000000  0.5121730000000 1.0
C      1  0.5646130000000  0.4948840000000  0.5457010000000 1.0
C      1  0.5215840000000  0.4056480000000  0.4459060000000 1.0
C      1  0.4937340000000  0.4722230000000  0.4536920000000 1.0
C      1  0.5422270000000  0.5422000000000  0.4854220000000 1.0
C      1  0.5433450000000  0.4573370000000  0.4939740000000 1.0
C      1  0.4579650000000  0.4556350000000  0.5905160000000 1.0
C      1  0.4111020000000  0.4706420000000  0.4926840000000 1.0
C      1  0.5483790000000  0.5015590000000  0.5826820000000 1.0
C      1  0.4375070000000  0.4561950000000  0.5637940000000 1.0
C      1  0.4950110000000  0.5551380000000  0.5206480000000 1.0
C      1  0.5372950000000  0.5577830000000  0.4330030000000 1.0
C      1  0.5338310000000  0.5125910000000  0.4916360000000 1.0
C      1  0.4094210000000  0.5059330000000  0.4743850000000 1.0
C      1  0.5195200000000  0.5124860000000  0.5752390000000 1.0
C      1  0.5533030000000  0.5554600000000  0.5120010000000 1.0
C      1  0.4404530000000  0.5821520000000  0.4610300000000 1.0
C      1  0.5222670000000  0.5047030000000  0.4082840000000 1.0
C      1  0.5163110000000  0.4862140000000  0.4362500000000 1.0
C      1  0.4304190000000  0.5477770000000  0.5183110000000 1.0
C      1  0.4963250000000  0.5321000000000  0.4352320000000 1.0
C      1  0.5189500000000  0.5156330000000  0.4465950000000 1.0
C      1  0.4657930000000  0.4902490000000  0.5721840000000 1.0
C      1  0.5445350000000  0.5429670000000  0.5395230000000 1.0
C      1  0.4671020000000  0.5991770000000  0.4851430000000 1.0
C      1  0.4702730000000  0.5096140000000  0.5979470000000 1.0
C      1  0.4757180000000  0.5105130000000  0.3959520000000 1.0
C      1  0.5744610000000  0.4588610000000  0.4826770000000 1.0
C      1  0.5575710000000  0.5784170000000  0.4606080000000 1.0
C      1  0.4854720000000  0.4912880000000  0.6166230000000 1.0
C      1  0.4311730000000  0.5767910000000  0.5170410000000 1.0
C      1  0.4134560000000  0.5277300000000  0.5005100000000 1.0
C      1  0.4705450000000  0.4911390000000  0.4624200000000 1.0
C      1  0.5145440000000  0.4406680000000  0.5907130000000 1.0
C      1  0.5021540000000  0.5411790000000  0.5400410000000 1.0
C      1  0.5272260000000  0.4047530000000  0.5046660000000 1.0
C      1  0.5089380000000  0.5418980000000  0.5850780000000 1.0
END
