TITL C-2778423-5760-189 -0.00209431299613578 125000 -396.608123371446 0 0 68 (C1) n - 1
REM
REM in /home/nfs/bkarasulu/CARBON/AIRSS/Generating-Clusters/REBO/Only-C1/SD-CG/HFTN-CG
REM
REM
REM
REM
REM
REM ./C.cell (11c1c37f851c82e70ff6c80c92926a4b)
REM
REM compiler GCC version 9.2.1 20190827 (Red Hat 9.2.1-1)
REM options -cpp -mtune=generic -march=x86-64 -g -O0 -fpre-include=/usr/include/finclude/math-vector-fortran.h
REM seed -1502819855 -404942186 646412273 -1279238249 -1327958053 1713090408 -687750629 -91934590 -1575256256 1518273226 703767053 56956395 427704242 425681294 -1880081513 -2034978770 -10770636 -1503165728 -2063816393 1501155855 -1226428749 -680324092 -836833330 -1306275559 -962747711 -70073627 -868857835 -2038151857 -534123224 -1626555022 63450519 1527669225 1722285902
REM
CELL 1.54180   50.00000   50.00000   50.00000   90.00000   90.00000   90.00000
LATT -1
SFAC C  
C      1  0.4792980000000  0.4566080000000  0.5850340000000 1.0
C      1  0.5213120000000  0.5511080000000  0.4514450000000 1.0
C      1  0.5096210000000  0.5486250000000  0.5261860000000 1.0
C      1  0.5645270000000  0.4870780000000  0.5066780000000 1.0
C      1  0.5553410000000  0.5558720000000  0.5029980000000 1.0
C      1  0.4639150000000  0.4521990000000  0.5288520000000 1.0
C      1  0.5519120000000  0.5741890000000  0.4814070000000 1.0
C      1  0.4534640000000  0.5664630000000  0.4749810000000 1.0
C      1  0.4416480000000  0.5500350000000  0.5204450000000 1.0
C      1  0.4902620000000  0.4392200000000  0.5464430000000 1.0
C      1  0.5206120000000  0.5092880000000  0.4243750000000 1.0
C      1  0.4662740000000  0.4634940000000  0.4778360000000 1.0
C      1  0.4337600000000  0.5421150000000  0.4605960000000 1.0
C      1  0.4495490000000  0.5005190000000  0.4411600000000 1.0
C      1  0.5165330000000  0.4315780000000  0.5636200000000 1.0
C      1  0.4732100000000  0.5477440000000  0.4611940000000 1.0
C      1  0.4564630000000  0.4490240000000  0.4550660000000 1.0
C      1  0.5385290000000  0.5731220000000  0.4569810000000 1.0
C      1  0.4934370000000  0.4721550000000  0.4966160000000 1.0
C      1  0.4600910000000  0.5668820000000  0.5036930000000 1.0
C      1  0.5557710000000  0.5162080000000  0.5483410000000 1.0
C      1  0.5079590000000  0.5360690000000  0.4296030000000 1.0
C      1  0.5224310000000  0.5100280000000  0.5530640000000 1.0
C      1  0.5069010000000  0.4617420000000  0.5749240000000 1.0
C      1  0.4376330000000  0.5086640000000  0.5285000000000 1.0
C      1  0.5753980000000  0.5345910000000  0.5025680000000 1.0
C      1  0.5584520000000  0.4794040000000  0.4553920000000 1.0
C      1  0.5400210000000  0.4481820000000  0.4898470000000 1.0
C      1  0.5361310000000  0.5035760000000  0.5161040000000 1.0
C      1  0.5198410000000  0.5344570000000  0.4765360000000 1.0
C      1  0.5308540000000  0.5363410000000  0.5083560000000 1.0
C      1  0.5148220000000  0.4614140000000  0.4477330000000 1.0
C      1  0.4831570000000  0.4986970000000  0.5345990000000 1.0
C      1  0.5149040000000  0.4950100000000  0.4831650000000 1.0
C      1  0.5740080000000  0.4904720000000  0.4769980000000 1.0
C      1  0.5584860000000  0.4578730000000  0.5097120000000 1.0
C      1  0.5032330000000  0.5072040000000  0.5126880000000 1.0
C      1  0.4746430000000  0.5253360000000  0.5503440000000 1.0
C      1  0.4163540000000  0.5182840000000  0.4779970000000 1.0
C      1  0.4870240000000  0.5588170000000  0.5094540000000 1.0
C      1  0.4570770000000  0.4812680000000  0.5265260000000 1.0
C      1  0.5050190000000  0.4808640000000  0.5501780000000 1.0
C      1  0.5576610000000  0.4484530000000  0.5352580000000 1.0
C      1  0.5395680000000  0.4582450000000  0.4622180000000 1.0
C      1  0.5726420000000  0.5207050000000  0.4775970000000 1.0
C      1  0.4497170000000  0.4472760000000  0.5925900000000 1.0
C      1  0.5367870000000  0.4577910000000  0.5578660000000 1.0
C      1  0.5439590000000  0.4849550000000  0.5439670000000 1.0
C      1  0.4906460000000  0.4255920000000  0.4970580000000 1.0
C      1  0.4601170000000  0.4421690000000  0.5606200000000 1.0
C      1  0.4939160000000  0.5307590000000  0.4941700000000 1.0
C      1  0.4787850000000  0.5393180000000  0.4327180000000 1.0
C      1  0.4676940000000  0.5218800000000  0.4805190000000 1.0
C      1  0.4661370000000  0.4945750000000  0.4669080000000 1.0
C      1  0.5028570000000  0.4599740000000  0.5240840000000 1.0
C      1  0.4944620000000  0.4850520000000  0.4595140000000 1.0
C      1  0.4490800000000  0.5280930000000  0.4364320000000 1.0
C      1  0.4115430000000  0.4936680000000  0.4889550000000 1.0
C      1  0.4263720000000  0.4853220000000  0.5117650000000 1.0
C      1  0.5407140000000  0.5115540000000  0.4708410000000 1.0
C      1  0.5039460000000  0.4859110000000  0.4282600000000 1.0
C      1  0.5445860000000  0.5031250000000  0.4395880000000 1.0
C      1  0.4403040000000  0.5337060000000  0.4933810000000 1.0
C      1  0.5032770000000  0.5328020000000  0.5484290000000 1.0
C      1  0.4477780000000  0.5314820000000  0.5426200000000 1.0
C      1  0.5158240000000  0.4394420000000  0.5014460000000 1.0
C      1  0.5734100000000  0.5148540000000  0.5241520000000 1.0
C      1  0.4683390000000  0.4414800000000  0.5008070000000 1.0
END
