TITL C-2778437-8639-1065 -0.00129991248978632 125000 -664.05993635132 0 0 116 (C1) n - 1
REM
REM in /home/nfs/bkarasulu/CARBON/AIRSS/Generating-Clusters/REBO/Only-C1/SD-CG/HFTN-CG
REM
REM
REM
REM
REM
REM ./C.cell (11c1c37f851c82e70ff6c80c92926a4b)
REM
REM compiler GCC version 9.2.1 20190827 (Red Hat 9.2.1-1)
REM options -cpp -mtune=generic -march=x86-64 -g -O0 -fpre-include=/usr/include/finclude/math-vector-fortran.h
REM seed -1175649802 511081527 -1771862771 1970360904 327316678 -381678744 1429304063 -1907747544 355183445 986804416 64656790 -571780407 567204379 -458163455 741456114 -1040773390 822664582 -461961407 1518325306 -1895784637 -1673229157 2087314465 1486941513 980652656 -1830347069 1498933737 -735997496 -1774605595 247152815 699004129 642537487 -1334357177 -122981869
REM
CELL 1.54180   50.00000   50.00000   50.00000   90.00000   90.00000   90.00000
LATT -1
SFAC C  
C      1  0.5800250000000  0.4919250000000  0.4753700000000 1.0
C      1  0.5299450000000  0.4868670000000  0.5068280000000 1.0
C      1  0.5567300000000  0.4570180000000  0.4029320000000 1.0
C      1  0.4619160000000  0.5695680000000  0.4376330000000 1.0
C      1  0.4892480000000  0.4106520000000  0.4720760000000 1.0
C      1  0.4364600000000  0.4574120000000  0.5150080000000 1.0
C      1  0.5594950000000  0.4396800000000  0.5058970000000 1.0
C      1  0.4456340000000  0.5125450000000  0.5346440000000 1.0
C      1  0.5223750000000  0.4272740000000  0.5582240000000 1.0
C      1  0.4340880000000  0.5187080000000  0.4364300000000 1.0
C      1  0.4949730000000  0.4735490000000  0.5973760000000 1.0
C      1  0.5338960000000  0.5585260000000  0.5548140000000 1.0
C      1  0.5171290000000  0.5787210000000  0.5340940000000 1.0
C      1  0.5436990000000  0.5103420000000  0.5024710000000 1.0
C      1  0.5335350000000  0.4141110000000  0.4734550000000 1.0
C      1  0.5847240000000  0.5215910000000  0.4913990000000 1.0
C      1  0.4325330000000  0.5122140000000  0.5661520000000 1.0
C      1  0.5908700000000  0.5015880000000  0.5254830000000 1.0
C      1  0.5588040000000  0.4722330000000  0.5468270000000 1.0
C      1  0.4829100000000  0.4808860000000  0.4581370000000 1.0
C      1  0.5069990000000  0.5286810000000  0.5450640000000 1.0
C      1  0.4996640000000  0.4610210000000  0.6245340000000 1.0
C      1  0.4623220000000  0.5438310000000  0.5046480000000 1.0
C      1  0.5674150000000  0.5032000000000  0.5500480000000 1.0
C      1  0.4492510000000  0.5710550000000  0.4885840000000 1.0
C      1  0.5285340000000  0.4237970000000  0.5059500000000 1.0
C      1  0.5780400000000  0.4752540000000  0.4456890000000 1.0
C      1  0.5084940000000  0.4795990000000  0.4886980000000 1.0
C      1  0.5374380000000  0.4551400000000  0.5650270000000 1.0
C      1  0.4525910000000  0.5576190000000  0.4134510000000 1.0
C      1  0.5701880000000  0.5595500000000  0.4631150000000 1.0
C      1  0.4913910000000  0.4326630000000  0.5452800000000 1.0
C      1  0.4855420000000  0.4261330000000  0.4461650000000 1.0
C      1  0.4757640000000  0.5411930000000  0.5358440000000 1.0
C      1  0.4463030000000  0.5617840000000  0.4601370000000 1.0
C      1  0.4519370000000  0.4865650000000  0.5173750000000 1.0
C      1  0.5007050000000  0.5563610000000  0.5628490000000 1.0
C      1  0.4952590000000  0.4251310000000  0.4979330000000 1.0
C      1  0.5183870000000  0.5627670000000  0.4511260000000 1.0
C      1  0.5417050000000  0.4941180000000  0.5991220000000 1.0
C      1  0.5201310000000  0.5349530000000  0.4679440000000 1.0
C      1  0.5765740000000  0.5675810000000  0.4917840000000 1.0
C      1  0.5207530000000  0.4765660000000  0.5789040000000 1.0
C      1  0.5834120000000  0.5448970000000  0.5082360000000 1.0
C      1  0.4702890000000  0.4776180000000  0.4336070000000 1.0
C      1  0.4970840000000  0.5269980000000  0.4826930000000 1.0
C      1  0.5185140000000  0.4449470000000  0.5297380000000 1.0
C      1  0.4584710000000  0.5126590000000  0.3952820000000 1.0
C      1  0.4884370000000  0.5772950000000  0.4437140000000 1.0
C      1  0.4538400000000  0.4778720000000  0.4850660000000 1.0
C      1  0.5330090000000  0.4360100000000  0.4270630000000 1.0
C      1  0.4830740000000  0.5188190000000  0.4390660000000 1.0
C      1  0.4637130000000  0.4681070000000  0.5850850000000 1.0
C      1  0.4383390000000  0.5345430000000  0.4594540000000 1.0
C      1  0.4266470000000  0.5349780000000  0.5201090000000 1.0
C      1  0.4815900000000  0.4879950000000  0.4998750000000 1.0
C      1  0.4833170000000  0.5331780000000  0.5769460000000 1.0
C      1  0.4384100000000  0.4395310000000  0.5386640000000 1.0
C      1  0.5132700000000  0.5794540000000  0.4869930000000 1.0
C      1  0.4999780000000  0.5402880000000  0.4338940000000 1.0
C      1  0.5290930000000  0.4980940000000  0.4420210000000 1.0
C      1  0.4511410000000  0.4381700000000  0.4829000000000 1.0
C      1  0.5363760000000  0.6025500000000  0.5269640000000 1.0
C      1  0.5214700000000  0.4892440000000  0.4172140000000 1.0
C      1  0.4471070000000  0.4625720000000  0.5594160000000 1.0
C      1  0.4465900000000  0.5202870000000  0.4867130000000 1.0
C      1  0.4060870000000  0.4780320000000  0.4996930000000 1.0
C      1  0.5699670000000  0.4616280000000  0.5176770000000 1.0
C      1  0.5602650000000  0.4221780000000  0.4817430000000 1.0
C      1  0.4431120000000  0.5305940000000  0.4114060000000 1.0
C      1  0.4729660000000  0.4590550000000  0.5372530000000 1.0
C      1  0.4822850000000  0.5124250000000  0.5188200000000 1.0
C      1  0.4747790000000  0.5188750000000  0.4675120000000 1.0
C      1  0.5432740000000  0.5247100000000  0.4781850000000 1.0
C      1  0.4138380000000  0.4868220000000  0.5295090000000 1.0
C      1  0.4994280000000  0.5074160000000  0.5926320000000 1.0
C      1  0.4789100000000  0.4557040000000  0.4769520000000 1.0
C      1  0.4965600000000  0.4693060000000  0.4053080000000 1.0
C      1  0.4710120000000  0.5083200000000  0.5569170000000 1.0
C      1  0.4663380000000  0.4996710000000  0.5895520000000 1.0
C      1  0.5420240000000  0.5743290000000  0.4729840000000 1.0
C      1  0.5683750000000  0.5475810000000  0.5378700000000 1.0
C      1  0.4943090000000  0.5905210000000  0.4696490000000 1.0
C      1  0.4644970000000  0.5751270000000  0.5187660000000 1.0
C      1  0.4379040000000  0.4669680000000  0.4588270000000 1.0
C      1  0.4867090000000  0.4857060000000  0.5393220000000 1.0
C      1  0.4788820000000  0.5741350000000  0.5440600000000 1.0
C      1  0.5063560000000  0.5353830000000  0.5116390000000 1.0
C      1  0.4613040000000  0.4198620000000  0.5383060000000 1.0
C      1  0.5083320000000  0.5658620000000  0.5110050000000 1.0
C      1  0.5536470000000  0.5859520000000  0.5032020000000 1.0
C      1  0.4216120000000  0.4545450000000  0.4859670000000 1.0
C      1  0.4704240000000  0.4368300000000  0.5110590000000 1.0
C      1  0.4502560000000  0.5283540000000  0.5843940000000 1.0
C      1  0.5108000000000  0.4985310000000  0.5555900000000 1.0
C      1  0.4212790000000  0.5076350000000  0.5032960000000 1.0
C      1  0.5844210000000  0.4829100000000  0.5057910000000 1.0
C      1  0.5565430000000  0.5765300000000  0.5360890000000 1.0
C      1  0.5096460000000  0.4941060000000  0.4609060000000 1.0
C      1  0.5326680000000  0.4053410000000  0.5343340000000 1.0
C      1  0.5705870000000  0.5283160000000  0.4618650000000 1.0
C      1  0.5175620000000  0.4304490000000  0.4519930000000 1.0
C      1  0.4761340000000  0.4478270000000  0.4222130000000 1.0
C      1  0.5747080000000  0.4607840000000  0.4234330000000 1.0
C      1  0.5300030000000  0.4648960000000  0.3996150000000 1.0
C      1  0.5507260000000  0.5305600000000  0.5620480000000 1.0
C      1  0.4267220000000  0.5607040000000  0.5110840000000 1.0
C      1  0.5560330000000  0.5207400000000  0.5241290000000 1.0
C      1  0.4253880000000  0.4848780000000  0.5548240000000 1.0
C      1  0.4307270000000  0.4906760000000  0.4403800000000 1.0
C      1  0.5578450000000  0.5004010000000  0.4501570000000 1.0
C      1  0.5325680000000  0.4703390000000  0.5285920000000 1.0
C      1  0.4799070000000  0.4985290000000  0.4121170000000 1.0
C      1  0.4553240000000  0.4410960000000  0.4486120000000 1.0
C      1  0.5295390000000  0.5153140000000  0.5786810000000 1.0
C      1  0.5098740000000  0.4474690000000  0.4788110000000 1.0
END
