TITL C-2778426-5645-1298 0.000740729449639429 125000 -626.886091448978 0 0 110 (C1) n - 1
REM
REM in /home/nfs/bkarasulu/CARBON/AIRSS/Generating-Clusters/REBO/Only-C1/SD-CG/HFTN-CG
REM
REM
REM
REM
REM
REM ./C.cell (11c1c37f851c82e70ff6c80c92926a4b)
REM
REM compiler GCC version 9.2.1 20190827 (Red Hat 9.2.1-1)
REM options -cpp -mtune=generic -march=x86-64 -g -O0 -fpre-include=/usr/include/finclude/math-vector-fortran.h
REM seed -542922341 936221889 -797872321 1180382776 2068820882 -1166291921 766816500 -1570796339 -319115181 -859967741 323594884 957551688 692695208 1395792396 -1165386349 -1348948463 1904338719 1027146313 -666522486 803928714 2053584742 -2099498606 1749591608 -1447918464 -696615793 -147155608 -636306013 -674647971 232951001 1596194199 1605753139 -346378417 1859788113
REM
CELL 1.54180   50.00000   50.00000   50.00000   90.00000   90.00000   90.00000
LATT -1
SFAC C  
C      1  0.5141430000000  0.5020360000000  0.4125230000000 1.0
C      1  0.5035180000000  0.5927640000000  0.4934870000000 1.0
C      1  0.5448900000000  0.4400900000000  0.5299910000000 1.0
C      1  0.4518210000000  0.4834340000000  0.4562860000000 1.0
C      1  0.4292300000000  0.4353040000000  0.5067230000000 1.0
C      1  0.4233780000000  0.4864710000000  0.5038110000000 1.0
C      1  0.4480630000000  0.4676810000000  0.4278590000000 1.0
C      1  0.5099700000000  0.4932340000000  0.5399180000000 1.0
C      1  0.5155480000000  0.4262530000000  0.5190950000000 1.0
C      1  0.5835710000000  0.5171890000000  0.5170530000000 1.0
C      1  0.4974200000000  0.4731900000000  0.6000000000000 1.0
C      1  0.5932890000000  0.4965690000000  0.4982780000000 1.0
C      1  0.5835790000000  0.4688770000000  0.4985470000000 1.0
C      1  0.4974280000000  0.4867560000000  0.4857290000000 1.0
C      1  0.5162500000000  0.5160050000000  0.5719840000000 1.0
C      1  0.5680760000000  0.4984950000000  0.4301990000000 1.0
C      1  0.5069940000000  0.5440210000000  0.5282620000000 1.0
C      1  0.5293480000000  0.5259290000000  0.4112340000000 1.0
C      1  0.4222230000000  0.4786560000000  0.4727940000000 1.0
C      1  0.5163390000000  0.5628380000000  0.4389940000000 1.0
C      1  0.5444880000000  0.5246920000000  0.4721880000000 1.0
C      1  0.5450190000000  0.4795520000000  0.5235210000000 1.0
C      1  0.4866420000000  0.4974700000000  0.4116010000000 1.0
C      1  0.4385770000000  0.4620030000000  0.5191630000000 1.0
C      1  0.5615550000000  0.5337020000000  0.5010610000000 1.0
C      1  0.5076950000000  0.5703580000000  0.5498260000000 1.0
C      1  0.4972650000000  0.5120350000000  0.4548800000000 1.0
C      1  0.4409660000000  0.4859820000000  0.5697540000000 1.0
C      1  0.4685510000000  0.4705010000000  0.5074110000000 1.0
C      1  0.5905450000000  0.5059580000000  0.4710180000000 1.0
C      1  0.5275720000000  0.4681550000000  0.4542580000000 1.0
C      1  0.4766550000000  0.4522220000000  0.4556600000000 1.0
C      1  0.4625210000000  0.4902650000000  0.5429530000000 1.0
C      1  0.5761570000000  0.5334200000000  0.4701010000000 1.0
C      1  0.5678820000000  0.5269490000000  0.5674080000000 1.0
C      1  0.4861420000000  0.4231440000000  0.5367770000000 1.0
C      1  0.4951150000000  0.4380800000000  0.4082360000000 1.0
C      1  0.5194040000000  0.4639360000000  0.5311020000000 1.0
C      1  0.4228790000000  0.4578930000000  0.4479140000000 1.0
C      1  0.4412500000000  0.5189550000000  0.5608370000000 1.0
C      1  0.4470550000000  0.5564680000000  0.4762920000000 1.0
C      1  0.5433250000000  0.5657560000000  0.4474340000000 1.0
C      1  0.5235060000000  0.4910230000000  0.5930030000000 1.0
C      1  0.5404350000000  0.4998620000000  0.5030800000000 1.0
C      1  0.5132170000000  0.5844480000000  0.5709280000000 1.0
C      1  0.5627550000000  0.5451410000000  0.4432940000000 1.0
C      1  0.4183960000000  0.5395040000000  0.4834060000000 1.0
C      1  0.4934040000000  0.5580250000000  0.4580330000000 1.0
C      1  0.5764390000000  0.4858150000000  0.4546810000000 1.0
C      1  0.4866330000000  0.5562260000000  0.5807570000000 1.0
C      1  0.5689720000000  0.4630610000000  0.4737010000000 1.0
C      1  0.4685290000000  0.5755560000000  0.5014450000000 1.0
C      1  0.5558370000000  0.5241710000000  0.4243750000000 1.0
C      1  0.5361160000000  0.5114490000000  0.5458720000000 1.0
C      1  0.5256950000000  0.4900060000000  0.4780530000000 1.0
C      1  0.4692040000000  0.5698230000000  0.5605530000000 1.0
C      1  0.5504300000000  0.5118900000000  0.5917510000000 1.0
C      1  0.4764560000000  0.4618000000000  0.5365670000000 1.0
C      1  0.4583650000000  0.5777400000000  0.5313400000000 1.0
C      1  0.4966060000000  0.5331750000000  0.4817460000000 1.0
C      1  0.5109050000000  0.4391300000000  0.5503560000000 1.0
C      1  0.4393970000000  0.4587870000000  0.5505690000000 1.0
C      1  0.5436570000000  0.4434670000000  0.4762440000000 1.0
C      1  0.5322140000000  0.4814840000000  0.4269560000000 1.0
C      1  0.5149320000000  0.5502790000000  0.4136980000000 1.0
C      1  0.4701500000000  0.5433720000000  0.4955480000000 1.0
C      1  0.4669090000000  0.5339030000000  0.5775170000000 1.0
C      1  0.5685340000000  0.4851290000000  0.5465450000000 1.0
C      1  0.5783440000000  0.5129480000000  0.5448040000000 1.0
C      1  0.4465550000000  0.5445280000000  0.4027420000000 1.0
C      1  0.5715760000000  0.4597430000000  0.5246320000000 1.0
C      1  0.4331940000000  0.5366020000000  0.4523280000000 1.0
C      1  0.5503510000000  0.4684870000000  0.4105920000000 1.0
C      1  0.4782150000000  0.4478700000000  0.5865240000000 1.0
C      1  0.4835700000000  0.4835980000000  0.4573490000000 1.0
C      1  0.4242490000000  0.5201830000000  0.5084470000000 1.0
C      1  0.4976740000000  0.5747170000000  0.5194130000000 1.0
C      1  0.5291470000000  0.5075980000000  0.4491140000000 1.0
C      1  0.4804770000000  0.5114050000000  0.5596600000000 1.0
C      1  0.5375880000000  0.5334400000000  0.5245880000000 1.0
C      1  0.4651970000000  0.4392640000000  0.5584240000000 1.0
C      1  0.4685260000000  0.4206050000000  0.4497390000000 1.0
C      1  0.4844860000000  0.5830930000000  0.4723650000000 1.0
C      1  0.4523610000000  0.5315830000000  0.5179260000000 1.0
C      1  0.4756720000000  0.5035390000000  0.5023180000000 1.0
C      1  0.5466660000000  0.4542230000000  0.5586740000000 1.0
C      1  0.5137160000000  0.4347540000000  0.4902110000000 1.0
C      1  0.4260350000000  0.5098410000000  0.4702160000000 1.0
C      1  0.4723720000000  0.4869730000000  0.5815760000000 1.0
C      1  0.5106220000000  0.4498800000000  0.5788020000000 1.0
C      1  0.4330860000000  0.5003740000000  0.5334610000000 1.0
C      1  0.4504850000000  0.5270800000000  0.4272530000000 1.0
C      1  0.4200600000000  0.4310480000000  0.4519680000000 1.0
C      1  0.4727620000000  0.5336300000000  0.4500650000000 1.0
C      1  0.5168090000000  0.4330030000000  0.4201920000000 1.0
C      1  0.4693760000000  0.4432340000000  0.4243590000000 1.0
C      1  0.4944730000000  0.4739910000000  0.5604980000000 1.0
C      1  0.5407810000000  0.4836030000000  0.5654140000000 1.0
C      1  0.5187910000000  0.5986700000000  0.5922230000000 1.0
C      1  0.5217710000000  0.4358140000000  0.4511580000000 1.0
C      1  0.4604940000000  0.4976290000000  0.4199290000000 1.0
C      1  0.5435100000000  0.5425500000000  0.5837870000000 1.0
C      1  0.4495620000000  0.5476360000000  0.5445690000000 1.0
C      1  0.5133460000000  0.5458870000000  0.5814670000000 1.0
C      1  0.5225390000000  0.5280360000000  0.4951860000000 1.0
C      1  0.4901220000000  0.5168540000000  0.5276710000000 1.0
C      1  0.4602340000000  0.5119210000000  0.4731140000000 1.0
C      1  0.4396540000000  0.4121080000000  0.4549580000000 1.0
C      1  0.4885750000000  0.4551330000000  0.4849180000000 1.0
C      1  0.4969440000000  0.4193740000000  0.4651840000000 1.0
END
