TITL C-2778435-5768-1435 -0.00481660611743505 125000 -621.529091123028 0 0 106 (C1) n - 1
REM
REM in /home/nfs/bkarasulu/CARBON/AIRSS/Generating-Clusters/REBO/Only-C1/SD-CG/HFTN-CG
REM
REM
REM
REM
REM
REM ./C.cell (11c1c37f851c82e70ff6c80c92926a4b)
REM
REM compiler GCC version 9.2.1 20190827 (Red Hat 9.2.1-1)
REM options -cpp -mtune=generic -march=x86-64 -g -O0 -fpre-include=/usr/include/finclude/math-vector-fortran.h
REM seed -365133873 -1227374529 -586506203 968655244 -2046101230 1586156050 706355754 -2112723660 -786555336 -765483154 -932639820 -1374570745 299667046 -1582515833 -1293454997 -1505009166 -1612380024 302234351 -1243889479 -1114523990 -251635158 -1423139549 233740424 -94406850 -140499778 -1354442098 2137570346 -1947060920 1646076036 660067833 -109944351 2144632589 1946734552
REM
CELL 1.54180   50.00000   50.00000   50.00000   90.00000   90.00000   90.00000
LATT -1
SFAC C  
C      1  0.4490240000000  0.5065440000000  0.5132460000000 1.0
C      1  0.5324950000000  0.5367950000000  0.4163870000000 1.0
C      1  0.5216050000000  0.5884830000000  0.4764670000000 1.0
C      1  0.5295380000000  0.5109410000000  0.4077160000000 1.0
C      1  0.4779060000000  0.5752360000000  0.5336220000000 1.0
C      1  0.5344410000000  0.5438970000000  0.4858680000000 1.0
C      1  0.4859290000000  0.4962900000000  0.4157480000000 1.0
C      1  0.4286190000000  0.4673640000000  0.5322930000000 1.0
C      1  0.4914430000000  0.5487830000000  0.5731140000000 1.0
C      1  0.4788840000000  0.4783660000000  0.5095870000000 1.0
C      1  0.4230010000000  0.4974560000000  0.5225050000000 1.0
C      1  0.5514420000000  0.4548570000000  0.5275230000000 1.0
C      1  0.5042830000000  0.4344160000000  0.4324490000000 1.0
C      1  0.4712260000000  0.5495160000000  0.5500770000000 1.0
C      1  0.5420390000000  0.5362330000000  0.5575420000000 1.0
C      1  0.4679860000000  0.4313280000000  0.4636510000000 1.0
C      1  0.4748220000000  0.5186300000000  0.4349630000000 1.0
C      1  0.4603960000000  0.5310920000000  0.4701450000000 1.0
C      1  0.4463400000000  0.5108960000000  0.4490380000000 1.0
C      1  0.4853610000000  0.4361300000000  0.4859340000000 1.0
C      1  0.5694630000000  0.5238400000000  0.4582350000000 1.0
C      1  0.4994020000000  0.5046100000000  0.5572330000000 1.0
C      1  0.5628350000000  0.4538230000000  0.4953180000000 1.0
C      1  0.4568000000000  0.5023380000000  0.4865890000000 1.0
C      1  0.5825160000000  0.5149430000000  0.4344200000000 1.0
C      1  0.5672580000000  0.4234750000000  0.5092630000000 1.0
C      1  0.4426140000000  0.5386490000000  0.5572750000000 1.0
C      1  0.4213970000000  0.4656990000000  0.4987250000000 1.0
C      1  0.5488400000000  0.5137420000000  0.5721420000000 1.0
C      1  0.5101620000000  0.4593880000000  0.4840250000000 1.0
C      1  0.5480620000000  0.5434630000000  0.4606690000000 1.0
C      1  0.4648300000000  0.5640810000000  0.4702340000000 1.0
C      1  0.4997700000000  0.5992310000000  0.4952820000000 1.0
C      1  0.4501200000000  0.5733360000000  0.4961680000000 1.0
C      1  0.4993860000000  0.4272120000000  0.5616350000000 1.0
C      1  0.4256940000000  0.4965910000000  0.4582650000000 1.0
C      1  0.4077350000000  0.5193830000000  0.5313980000000 1.0
C      1  0.4775730000000  0.4152700000000  0.5458310000000 1.0
C      1  0.5331720000000  0.5538050000000  0.4388800000000 1.0
C      1  0.5859000000000  0.5772220000000  0.5128220000000 1.0
C      1  0.5514720000000  0.5268810000000  0.5059900000000 1.0
C      1  0.5117480000000  0.5719520000000  0.4516520000000 1.0
C      1  0.4589840000000  0.4466660000000  0.4174510000000 1.0
C      1  0.4762540000000  0.4381400000000  0.4365620000000 1.0
C      1  0.5317910000000  0.5797440000000  0.5074680000000 1.0
C      1  0.5512180000000  0.4659440000000  0.5582770000000 1.0
C      1  0.5546510000000  0.5728000000000  0.5254690000000 1.0
C      1  0.4030430000000  0.5281440000000  0.4677380000000 1.0
C      1  0.4412180000000  0.5447860000000  0.5052990000000 1.0
C      1  0.4796850000000  0.5697880000000  0.4408210000000 1.0
C      1  0.5472880000000  0.4561890000000  0.4457880000000 1.0
C      1  0.5664210000000  0.5026690000000  0.4779760000000 1.0
C      1  0.5451300000000  0.5677790000000  0.5538330000000 1.0
C      1  0.5923590000000  0.5260260000000  0.5322950000000 1.0
C      1  0.4855650000000  0.4690280000000  0.5819640000000 1.0
C      1  0.5002820000000  0.5218920000000  0.5320410000000 1.0
C      1  0.4460540000000  0.5114640000000  0.5688750000000 1.0
C      1  0.4508320000000  0.4224150000000  0.5533480000000 1.0
C      1  0.4128410000000  0.4843810000000  0.4792540000000 1.0
C      1  0.4937080000000  0.5211890000000  0.5818210000000 1.0
C      1  0.5327400000000  0.4565030000000  0.5776190000000 1.0
C      1  0.4568090000000  0.5871450000000  0.5186540000000 1.0
C      1  0.5102130000000  0.4798600000000  0.4497210000000 1.0
C      1  0.4522700000000  0.4320380000000  0.5080280000000 1.0
C      1  0.5221490000000  0.4604370000000  0.4270620000000 1.0
C      1  0.5146940000000  0.4150220000000  0.4510680000000 1.0
C      1  0.4385680000000  0.4375400000000  0.5328600000000 1.0
C      1  0.4919360000000  0.5071080000000  0.5054860000000 1.0
C      1  0.4740710000000  0.5485050000000  0.4229700000000 1.0
C      1  0.5164920000000  0.4857190000000  0.4993970000000 1.0
C      1  0.5527290000000  0.5008170000000  0.5237860000000 1.0
C      1  0.5304290000000  0.4788320000000  0.5266550000000 1.0
C      1  0.5101290000000  0.4358790000000  0.5337860000000 1.0
C      1  0.5629690000000  0.4915570000000  0.5613090000000 1.0
C      1  0.5121500000000  0.4886840000000  0.4109760000000 1.0
C      1  0.5728890000000  0.4685110000000  0.4471760000000 1.0
C      1  0.4959240000000  0.5506090000000  0.4714950000000 1.0
C      1  0.5388460000000  0.4484630000000  0.4745770000000 1.0
C      1  0.5168460000000  0.5047220000000  0.4607520000000 1.0
C      1  0.4221870000000  0.5330580000000  0.4839430000000 1.0
C      1  0.4739490000000  0.5353490000000  0.5009930000000 1.0
C      1  0.4811080000000  0.4175950000000  0.5136350000000 1.0
C      1  0.4972740000000  0.5241890000000  0.4567760000000 1.0
C      1  0.5756310000000  0.4758260000000  0.4755380000000 1.0
C      1  0.5362570000000  0.5041790000000  0.4852030000000 1.0
C      1  0.4444000000000  0.4179160000000  0.4669970000000 1.0
C      1  0.5793590000000  0.5010810000000  0.5380760000000 1.0
C      1  0.5141370000000  0.4168990000000  0.5055310000000 1.0
C      1  0.5006500000000  0.4648010000000  0.5295470000000 1.0
C      1  0.4444640000000  0.4511190000000  0.4892420000000 1.0
C      1  0.5057880000000  0.5479560000000  0.5023490000000 1.0
C      1  0.4821780000000  0.4791950000000  0.5518480000000 1.0
C      1  0.4679350000000  0.5169510000000  0.5358600000000 1.0
C      1  0.4712280000000  0.4990430000000  0.5847690000000 1.0
C      1  0.4864130000000  0.4673380000000  0.4617540000000 1.0
C      1  0.5734860000000  0.5457830000000  0.5168260000000 1.0
C      1  0.5835000000000  0.4876970000000  0.4288590000000 1.0
C      1  0.4647130000000  0.4718140000000  0.4815960000000 1.0
C      1  0.5140220000000  0.5635280000000  0.5619310000000 1.0
C      1  0.5402020000000  0.4232340000000  0.5251120000000 1.0
C      1  0.4261790000000  0.5412770000000  0.5338540000000 1.0
C      1  0.5192550000000  0.5454980000000  0.5334750000000 1.0
C      1  0.5054730000000  0.4477900000000  0.5808670000000 1.0
C      1  0.4520200000000  0.4868990000000  0.5476340000000 1.0
C      1  0.5221720000000  0.4220100000000  0.4765390000000 1.0
C      1  0.5023150000000  0.5827890000000  0.5216720000000 1.0
END
