TITL C-2778425-5191-158 -0.0560363999243598 125000 -517.972872483902 0 0 90 (C1) n - 1
REM
REM in /home/nfs/bkarasulu/CARBON/AIRSS/Generating-Clusters/REBO/Only-C1/SD-CG/HFTN-CG
REM
REM
REM
REM
REM
REM ./C.cell (11c1c37f851c82e70ff6c80c92926a4b)
REM
REM compiler GCC version 9.2.1 20190827 (Red Hat 9.2.1-1)
REM options -cpp -mtune=generic -march=x86-64 -g -O0 -fpre-include=/usr/include/finclude/math-vector-fortran.h
REM seed 1589453212 1585029198 -295158014 931040577 238044950 -590599834 -2018154073 2124595839 -82313500 2106088656 -586199093 2069131442 -1985070571 -517095561 -1602664852 -41890389 -1614085328 -1846635627 -1007729148 22018255 -113526725 -2023493289 115723220 -1002874239 101115901 -1955580377 -160094466 1307040221 -744858439 -1507449431 -833117513 -412562900 733283962
REM
CELL 1.54180   50.00000   50.00000   50.00000   90.00000   90.00000   90.00000
LATT -1
SFAC C  
C      1  0.4444090000000  0.4588330000000  0.5552570000000 1.0
C      1  0.4586680000000  0.4343210000000  0.5568380000000 1.0
C      1  0.5264360000000  0.4337320000000  0.5616680000000 1.0
C      1  0.4867330000000  0.5831340000000  0.4677680000000 1.0
C      1  0.4759370000000  0.5364810000000  0.4382580000000 1.0
C      1  0.5452820000000  0.5479400000000  0.5504500000000 1.0
C      1  0.4219010000000  0.5364300000000  0.4677430000000 1.0
C      1  0.4452500000000  0.4517580000000  0.4399030000000 1.0
C      1  0.4973820000000  0.4737910000000  0.5492310000000 1.0
C      1  0.4444220000000  0.4825350000000  0.4314890000000 1.0
C      1  0.5079180000000  0.5642580000000  0.4602260000000 1.0
C      1  0.4169310000000  0.5103770000000  0.4634150000000 1.0
C      1  0.5527740000000  0.5421330000000  0.4491730000000 1.0
C      1  0.3993650000000  0.4649190000000  0.4515640000000 1.0
C      1  0.5426600000000  0.4319530000000  0.5331250000000 1.0
C      1  0.5630380000000  0.5192800000000  0.4657100000000 1.0
C      1  0.5349970000000  0.4411990000000  0.4291110000000 1.0
C      1  0.4782070000000  0.5784120000000  0.5170690000000 1.0
C      1  0.5595760000000  0.4581590000000  0.4265990000000 1.0
C      1  0.5922350000000  0.5367270000000  0.4958100000000 1.0
C      1  0.5740570000000  0.4926630000000  0.5139010000000 1.0
C      1  0.4545520000000  0.5014840000000  0.5408510000000 1.0
C      1  0.4694820000000  0.5545230000000  0.4644660000000 1.0
C      1  0.5754680000000  0.4737680000000  0.4472710000000 1.0
C      1  0.5828340000000  0.5015920000000  0.4558410000000 1.0
C      1  0.4316680000000  0.4623250000000  0.5299680000000 1.0
C      1  0.4235460000000  0.5165160000000  0.5023550000000 1.0
C      1  0.4881660000000  0.5018850000000  0.5433520000000 1.0
C      1  0.5683110000000  0.5519140000000  0.4988360000000 1.0
C      1  0.5019810000000  0.5437610000000  0.5065680000000 1.0
C      1  0.5310760000000  0.4604560000000  0.5747180000000 1.0
C      1  0.5091520000000  0.5181610000000  0.5278610000000 1.0
C      1  0.4447980000000  0.5401700000000  0.5408180000000 1.0
C      1  0.5916620000000  0.5104390000000  0.5038700000000 1.0
C      1  0.4532870000000  0.5695040000000  0.5011420000000 1.0
C      1  0.4429350000000  0.4654350000000  0.4771740000000 1.0
C      1  0.5211140000000  0.4259380000000  0.5094630000000 1.0
C      1  0.5237660000000  0.4887320000000  0.5765150000000 1.0
C      1  0.4225360000000  0.4798600000000  0.4570430000000 1.0
C      1  0.5382270000000  0.5086410000000  0.4850030000000 1.0
C      1  0.4927750000000  0.5552000000000  0.5372540000000 1.0
C      1  0.5131920000000  0.4747740000000  0.4616800000000 1.0
C      1  0.5120410000000  0.4574940000000  0.5329110000000 1.0
C      1  0.5499420000000  0.5553110000000  0.4768780000000 1.0
C      1  0.4655470000000  0.4917760000000  0.5121610000000 1.0
C      1  0.5757800000000  0.4466810000000  0.4945870000000 1.0
C      1  0.4567840000000  0.4864460000000  0.5708120000000 1.0
C      1  0.5322040000000  0.5063650000000  0.4234380000000 1.0
C      1  0.4871220000000  0.5067190000000  0.4930150000000 1.0
C      1  0.5307240000000  0.5735270000000  0.5331560000000 1.0
C      1  0.5598320000000  0.4947920000000  0.5404540000000 1.0
C      1  0.5047570000000  0.5449480000000  0.4389300000000 1.0
C      1  0.5353860000000  0.5222710000000  0.5109570000000 1.0
C      1  0.5578530000000  0.5209980000000  0.5622370000000 1.0
C      1  0.4466000000000  0.5392700000000  0.5088120000000 1.0
C      1  0.5037000000000  0.4263170000000  0.5379810000000 1.0
C      1  0.4738270000000  0.4598560000000  0.4132090000000 1.0
C      1  0.4475360000000  0.5047010000000  0.4884940000000 1.0
C      1  0.5099070000000  0.4957830000000  0.4791620000000 1.0
C      1  0.5022510000000  0.5329070000000  0.5795910000000 1.0
C      1  0.4757020000000  0.5148920000000  0.5719340000000 1.0
C      1  0.4264790000000  0.5153950000000  0.5334170000000 1.0
C      1  0.5221310000000  0.5556820000000  0.4839800000000 1.0
C      1  0.5138360000000  0.5485020000000  0.5592080000000 1.0
C      1  0.4842550000000  0.4600870000000  0.4383970000000 1.0
C      1  0.4640750000000  0.4169990000000  0.5107550000000 1.0
C      1  0.4928170000000  0.5945760000000  0.4929160000000 1.0
C      1  0.4747680000000  0.4242670000000  0.4848630000000 1.0
C      1  0.5302640000000  0.5333480000000  0.4321450000000 1.0
C      1  0.4810660000000  0.4646890000000  0.5700080000000 1.0
C      1  0.4593880000000  0.4994200000000  0.4640260000000 1.0
C      1  0.4603390000000  0.5122970000000  0.4361500000000 1.0
C      1  0.5276210000000  0.4998540000000  0.5479780000000 1.0
C      1  0.4563790000000  0.4364390000000  0.4660250000000 1.0
C      1  0.4390850000000  0.5575180000000  0.4741430000000 1.0
C      1  0.5490620000000  0.4629610000000  0.5469670000000 1.0
C      1  0.5522470000000  0.5424570000000  0.5204030000000 1.0
C      1  0.5039970000000  0.4254750000000  0.4864600000000 1.0
C      1  0.5117660000000  0.5847390000000  0.5182100000000 1.0
C      1  0.5358980000000  0.4665980000000  0.5160350000000 1.0
C      1  0.5117410000000  0.4498250000000  0.4423410000000 1.0
C      1  0.5515680000000  0.4814400000000  0.4703300000000 1.0
C      1  0.4695280000000  0.5408950000000  0.5536540000000 1.0
C      1  0.4743500000000  0.4214560000000  0.5369840000000 1.0
C      1  0.4722270000000  0.4724790000000  0.4609090000000 1.0
C      1  0.5434890000000  0.5104480000000  0.5842230000000 1.0
C      1  0.4438410000000  0.4695200000000  0.5067360000000 1.0
C      1  0.4742800000000  0.5369830000000  0.4911870000000 1.0
C      1  0.5371670000000  0.4804570000000  0.4393300000000 1.0
C      1  0.5601360000000  0.4700300000000  0.4971400000000 1.0
END
