TITL C-2778424-3986-575 -0.00156160263717777 125000 -466.064165500707 0 0 80 (C1) n - 1
REM
REM in /home/nfs/bkarasulu/CARBON/AIRSS/Generating-Clusters/REBO/Only-C1/SD-CG/HFTN-CG
REM
REM
REM
REM
REM
REM ./C.cell (11c1c37f851c82e70ff6c80c92926a4b)
REM
REM compiler GCC version 9.2.1 20190827 (Red Hat 9.2.1-1)
REM options -cpp -mtune=generic -march=x86-64 -g -O0 -fpre-include=/usr/include/finclude/math-vector-fortran.h
REM seed -410570793 1964336184 -1352999209 -85097247 -1613432169 525342614 -412658863 -657265475 812690318 1281105324 -521353039 433166574 -1399795217 -573318650 -1563306825 277157143 -1930752448 762899686 -1980615351 2072336228 1217608728 -85203144 -1300333810 -530883343 304496771 -1589469358 1675557593 154749139 1579519205 2122467978 2098757564 -1973141709 -184937516
REM
CELL 1.54180   50.00000   50.00000   50.00000   90.00000   90.00000   90.00000
LATT -1
SFAC C  
C      1  0.5668580000000  0.5182520000000  0.5505250000000 1.0
C      1  0.5647830000000  0.4905350000000  0.5452460000000 1.0
C      1  0.4472860000000  0.4582230000000  0.4310740000000 1.0
C      1  0.5229240000000  0.5605330000000  0.4608880000000 1.0
C      1  0.4649460000000  0.5222730000000  0.4952500000000 1.0
C      1  0.5401770000000  0.5595160000000  0.5241440000000 1.0
C      1  0.5116110000000  0.4575280000000  0.5929630000000 1.0
C      1  0.5397570000000  0.5698050000000  0.4440530000000 1.0
C      1  0.5693030000000  0.4836510000000  0.5175380000000 1.0
C      1  0.5133600000000  0.5182220000000  0.4883570000000 1.0
C      1  0.4686600000000  0.4779960000000  0.5760490000000 1.0
C      1  0.4422340000000  0.5224360000000  0.4710680000000 1.0
C      1  0.5416310000000  0.4774290000000  0.5556640000000 1.0
C      1  0.5065490000000  0.4314370000000  0.4827630000000 1.0
C      1  0.4643730000000  0.5667240000000  0.4655640000000 1.0
C      1  0.4692330000000  0.5700950000000  0.5458850000000 1.0
C      1  0.4325430000000  0.4893030000000  0.5074250000000 1.0
C      1  0.5052620000000  0.4153980000000  0.5109040000000 1.0
C      1  0.5137710000000  0.4641910000000  0.4874570000000 1.0
C      1  0.5311240000000  0.4899080000000  0.4945470000000 1.0
C      1  0.5034840000000  0.5388290000000  0.4308780000000 1.0
C      1  0.5438340000000  0.4518140000000  0.4523510000000 1.0
C      1  0.5573750000000  0.4985960000000  0.4657880000000 1.0
C      1  0.4960200000000  0.5376620000000  0.5693020000000 1.0
C      1  0.5487570000000  0.4793490000000  0.4447280000000 1.0
C      1  0.4999150000000  0.5758480000000  0.5048730000000 1.0
C      1  0.5067110000000  0.5644160000000  0.4222170000000 1.0
C      1  0.4364290000000  0.4953190000000  0.4598670000000 1.0
C      1  0.4980340000000  0.4510820000000  0.4314980000000 1.0
C      1  0.4658700000000  0.4890830000000  0.5449840000000 1.0
C      1  0.4772030000000  0.4785570000000  0.4810530000000 1.0
C      1  0.5130630000000  0.4327770000000  0.5383810000000 1.0
C      1  0.5468440000000  0.4638370000000  0.5098340000000 1.0
C      1  0.5250550000000  0.4855140000000  0.5788560000000 1.0
C      1  0.4563900000000  0.5081240000000  0.5706500000000 1.0
C      1  0.4721510000000  0.5012130000000  0.4271740000000 1.0
C      1  0.5135890000000  0.4489170000000  0.4567700000000 1.0
C      1  0.4593630000000  0.5681550000000  0.5174500000000 1.0
C      1  0.4600450000000  0.5420050000000  0.4544230000000 1.0
C      1  0.4971110000000  0.5613950000000  0.5505540000000 1.0
C      1  0.4904840000000  0.4970070000000  0.5295670000000 1.0
C      1  0.5067500000000  0.5499110000000  0.4844130000000 1.0
C      1  0.5783950000000  0.4996980000000  0.4908960000000 1.0
C      1  0.4486190000000  0.4867670000000  0.4356800000000 1.0
C      1  0.4851620000000  0.4498490000000  0.5782340000000 1.0
C      1  0.4944030000000  0.4852510000000  0.5937240000000 1.0
C      1  0.4653540000000  0.6131500000000  0.4880630000000 1.0
C      1  0.4861050000000  0.4319140000000  0.5570280000000 1.0
C      1  0.4529170000000  0.5572330000000  0.5658160000000 1.0
C      1  0.6050710000000  0.5037250000000  0.4859670000000 1.0
C      1  0.4552830000000  0.4540100000000  0.4822890000000 1.0
C      1  0.5515420000000  0.5156310000000  0.5014900000000 1.0
C      1  0.5562730000000  0.4375540000000  0.5000570000000 1.0
C      1  0.4767660000000  0.5283700000000  0.4354240000000 1.0
C      1  0.5254330000000  0.5212360000000  0.4379650000000 1.0
C      1  0.4728250000000  0.4387950000000  0.4305910000000 1.0
C      1  0.4769210000000  0.5478930000000  0.4985000000000 1.0
C      1  0.4706640000000  0.5860760000000  0.4908490000000 1.0
C      1  0.4335030000000  0.5213070000000  0.5040550000000 1.0
C      1  0.4489490000000  0.4741870000000  0.5259580000000 1.0
C      1  0.5277100000000  0.4609920000000  0.5342910000000 1.0
C      1  0.4995240000000  0.4547210000000  0.5153550000000 1.0
C      1  0.5147050000000  0.5701970000000  0.5299310000000 1.0
C      1  0.5553140000000  0.5335070000000  0.5302200000000 1.0
C      1  0.4319030000000  0.5507350000000  0.5161920000000 1.0
C      1  0.4658270000000  0.4512980000000  0.5122180000000 1.0
C      1  0.4340360000000  0.4771870000000  0.4815890000000 1.0
C      1  0.4667610000000  0.5335870000000  0.5749590000000 1.0
C      1  0.5142250000000  0.5016910000000  0.5399210000000 1.0
C      1  0.4859280000000  0.5014530000000  0.4994710000000 1.0
C      1  0.4994920000000  0.4822210000000  0.4247710000000 1.0
C      1  0.5133340000000  0.5164720000000  0.5768840000000 1.0
C      1  0.4889830000000  0.4804190000000  0.4566290000000 1.0
C      1  0.5334270000000  0.4149110000000  0.4914930000000 1.0
C      1  0.4535360000000  0.4388080000000  0.4566120000000 1.0
C      1  0.5278230000000  0.4937970000000  0.4279080000000 1.0
C      1  0.4765170000000  0.4244010000000  0.5268980000000 1.0
C      1  0.5544850000000  0.4311370000000  0.4692910000000 1.0
C      1  0.5451390000000  0.5479830000000  0.4949630000000 1.0
C      1  0.5362850000000  0.5189700000000  0.4648450000000 1.0
END
