TITL C-2778431-5191-1362 -0.00167649575912587 125000 -910.530428609576 0 0 156 (C1) n - 1
REM
REM in /home/nfs/bkarasulu/CARBON/AIRSS/Generating-Clusters/REBO/Only-C1/SD-CG/HFTN-CG
REM
REM
REM
REM
REM
REM ./C.cell (11c1c37f851c82e70ff6c80c92926a4b)
REM
REM compiler GCC version 9.2.1 20190827 (Red Hat 9.2.1-1)
REM options -cpp -mtune=generic -march=x86-64 -g -O0 -fpre-include=/usr/include/finclude/math-vector-fortran.h
REM seed 425705200 1587345296 -18669371 366700511 -1575377287 -1871542414 257297346 33103310 1893949074 138457892 -418375374 1052747082 -1202643427 709976818 -1367445473 216274728 1200194048 1415141383 423138757 -327661520 -1780322644 1052879451 69943696 728900574 -232423422 -20724104 -589223111 -1124456949 -1951096617 890664332 498210941 88593008 -603975311
REM
CELL 1.54180   50.00000   50.00000   50.00000   90.00000   90.00000   90.00000
LATT -1
SFAC C  
C      1  0.4398190000000  0.4817800000000  0.4560690000000 1.0
C      1  0.4068280000000  0.5074830000000  0.4804870000000 1.0
C      1  0.4674380000000  0.5732470000000  0.5251230000000 1.0
C      1  0.5368840000000  0.5507880000000  0.5126660000000 1.0
C      1  0.4401310000000  0.5113750000000  0.4824700000000 1.0
C      1  0.4505980000000  0.4359720000000  0.4671480000000 1.0
C      1  0.4168020000000  0.4365660000000  0.5067270000000 1.0
C      1  0.4611250000000  0.4383150000000  0.5789220000000 1.0
C      1  0.5305900000000  0.6135980000000  0.5258210000000 1.0
C      1  0.4413700000000  0.4715320000000  0.4850200000000 1.0
C      1  0.5756660000000  0.4792670000000  0.4368090000000 1.0
C      1  0.5892870000000  0.5741110000000  0.5120300000000 1.0
C      1  0.4971780000000  0.5633080000000  0.5770160000000 1.0
C      1  0.5242550000000  0.5086500000000  0.4999520000000 1.0
C      1  0.4924980000000  0.5752270000000  0.5453810000000 1.0
C      1  0.5390020000000  0.4198750000000  0.4344840000000 1.0
C      1  0.5165100000000  0.5350090000000  0.5287650000000 1.0
C      1  0.4992250000000  0.4992200000000  0.6107680000000 1.0
C      1  0.4758040000000  0.4228130000000  0.4393570000000 1.0
C      1  0.4535100000000  0.4947740000000  0.5848340000000 1.0
C      1  0.5238620000000  0.5666590000000  0.5555930000000 1.0
C      1  0.4723130000000  0.4548130000000  0.4511650000000 1.0
C      1  0.4765690000000  0.5090560000000  0.4017220000000 1.0
C      1  0.5631540000000  0.5316500000000  0.5582350000000 1.0
C      1  0.4322610000000  0.4259410000000  0.5352090000000 1.0
C      1  0.5226780000000  0.4080330000000  0.5244650000000 1.0
C      1  0.5252510000000  0.5743200000000  0.4989380000000 1.0
C      1  0.4994210000000  0.4994450000000  0.4567990000000 1.0
C      1  0.4306480000000  0.4626500000000  0.4323710000000 1.0
C      1  0.5273300000000  0.4540970000000  0.4927010000000 1.0
C      1  0.4861740000000  0.5352420000000  0.4129000000000 1.0
C      1  0.5723470000000  0.6193600000000  0.5509170000000 1.0
C      1  0.5509360000000  0.4762250000000  0.5323130000000 1.0
C      1  0.5059590000000  0.4694710000000  0.5996030000000 1.0
C      1  0.4312290000000  0.4719630000000  0.5177470000000 1.0
C      1  0.4875630000000  0.5410080000000  0.5128300000000 1.0
C      1  0.5425210000000  0.5293190000000  0.5743030000000 1.0
C      1  0.4883910000000  0.5428800000000  0.4724050000000 1.0
C      1  0.4488490000000  0.4713730000000  0.4110770000000 1.0
C      1  0.4071880000000  0.4506700000000  0.4771960000000 1.0
C      1  0.5756270000000  0.5617990000000  0.5355590000000 1.0
C      1  0.3999420000000  0.4653960000000  0.5137230000000 1.0
C      1  0.5649140000000  0.5072250000000  0.4311100000000 1.0
C      1  0.5623940000000  0.5469980000000  0.5010430000000 1.0
C      1  0.5995210000000  0.4781080000000  0.4612550000000 1.0
C      1  0.4731940000000  0.5362890000000  0.4443880000000 1.0
C      1  0.5509060000000  0.5749080000000  0.5464120000000 1.0
C      1  0.5485410000000  0.5798330000000  0.4671280000000 1.0
C      1  0.4713960000000  0.4877910000000  0.4492700000000 1.0
C      1  0.5152350000000  0.4561550000000  0.5365210000000 1.0
C      1  0.4714240000000  0.5621170000000  0.3982690000000 1.0
C      1  0.4667460000000  0.5655660000000  0.4297820000000 1.0
C      1  0.5678840000000  0.5766770000000  0.4878570000000 1.0
C      1  0.4874580000000  0.5993770000000  0.5027260000000 1.0
C      1  0.5229010000000  0.4855640000000  0.4023400000000 1.0
C      1  0.4710710000000  0.4542720000000  0.5440300000000 1.0
C      1  0.4737080000000  0.5148030000000  0.6020540000000 1.0
C      1  0.5917740000000  0.5048720000000  0.5505010000000 1.0
C      1  0.4150220000000  0.5355830000000  0.5191770000000 1.0
C      1  0.4189260000000  0.5460180000000  0.5454720000000 1.0
C      1  0.5413540000000  0.4515970000000  0.5525590000000 1.0
C      1  0.4881630000000  0.5727570000000  0.4557340000000 1.0
C      1  0.4795180000000  0.4028100000000  0.4885220000000 1.0
C      1  0.5789660000000  0.4377990000000  0.5263790000000 1.0
C      1  0.4514550000000  0.5127060000000  0.4460020000000 1.0
C      1  0.5001360000000  0.4538950000000  0.4796150000000 1.0
C      1  0.5883430000000  0.4511020000000  0.4780570000000 1.0
C      1  0.5418830000000  0.5328570000000  0.3944310000000 1.0
C      1  0.4905790000000  0.4020700000000  0.5355050000000 1.0
C      1  0.5506940000000  0.4223840000000  0.5378750000000 1.0
C      1  0.5318110000000  0.5048310000000  0.5329270000000 1.0
C      1  0.5353120000000  0.4618360000000  0.5836790000000 1.0
C      1  0.5696400000000  0.5221860000000  0.4579540000000 1.0
C      1  0.5618430000000  0.4685560000000  0.4654060000000 1.0
C      1  0.6029080000000  0.5576650000000  0.4902250000000 1.0
C      1  0.4402570000000  0.5502330000000  0.4730250000000 1.0
C      1  0.4180200000000  0.5564770000000  0.4962450000000 1.0
C      1  0.4690680000000  0.4231910000000  0.5514410000000 1.0
C      1  0.5221190000000  0.5201110000000  0.6138770000000 1.0
C      1  0.5584930000000  0.4103820000000  0.5069500000000 1.0
C      1  0.4735960000000  0.5163200000000  0.5694060000000 1.0
C      1  0.4283550000000  0.5187420000000  0.4240280000000 1.0
C      1  0.4341780000000  0.5099590000000  0.5151770000000 1.0
C      1  0.5547590000000  0.4558590000000  0.4282330000000 1.0
C      1  0.4643160000000  0.5932690000000  0.4690770000000 1.0
C      1  0.4364200000000  0.5793250000000  0.5113580000000 1.0
C      1  0.5561750000000  0.4876560000000  0.5899340000000 1.0
C      1  0.5297860000000  0.4940010000000  0.5606450000000 1.0
C      1  0.4259680000000  0.5234340000000  0.5638920000000 1.0
C      1  0.5335860000000  0.5041810000000  0.4209960000000 1.0
C      1  0.5304960000000  0.5519840000000  0.4732130000000 1.0
C      1  0.4576870000000  0.4052700000000  0.5259170000000 1.0
C      1  0.5835720000000  0.4311730000000  0.4968610000000 1.0
C      1  0.5944890000000  0.5054640000000  0.4745920000000 1.0
C      1  0.6001770000000  0.4831700000000  0.5345540000000 1.0
C      1  0.4750810000000  0.4674790000000  0.4898510000000 1.0
C      1  0.5046030000000  0.4663180000000  0.4502280000000 1.0
C      1  0.4555810000000  0.5372040000000  0.5585080000000 1.0
C      1  0.4298600000000  0.4942920000000  0.5681580000000 1.0
C      1  0.5789520000000  0.4947110000000  0.5739410000000 1.0
C      1  0.5084210000000  0.4171190000000  0.5602500000000 1.0
C      1  0.5233940000000  0.5693650000000  0.4216820000000 1.0
C      1  0.5572610000000  0.4942600000000  0.4835400000000 1.0
C      1  0.5127000000000  0.5177880000000  0.4370620000000 1.0
C      1  0.4536920000000  0.5339490000000  0.5289720000000 1.0
C      1  0.5805030000000  0.5286310000000  0.5315380000000 1.0
C      1  0.5754220000000  0.5179600000000  0.5001020000000 1.0
C      1  0.4577130000000  0.5361360000000  0.4965730000000 1.0
C      1  0.5795200000000  0.4649110000000  0.5310400000000 1.0
C      1  0.3957090000000  0.4759070000000  0.4754700000000 1.0
C      1  0.5636170000000  0.5230850000000  0.4027550000000 1.0
C      1  0.5118790000000  0.4373080000000  0.5776860000000 1.0
C      1  0.4656830000000  0.5663590000000  0.5643360000000 1.0
C      1  0.4387630000000  0.5701940000000  0.5437650000000 1.0
C      1  0.5148350000000  0.5988890000000  0.5077360000000 1.0
C      1  0.5444030000000  0.4306640000000  0.4843280000000 1.0
C      1  0.5176170000000  0.5405350000000  0.4122570000000 1.0
C      1  0.4572160000000  0.5993850000000  0.4966880000000 1.0
C      1  0.5064160000000  0.4350280000000  0.5202510000000 1.0
C      1  0.4484920000000  0.5719940000000  0.4549530000000 1.0
C      1  0.4973250000000  0.5146050000000  0.4845440000000 1.0
C      1  0.5301520000000  0.4015230000000  0.4933550000000 1.0
C      1  0.5212010000000  0.4482660000000  0.4305270000000 1.0
C      1  0.4288500000000  0.4713850000000  0.5508920000000 1.0
C      1  0.5066930000000  0.3994910000000  0.4766350000000 1.0
C      1  0.4473350000000  0.4237540000000  0.4988100000000 1.0
C      1  0.4246430000000  0.4448210000000  0.4560360000000 1.0
C      1  0.4996290000000  0.5351580000000  0.5932200000000 1.0
C      1  0.4815170000000  0.5677800000000  0.4946420000000 1.0
C      1  0.4883200000000  0.5091220000000  0.5174970000000 1.0
C      1  0.5953320000000  0.5391000000000  0.4726860000000 1.0
C      1  0.4636090000000  0.4967450000000  0.5030630000000 1.0
C      1  0.4089110000000  0.5334670000000  0.4371590000000 1.0
C      1  0.4775400000000  0.4625770000000  0.4064630000000 1.0
C      1  0.4918070000000  0.4417550000000  0.4189140000000 1.0
C      1  0.4799110000000  0.4316340000000  0.5066230000000 1.0
C      1  0.4942560000000  0.5063500000000  0.5473030000000 1.0
C      1  0.4850080000000  0.4462820000000  0.5918890000000 1.0
C      1  0.5407910000000  0.4634010000000  0.3994440000000 1.0
C      1  0.4938190000000  0.4860930000000  0.3993740000000 1.0
C      1  0.5136100000000  0.5304230000000  0.5623320000000 1.0
C      1  0.5383960000000  0.4786080000000  0.5038400000000 1.0
C      1  0.5441990000000  0.5129210000000  0.5976920000000 1.0
C      1  0.4592860000000  0.4572940000000  0.5165510000000 1.0
C      1  0.4108730000000  0.5367390000000  0.4688430000000 1.0
C      1  0.5187380000000  0.5749320000000  0.4512900000000 1.0
C      1  0.5420120000000  0.5242480000000  0.4755110000000 1.0
C      1  0.4492000000000  0.5011860000000  0.4078480000000 1.0
C      1  0.4354950000000  0.4436720000000  0.5584130000000 1.0
C      1  0.4986750000000  0.4260040000000  0.4625200000000 1.0
C      1  0.4618480000000  0.4060000000000  0.4655830000000 1.0
C      1  0.5538650000000  0.4366820000000  0.4565480000000 1.0
C      1  0.3868660000000  0.4906200000000  0.5023830000000 1.0
C      1  0.5056560000000  0.4938370000000  0.5773770000000 1.0
C      1  0.4937330000000  0.4683110000000  0.5491200000000 1.0
C      1  0.5516960000000  0.6040490000000  0.5421650000000 1.0
END
