TITL C-2778434-4341-874 -2.35552419437581e-07 125000 -51.1105472771628 0 0 10 (C1) n - 1
REM
REM in /home/nfs/bkarasulu/CARBON/AIRSS/Generating-Clusters/REBO/Only-C1/SD-CG/HFTN-CG
REM
REM
REM
REM
REM
REM ./C.cell (11c1c37f851c82e70ff6c80c92926a4b)
REM
REM compiler GCC version 9.2.1 20190827 (Red Hat 9.2.1-1)
REM options -cpp -mtune=generic -march=x86-64 -g -O0 -fpre-include=/usr/include/finclude/math-vector-fortran.h
REM seed -123720765 505645064 2091485745 -1024706237 -916658251 -1701437161 -135233359 1646797350 -911960181 -287942389 398030305 1750260918 -226556807 135671666 555647052 -899589923 2061153910 -1598817539 1316461149 53873141 751534138 -297219466 -1747136291 73275921 -140215537 1430247948 378374593 -1865956597 279089056 -986152540 1566642717 941537040 748121429
REM
CELL 1.54180   50.00000   50.00000   50.00000   90.00000   90.00000   90.00000
LATT -1
SFAC C  
C      1  0.5047580000000  0.5104750000000  0.5038630000000 1.0
C      1  0.5481920000000  0.5202350000000  0.4860560000000 1.0
C      1  0.4607730000000  0.4671990000000  0.4659050000000 1.0
C      1  0.5321740000000  0.5147210000000  0.5074200000000 1.0
C      1  0.5530120000000  0.5118380000000  0.5573470000000 1.0
C      1  0.4528190000000  0.4484660000000  0.4493930000000 1.0
C      1  0.4773420000000  0.5062280000000  0.5003060000000 1.0
C      1  0.4591420000000  0.5213690000000  0.5138310000000 1.0
C      1  0.4688540000000  0.4862350000000  0.4826840000000 1.0
C      1  0.5429320000000  0.5132330000000  0.5331960000000 1.0
END
