TITL C-2778429-3646-371 0.00159322868299277 125000 -329.948353897574 0 0 57 (C1) n - 1
REM
REM in /home/nfs/bkarasulu/CARBON/AIRSS/Generating-Clusters/REBO/Only-C1/SD-CG/HFTN-CG
REM
REM
REM
REM
REM
REM ./C.cell (11c1c37f851c82e70ff6c80c92926a4b)
REM
REM compiler GCC version 9.2.1 20190827 (Red Hat 9.2.1-1)
REM options -cpp -mtune=generic -march=x86-64 -g -O0 -fpre-include=/usr/include/finclude/math-vector-fortran.h
REM seed 1032722171 1698375302 -2050267312 940690346 1998181700 -2085007432 -191235399 1546203437 -2108063281 1444904763 466908580 86053599 -1424232749 962366883 -630331035 672029666 1935909737 1493504293 1404924937 -758418326 -913087518 1205675824 -36554461 -1141480455 928041251 -1086356852 2145638326 -801600437 -1611394983 1416367100 1699677482 251769924 1275798834
REM
CELL 1.54180   50.00000   50.00000   50.00000   90.00000   90.00000   90.00000
LATT -1
SFAC C  
C      1  0.5207890000000  0.4773220000000  0.5688900000000 1.0
C      1  0.4621060000000  0.5335820000000  0.4488610000000 1.0
C      1  0.5204940000000  0.5110070000000  0.4786610000000 1.0
C      1  0.5512530000000  0.4566070000000  0.5178640000000 1.0
C      1  0.4466930000000  0.4930240000000  0.5496930000000 1.0
C      1  0.4950980000000  0.4975380000000  0.4288880000000 1.0
C      1  0.4265770000000  0.5004750000000  0.4703090000000 1.0
C      1  0.4671750000000  0.4679910000000  0.5407390000000 1.0
C      1  0.4911780000000  0.5309460000000  0.5634770000000 1.0
C      1  0.5611590000000  0.4839650000000  0.4474870000000 1.0
C      1  0.4903820000000  0.5338580000000  0.4666320000000 1.0
C      1  0.5540010000000  0.4727000000000  0.4724250000000 1.0
C      1  0.5153040000000  0.5451920000000  0.4508270000000 1.0
C      1  0.5205710000000  0.4637330000000  0.4530460000000 1.0
C      1  0.4376340000000  0.5109220000000  0.5253010000000 1.0
C      1  0.4826440000000  0.5481880000000  0.5185500000000 1.0
C      1  0.5029590000000  0.5313270000000  0.4982990000000 1.0
C      1  0.4240200000000  0.4964530000000  0.5046530000000 1.0
C      1  0.5435000000000  0.5205820000000  0.5531080000000 1.0
C      1  0.4699130000000  0.4632760000000  0.4568180000000 1.0
C      1  0.4477450000000  0.5097390000000  0.4452820000000 1.0
C      1  0.5616900000000  0.4788200000000  0.5330660000000 1.0
C      1  0.5050890000000  0.4691930000000  0.5012250000000 1.0
C      1  0.5401330000000  0.5420830000000  0.5348320000000 1.0
C      1  0.5418390000000  0.5276040000000  0.4598280000000 1.0
C      1  0.5066760000000  0.5696080000000  0.4729770000000 1.0
C      1  0.4740210000000  0.4629610000000  0.5102780000000 1.0
C      1  0.4391870000000  0.5473000000000  0.4942500000000 1.0
C      1  0.4553080000000  0.4554280000000  0.4841290000000 1.0
C      1  0.5635830000000  0.4548020000000  0.4919700000000 1.0
C      1  0.5223230000000  0.5621460000000  0.5447430000000 1.0
C      1  0.4987250000000  0.4910500000000  0.5477510000000 1.0
C      1  0.4843210000000  0.4844880000000  0.4788780000000 1.0
C      1  0.4756170000000  0.4990320000000  0.5274760000000 1.0
C      1  0.5058120000000  0.4362500000000  0.5365820000000 1.0
C      1  0.4692080000000  0.4315730000000  0.5043670000000 1.0
C      1  0.5464850000000  0.5004300000000  0.4311410000000 1.0
C      1  0.5189470000000  0.5157040000000  0.4338600000000 1.0
C      1  0.4526240000000  0.5365260000000  0.5196400000000 1.0
C      1  0.5162750000000  0.5115380000000  0.5678530000000 1.0
C      1  0.4861740000000  0.4193330000000  0.5229650000000 1.0
C      1  0.4954930000000  0.4580770000000  0.5564160000000 1.0
C      1  0.4290990000000  0.4704340000000  0.4856660000000 1.0
C      1  0.5766240000000  0.5148740000000  0.4984270000000 1.0
C      1  0.5472290000000  0.4904510000000  0.5542180000000 1.0
C      1  0.5347240000000  0.5353780000000  0.5073100000000 1.0
C      1  0.5545550000000  0.5290770000000  0.4883290000000 1.0
C      1  0.5789540000000  0.4960380000000  0.5181590000000 1.0
C      1  0.4646630000000  0.4896150000000  0.4361320000000 1.0
C      1  0.5229150000000  0.4509960000000  0.5186670000000 1.0
C      1  0.4955710000000  0.5529420000000  0.5461000000000 1.0
C      1  0.4689060000000  0.5164120000000  0.5558610000000 1.0
C      1  0.4736470000000  0.5111860000000  0.4802000000000 1.0
C      1  0.5241490000000  0.4815790000000  0.4797630000000 1.0
C      1  0.4929210000000  0.5696380000000  0.4941000000000 1.0
C      1  0.4978040000000  0.4685560000000  0.4394580000000 1.0
C      1  0.4475110000000  0.5204550000000  0.4835740000000 1.0
END
