TITL C-2778430-5657-269 -0.00243025575822024 125000 -739.506285605837 0 0 129 (C1) n - 1
REM
REM in /home/nfs/bkarasulu/CARBON/AIRSS/Generating-Clusters/REBO/Only-C1/SD-CG/HFTN-CG
REM
REM
REM
REM
REM
REM ./C.cell (11c1c37f851c82e70ff6c80c92926a4b)
REM
REM compiler GCC version 9.2.1 20190827 (Red Hat 9.2.1-1)
REM options -cpp -mtune=generic -march=x86-64 -g -O0 -fpre-include=/usr/include/finclude/math-vector-fortran.h
REM seed 1320244152 2051734311 -601531461 -1398611631 238747672 934875160 -1971468806 -455174270 2092892060 -1624592913 -154091279 327441653 -361251172 -66035174 1718289605 267405608 -1291885427 -1742246881 -1806464470 -1595458591 -2022714877 -682414240 169674425 -2065735450 1305005587 674609364 -1909084776 1360967903 -1513215623 -1018377015 1726022547 -1880282713 -182634926
REM
CELL 1.54180   50.00000   50.00000   50.00000   90.00000   90.00000   90.00000
LATT -1
SFAC C  
C      1  0.4531430000000  0.4224850000000  0.5169570000000 1.0
C      1  0.5449050000000  0.4803090000000  0.4786930000000 1.0
C      1  0.4639790000000  0.5838260000000  0.4931240000000 1.0
C      1  0.5115150000000  0.4925470000000  0.5280710000000 1.0
C      1  0.4649580000000  0.5234490000000  0.4430380000000 1.0
C      1  0.4887710000000  0.4474060000000  0.4231360000000 1.0
C      1  0.3981350000000  0.4871360000000  0.4829370000000 1.0
C      1  0.4106360000000  0.4699950000000  0.5427420000000 1.0
C      1  0.4148150000000  0.4367950000000  0.5208970000000 1.0
C      1  0.5110220000000  0.4156700000000  0.4663490000000 1.0
C      1  0.4502640000000  0.5681970000000  0.5190580000000 1.0
C      1  0.5351770000000  0.4817760000000  0.5072140000000 1.0
C      1  0.4145740000000  0.4647430000000  0.4799490000000 1.0
C      1  0.5369410000000  0.5562100000000  0.5665290000000 1.0
C      1  0.5114990000000  0.5298210000000  0.5201550000000 1.0
C      1  0.4725810000000  0.4403810000000  0.5572770000000 1.0
C      1  0.5679700000000  0.4566340000000  0.4802960000000 1.0
C      1  0.5796940000000  0.5331280000000  0.4630130000000 1.0
C      1  0.4584530000000  0.5565140000000  0.4384090000000 1.0
C      1  0.4390040000000  0.4906750000000  0.4976870000000 1.0
C      1  0.4148050000000  0.5348120000000  0.4953970000000 1.0
C      1  0.4633290000000  0.5067490000000  0.4132970000000 1.0
C      1  0.5408940000000  0.5471250000000  0.4226900000000 1.0
C      1  0.4452880000000  0.4657580000000  0.5778580000000 1.0
C      1  0.4366100000000  0.5556520000000  0.4839560000000 1.0
C      1  0.4857280000000  0.4070120000000  0.4802950000000 1.0
C      1  0.5933880000000  0.5397330000000  0.5149880000000 1.0
C      1  0.5153460000000  0.4840920000000  0.4525920000000 1.0
C      1  0.5585860000000  0.4430920000000  0.5628120000000 1.0
C      1  0.5235400000000  0.4555480000000  0.5227750000000 1.0
C      1  0.4783640000000  0.5227990000000  0.6136320000000 1.0
C      1  0.5601850000000  0.5503620000000  0.5465210000000 1.0
C      1  0.4347200000000  0.4760380000000  0.6011690000000 1.0
C      1  0.5139490000000  0.5249180000000  0.4864990000000 1.0
C      1  0.4554400000000  0.5732730000000  0.4652760000000 1.0
C      1  0.5026490000000  0.5225800000000  0.4307790000000 1.0
C      1  0.5701560000000  0.5579420000000  0.5085480000000 1.0
C      1  0.5233300000000  0.5325630000000  0.5771980000000 1.0
C      1  0.4594650000000  0.4698480000000  0.5247000000000 1.0
C      1  0.5843430000000  0.5011190000000  0.5501600000000 1.0
C      1  0.4825200000000  0.5769060000000  0.5205220000000 1.0
C      1  0.5762370000000  0.4908290000000  0.4201550000000 1.0
C      1  0.5437870000000  0.4673870000000  0.4466730000000 1.0
C      1  0.5394950000000  0.5875830000000  0.5099640000000 1.0
C      1  0.5516450000000  0.4936740000000  0.5525700000000 1.0
C      1  0.4671740000000  0.4834450000000  0.4540860000000 1.0
C      1  0.5051070000000  0.4346690000000  0.4431460000000 1.0
C      1  0.4218900000000  0.5402740000000  0.5489020000000 1.0
C      1  0.5787270000000  0.5123960000000  0.4360660000000 1.0
C      1  0.5817390000000  0.4677640000000  0.5579700000000 1.0
C      1  0.5735600000000  0.4532330000000  0.5273410000000 1.0
C      1  0.4805120000000  0.5630980000000  0.4169260000000 1.0
C      1  0.5458170000000  0.4650880000000  0.5418870000000 1.0
C      1  0.4201400000000  0.4940470000000  0.5260670000000 1.0
C      1  0.4650240000000  0.5441010000000  0.4908110000000 1.0
C      1  0.5593180000000  0.5888140000000  0.4873120000000 1.0
C      1  0.5331410000000  0.5089240000000  0.4648780000000 1.0
C      1  0.5268370000000  0.4330040000000  0.5555030000000 1.0
C      1  0.5315280000000  0.5070630000000  0.3920780000000 1.0
C      1  0.5382320000000  0.4147830000000  0.4841400000000 1.0
C      1  0.5313190000000  0.5511130000000  0.4745150000000 1.0
C      1  0.5132270000000  0.4826220000000  0.5822350000000 1.0
C      1  0.4917860000000  0.4941690000000  0.4383070000000 1.0
C      1  0.4283320000000  0.5501000000000  0.5226450000000 1.0
C      1  0.4909800000000  0.4537610000000  0.4887090000000 1.0
C      1  0.4997540000000  0.5127250000000  0.5917260000000 1.0
C      1  0.4835090000000  0.4870870000000  0.4082370000000 1.0
C      1  0.4805410000000  0.4996910000000  0.5672480000000 1.0
C      1  0.4948320000000  0.5535690000000  0.5592090000000 1.0
C      1  0.4974940000000  0.4327180000000  0.5422510000000 1.0
C      1  0.5118920000000  0.4556410000000  0.4672780000000 1.0
C      1  0.4779320000000  0.4033520000000  0.5188590000000 1.0
C      1  0.5585400000000  0.4959460000000  0.5203450000000 1.0
C      1  0.5315730000000  0.4795940000000  0.4012290000000 1.0
C      1  0.4367530000000  0.4940510000000  0.4647990000000 1.0
C      1  0.5954640000000  0.4694030000000  0.4769120000000 1.0
C      1  0.4789020000000  0.5352000000000  0.5161500000000 1.0
C      1  0.4774700000000  0.4801960000000  0.4987690000000 1.0
C      1  0.5412170000000  0.4418520000000  0.4685990000000 1.0
C      1  0.4764400000000  0.5295650000000  0.6384250000000 1.0
C      1  0.5048310000000  0.4666340000000  0.4037280000000 1.0
C      1  0.4241660000000  0.5229670000000  0.4649170000000 1.0
C      1  0.4607870000000  0.5195780000000  0.5868490000000 1.0
C      1  0.4940320000000  0.4327020000000  0.5094520000000 1.0
C      1  0.5207180000000  0.5788170000000  0.4879370000000 1.0
C      1  0.4409920000000  0.5276920000000  0.4169640000000 1.0
C      1  0.5812870000000  0.5326030000000  0.5410040000000 1.0
C      1  0.4346740000000  0.4613500000000  0.4536250000000 1.0
C      1  0.4638790000000  0.5098440000000  0.4891430000000 1.0
C      1  0.4621990000000  0.4568110000000  0.4333970000000 1.0
C      1  0.4625200000000  0.4242050000000  0.4866460000000 1.0
C      1  0.4695310000000  0.5393300000000  0.5635950000000 1.0
C      1  0.5323510000000  0.5018630000000  0.5719270000000 1.0
C      1  0.4622070000000  0.4543270000000  0.4725250000000 1.0
C      1  0.5356180000000  0.5725910000000  0.5365220000000 1.0
C      1  0.5065220000000  0.4516850000000  0.5761400000000 1.0
C      1  0.4920720000000  0.4649220000000  0.5325930000000 1.0
C      1  0.4502170000000  0.5001710000000  0.5355260000000 1.0
C      1  0.5258430000000  0.5340150000000  0.4005460000000 1.0
C      1  0.4896630000000  0.5534450000000  0.4709060000000 1.0
C      1  0.5609330000000  0.5198450000000  0.5035940000000 1.0
C      1  0.4318290000000  0.4588320000000  0.5080670000000 1.0
C      1  0.4822510000000  0.5024340000000  0.5232940000000 1.0
C      1  0.4592670000000  0.5302420000000  0.5393450000000 1.0
C      1  0.4304170000000  0.4542430000000  0.5557520000000 1.0
C      1  0.5093560000000  0.4028120000000  0.5056720000000 1.0
C      1  0.5029250000000  0.5204730000000  0.5522620000000 1.0
C      1  0.4483370000000  0.4358380000000  0.5424520000000 1.0
C      1  0.5291440000000  0.5716920000000  0.4320820000000 1.0
C      1  0.4771240000000  0.4694570000000  0.5712050000000 1.0
C      1  0.5575330000000  0.4346200000000  0.5043260000000 1.0
C      1  0.5078150000000  0.5787850000000  0.4580040000000 1.0
C      1  0.4287380000000  0.5400030000000  0.4425820000000 1.0
C      1  0.6004720000000  0.4902920000000  0.4948760000000 1.0
C      1  0.4854470000000  0.5188990000000  0.4685640000000 1.0
C      1  0.4943640000000  0.5392040000000  0.4062660000000 1.0
C      1  0.4993180000000  0.5822350000000  0.4263130000000 1.0
C      1  0.5910610000000  0.5194130000000  0.4891560000000 1.0
C      1  0.5306760000000  0.4235060000000  0.5223220000000 1.0
C      1  0.5623890000000  0.5570180000000  0.4755220000000 1.0
C      1  0.5031860000000  0.4345630000000  0.6017140000000 1.0
C      1  0.5531880000000  0.4740300000000  0.4196480000000 1.0
C      1  0.5413050000000  0.5415460000000  0.5119770000000 1.0
C      1  0.4028670000000  0.5066090000000  0.5023450000000 1.0
C      1  0.5508010000000  0.5271220000000  0.4459440000000 1.0
C      1  0.5130380000000  0.5401420000000  0.4500790000000 1.0
C      1  0.5887570000000  0.4825310000000  0.5219090000000 1.0
C      1  0.4319340000000  0.5286460000000  0.5715770000000 1.0
C      1  0.5028840000000  0.5712700000000  0.5390930000000 1.0
END
