TITL C-2778424-3986-919 3.33372360656328e-07 125000 -137.433755437028 0 0 25 (C1) n - 1
REM
REM in /home/nfs/bkarasulu/CARBON/AIRSS/Generating-Clusters/REBO/Only-C1/SD-CG/HFTN-CG
REM
REM
REM
REM
REM
REM ./C.cell (11c1c37f851c82e70ff6c80c92926a4b)
REM
REM compiler GCC version 9.2.1 20190827 (Red Hat 9.2.1-1)
REM options -cpp -mtune=generic -march=x86-64 -g -O0 -fpre-include=/usr/include/finclude/math-vector-fortran.h
REM seed -1398162855 -247695229 1049633072 -143972102 1872443698 283443149 -600541511 -1457289411 482016646 -600481685 337479200 1685814274 452138404 -323743749 -1035263380 1945725370 -1091799922 266652056 -342735768 -997701060 -681056099 -1855507033 -1407611697 2082655182 1421895172 153760229 1976673392 -251524821 5097773 -118747543 -1671168116 -167958776 -1138445879
REM
CELL 1.54180   50.00000   50.00000   50.00000   90.00000   90.00000   90.00000
LATT -1
SFAC C  
C      1  0.4435270000000  0.4939320000000  0.5251550000000 1.0
C      1  0.3733480000000  0.4858320000000  0.5407470000000 1.0
C      1  0.5333770000000  0.5190300000000  0.4504080000000 1.0
C      1  0.5751720000000  0.4590480000000  0.4375770000000 1.0
C      1  0.5445230000000  0.4965400000000  0.4361410000000 1.0
C      1  0.5662910000000  0.5306960000000  0.4918200000000 1.0
C      1  0.5492290000000  0.5319560000000  0.4697250000000 1.0
C      1  0.4906630000000  0.5145580000000  0.4727310000000 1.0
C      1  0.5140200000000  0.4886300000000  0.5052000000000 1.0
C      1  0.3985480000000  0.4869900000000  0.5815200000000 1.0
C      1  0.5695880000000  0.5027350000000  0.5024350000000 1.0
C      1  0.5888550000000  0.4983350000000  0.5217470000000 1.0
C      1  0.4660710000000  0.4968680000000  0.5112850000000 1.0
C      1  0.5046240000000  0.5230430000000  0.4498070000000 1.0
C      1  0.3973070000000  0.4879110000000  0.5535930000000 1.0
C      1  0.5792440000000  0.5520520000000  0.5034890000000 1.0
C      1  0.5408660000000  0.4860430000000  0.5016190000000 1.0
C      1  0.4209840000000  0.4909950000000  0.5390250000000 1.0
C      1  0.5612300000000  0.4784080000000  0.4507340000000 1.0
C      1  0.5381620000000  0.4919760000000  0.4100500000000 1.0
C      1  0.5619130000000  0.4806750000000  0.4785040000000 1.0
C      1  0.4921680000000  0.5324450000000  0.4275310000000 1.0
C      1  0.4008930000000  0.4852490000000  0.6342780000000 1.0
C      1  0.3997300000000  0.4861120000000  0.6081100000000 1.0
C      1  0.4896650000000  0.4999410000000  0.4967680000000 1.0
END
