TITL C-2778431-5191-1386 0.00467501216455409 125000 -272.556304583579 0 0 49 (C1) n - 1
REM
REM in /home/nfs/bkarasulu/CARBON/AIRSS/Generating-Clusters/REBO/Only-C1/SD-CG/HFTN-CG
REM
REM
REM
REM
REM
REM ./C.cell (11c1c37f851c82e70ff6c80c92926a4b)
REM
REM compiler GCC version 9.2.1 20190827 (Red Hat 9.2.1-1)
REM options -cpp -mtune=generic -march=x86-64 -g -O0 -fpre-include=/usr/include/finclude/math-vector-fortran.h
REM seed 1839675198 -158293758 1069058966 -1396044738 1882587677 1167458526 -742072327 1070169401 271519417 -1322073911 1863808925 593025781 1746217152 -837250304 935236530 1707005915 -232422653 1143187848 -260712019 1560059502 -578701082 -1783393819 2091826165 1570277079 -1947775623 -1699098314 1900542027 1310932741 895381464 494680437 -112533034 -1243172512 1908102601
REM
CELL 1.54180   50.00000   50.00000   50.00000   90.00000   90.00000   90.00000
LATT -1
SFAC C  
C      1  0.5401190000000  0.5170430000000  0.4523400000000 1.0
C      1  0.4609100000000  0.4526400000000  0.4961720000000 1.0
C      1  0.5490030000000  0.4645240000000  0.4517030000000 1.0
C      1  0.4757320000000  0.5312060000000  0.5302190000000 1.0
C      1  0.4996180000000  0.4458630000000  0.4627230000000 1.0
C      1  0.5512800000000  0.5243980000000  0.5444060000000 1.0
C      1  0.4740680000000  0.5145670000000  0.4364910000000 1.0
C      1  0.5269710000000  0.5439140000000  0.4787070000000 1.0
C      1  0.4763390000000  0.5592290000000  0.4847220000000 1.0
C      1  0.5055380000000  0.5676100000000  0.4877340000000 1.0
C      1  0.4723370000000  0.5011870000000  0.4911210000000 1.0
C      1  0.5287160000000  0.5558840000000  0.5101520000000 1.0
C      1  0.5258220000000  0.4619710000000  0.5433500000000 1.0
C      1  0.4234710000000  0.4853960000000  0.5313320000000 1.0
C      1  0.5479830000000  0.5194390000000  0.4914150000000 1.0
C      1  0.5028060000000  0.4819810000000  0.5407300000000 1.0
C      1  0.4685040000000  0.4768070000000  0.4783840000000 1.0
C      1  0.4854620000000  0.4309140000000  0.4931550000000 1.0
C      1  0.5155670000000  0.5088200000000  0.4613440000000 1.0
C      1  0.4106540000000  0.5048430000000  0.5163860000000 1.0
C      1  0.4986760000000  0.4993040000000  0.5893290000000 1.0
C      1  0.5183540000000  0.4349110000000  0.4892930000000 1.0
C      1  0.5576830000000  0.5524070000000  0.4918040000000 1.0
C      1  0.4853220000000  0.5370670000000  0.5027650000000 1.0
C      1  0.4600250000000  0.5354110000000  0.4459520000000 1.0
C      1  0.5495480000000  0.4728180000000  0.5520350000000 1.0
C      1  0.5100350000000  0.4859150000000  0.4176160000000 1.0
C      1  0.5890650000000  0.4933980000000  0.5291370000000 1.0
C      1  0.4970610000000  0.4937340000000  0.4414330000000 1.0
C      1  0.4994590000000  0.5042710000000  0.5623290000000 1.0
C      1  0.5246890000000  0.4722780000000  0.5012920000000 1.0
C      1  0.4535110000000  0.5503130000000  0.4692470000000 1.0
C      1  0.4747380000000  0.4683420000000  0.5336970000000 1.0
C      1  0.4303650000000  0.5420540000000  0.4837020000000 1.0
C      1  0.5355160000000  0.4594020000000  0.4730100000000 1.0
C      1  0.5280280000000  0.4434320000000  0.5199260000000 1.0
C      1  0.4941150000000  0.4605940000000  0.5080760000000 1.0
C      1  0.5620920000000  0.5333580000000  0.4636010000000 1.0
C      1  0.5120420000000  0.5054390000000  0.5197160000000 1.0
C      1  0.4863780000000  0.4700690000000  0.4576420000000 1.0
C      1  0.5617670000000  0.4955710000000  0.5346040000000 1.0
C      1  0.4158280000000  0.5255050000000  0.4994580000000 1.0
C      1  0.4976480000000  0.5290670000000  0.5485130000000 1.0
C      1  0.5244600000000  0.5350160000000  0.5319220000000 1.0
C      1  0.5417980000000  0.4983040000000  0.5098800000000 1.0
C      1  0.4359730000000  0.4474160000000  0.5055830000000 1.0
C      1  0.5018220000000  0.5128390000000  0.4883540000000 1.0
C      1  0.4611710000000  0.5083270000000  0.5163820000000 1.0
C      1  0.4519340000000  0.4852000000000  0.5311160000000 1.0
END
