TITL C-2778436-5916-1205 -0.000884617733134092 125000 -1141.7897584798 0 0 195 (C1) n - 1
REM
REM in /home/nfs/bkarasulu/CARBON/AIRSS/Generating-Clusters/REBO/Only-C1/SD-CG/HFTN-CG
REM
REM
REM
REM
REM
REM ./C.cell (11c1c37f851c82e70ff6c80c92926a4b)
REM
REM compiler GCC version 9.2.1 20190827 (Red Hat 9.2.1-1)
REM options -cpp -mtune=generic -march=x86-64 -g -O0 -fpre-include=/usr/include/finclude/math-vector-fortran.h
REM seed 817054614 -23250983 985425863 1770017806 -1785013175 -1334277288 -1728398264 -1614573755 74671030 812839388 -1388705820 -911519245 -1247832479 -74836625 -1355920290 -1524510881 -1167160601 1874438126 -1417228909 -959973861 -420012678 414263782 100742620 1678264449 -1617975283 -144266823 861217329 1497605521 1394981759 1569076609 1733822843 -745434858 1295391541
REM
CELL 1.54180   50.00000   50.00000   50.00000   90.00000   90.00000   90.00000
LATT -1
SFAC C  
C      1  0.4397370000000  0.4114650000000  0.5532040000000 1.0
C      1  0.6001080000000  0.5288880000000  0.4797580000000 1.0
C      1  0.4179080000000  0.4371390000000  0.5736870000000 1.0
C      1  0.4362040000000  0.4351880000000  0.4406900000000 1.0
C      1  0.4587750000000  0.5017440000000  0.5425620000000 1.0
C      1  0.5428420000000  0.4323730000000  0.4051650000000 1.0
C      1  0.4473950000000  0.4799010000000  0.4207510000000 1.0
C      1  0.5162170000000  0.4914460000000  0.6054740000000 1.0
C      1  0.5146010000000  0.5126240000000  0.4914860000000 1.0
C      1  0.4277480000000  0.5364880000000  0.4268180000000 1.0
C      1  0.4084370000000  0.5510080000000  0.4459010000000 1.0
C      1  0.5217820000000  0.5854160000000  0.4755920000000 1.0
C      1  0.5693730000000  0.5760900000000  0.4675180000000 1.0
C      1  0.4554310000000  0.5385030000000  0.4419960000000 1.0
C      1  0.5872330000000  0.4865190000000  0.5645660000000 1.0
C      1  0.4123170000000  0.4250650000000  0.5451820000000 1.0
C      1  0.4650840000000  0.5780880000000  0.4175360000000 1.0
C      1  0.5021490000000  0.4158770000000  0.4995610000000 1.0
C      1  0.4127050000000  0.4682810000000  0.5698890000000 1.0
C      1  0.4705210000000  0.5773080000000  0.5127800000000 1.0
C      1  0.5244530000000  0.5277580000000  0.5173060000000 1.0
C      1  0.4046200000000  0.4474240000000  0.5245470000000 1.0
C      1  0.4830960000000  0.4428350000000  0.4653280000000 1.0
C      1  0.4483500000000  0.4760840000000  0.4736170000000 1.0
C      1  0.5668330000000  0.5821030000000  0.5092970000000 1.0
C      1  0.5302920000000  0.4024020000000  0.4566590000000 1.0
C      1  0.4698660000000  0.5609580000000  0.5904880000000 1.0
C      1  0.5137630000000  0.5017860000000  0.4370440000000 1.0
C      1  0.4937820000000  0.4558910000000  0.3939610000000 1.0
C      1  0.4811790000000  0.5245220000000  0.5752150000000 1.0
C      1  0.5180210000000  0.3965220000000  0.5483660000000 1.0
C      1  0.5593770000000  0.5148180000000  0.5974080000000 1.0
C      1  0.5041490000000  0.6282790000000  0.4981910000000 1.0
C      1  0.4233030000000  0.5406950000000  0.5311900000000 1.0
C      1  0.5670130000000  0.5381750000000  0.5837060000000 1.0
C      1  0.4342800000000  0.5681980000000  0.4207240000000 1.0
C      1  0.4070500000000  0.5548850000000  0.5091840000000 1.0
C      1  0.4727550000000  0.5242800000000  0.5265940000000 1.0
C      1  0.5470940000000  0.4254530000000  0.4374860000000 1.0
C      1  0.4743120000000  0.5931120000000  0.4389390000000 1.0
C      1  0.5839230000000  0.5185720000000  0.5534910000000 1.0
C      1  0.4780180000000  0.4511210000000  0.4166760000000 1.0
C      1  0.5457350000000  0.5665200000000  0.4791580000000 1.0
C      1  0.5904520000000  0.4589850000000  0.5147290000000 1.0
C      1  0.5876210000000  0.5336810000000  0.5091530000000 1.0
C      1  0.5238840000000  0.4685640000000  0.5577760000000 1.0
C      1  0.4311390000000  0.4468080000000  0.4717460000000 1.0
C      1  0.5526140000000  0.5523410000000  0.5042410000000 1.0
C      1  0.5524270000000  0.4994960000000  0.4048280000000 1.0
C      1  0.3954210000000  0.4558630000000  0.4924150000000 1.0
C      1  0.4653190000000  0.5244690000000  0.3943110000000 1.0
C      1  0.5460070000000  0.6030600000000  0.4950980000000 1.0
C      1  0.4106100000000  0.4902130000000  0.4324160000000 1.0
C      1  0.4415570000000  0.5506840000000  0.5898160000000 1.0
C      1  0.5028020000000  0.5959640000000  0.5834760000000 1.0
C      1  0.4214440000000  0.5510550000000  0.5636150000000 1.0
C      1  0.5032450000000  0.4463850000000  0.4888040000000 1.0
C      1  0.4588510000000  0.4904590000000  0.4446370000000 1.0
C      1  0.5149040000000  0.4327250000000  0.5372840000000 1.0
C      1  0.4624300000000  0.4925600000000  0.6017150000000 1.0
C      1  0.5929550000000  0.5446690000000  0.5666060000000 1.0
C      1  0.3959650000000  0.5338000000000  0.4629740000000 1.0
C      1  0.4949910000000  0.4772140000000  0.5838130000000 1.0
C      1  0.4324050000000  0.4085750000000  0.4602990000000 1.0
C      1  0.5463020000000  0.5603230000000  0.4101430000000 1.0
C      1  0.5254250000000  0.4512620000000  0.3955460000000 1.0
C      1  0.5493200000000  0.4934920000000  0.4991290000000 1.0
C      1  0.5328440000000  0.6067090000000  0.4533070000000 1.0
C      1  0.5948200000000  0.5694900000000  0.4837120000000 1.0
C      1  0.3996700000000  0.4981890000000  0.5664100000000 1.0
C      1  0.5622500000000  0.4263670000000  0.4828400000000 1.0
C      1  0.5719280000000  0.4690780000000  0.5411900000000 1.0
C      1  0.5758750000000  0.4333360000000  0.5078730000000 1.0
C      1  0.5182460000000  0.4766780000000  0.4177220000000 1.0
C      1  0.5383070000000  0.4613640000000  0.5027030000000 1.0
C      1  0.4881650000000  0.3824970000000  0.5461990000000 1.0
C      1  0.4935230000000  0.3849570000000  0.4864330000000 1.0
C      1  0.5164380000000  0.5414880000000  0.5673620000000 1.0
C      1  0.3880470000000  0.5079400000000  0.4914150000000 1.0
C      1  0.4514490000000  0.5426180000000  0.5169760000000 1.0
C      1  0.6083980000000  0.4786490000000  0.4930710000000 1.0
C      1  0.5418630000000  0.5790970000000  0.4382090000000 1.0
C      1  0.5190200000000  0.5456610000000  0.6011430000000 1.0
C      1  0.3962150000000  0.4838970000000  0.5106580000000 1.0
C      1  0.4802720000000  0.5006170000000  0.5088710000000 1.0
C      1  0.4431990000000  0.4659120000000  0.5631960000000 1.0
C      1  0.5090230000000  0.4157590000000  0.4364310000000 1.0
C      1  0.4784010000000  0.4317770000000  0.5827960000000 1.0
C      1  0.5172510000000  0.5610930000000  0.5201650000000 1.0
C      1  0.4425930000000  0.3960990000000  0.5073500000000 1.0
C      1  0.4763680000000  0.3967320000000  0.5113050000000 1.0
C      1  0.4579070000000  0.5495800000000  0.4037310000000 1.0
C      1  0.5376460000000  0.5018030000000  0.4690480000000 1.0
C      1  0.4692530000000  0.5382270000000  0.4702950000000 1.0
C      1  0.4753290000000  0.5760640000000  0.5628730000000 1.0
C      1  0.4006700000000  0.5003480000000  0.4602100000000 1.0
C      1  0.4931180000000  0.4575000000000  0.5566840000000 1.0
C      1  0.6127030000000  0.4756910000000  0.4591930000000 1.0
C      1  0.5115010000000  0.4575950000000  0.5185250000000 1.0
C      1  0.4915350000000  0.4609290000000  0.4429890000000 1.0
C      1  0.4901270000000  0.6038100000000  0.5169960000000 1.0
C      1  0.5772920000000  0.5752060000000  0.5665680000000 1.0
C      1  0.4757790000000  0.3921280000000  0.4616280000000 1.0
C      1  0.5941240000000  0.4825050000000  0.4308890000000 1.0
C      1  0.4707920000000  0.4481420000000  0.5116330000000 1.0
C      1  0.5571720000000  0.4998030000000  0.5434350000000 1.0
C      1  0.5205180000000  0.4471350000000  0.4347570000000 1.0
C      1  0.4893350000000  0.5386700000000  0.6030290000000 1.0
C      1  0.5745900000000  0.5688670000000  0.4366550000000 1.0
C      1  0.5268660000000  0.3872880000000  0.4875800000000 1.0
C      1  0.4546250000000  0.5299030000000  0.5704460000000 1.0
C      1  0.5472990000000  0.4632750000000  0.4734140000000 1.0
C      1  0.4755790000000  0.4829700000000  0.5472660000000 1.0
C      1  0.4729900000000  0.4718970000000  0.4938850000000 1.0
C      1  0.5004170000000  0.5305930000000  0.5391320000000 1.0
C      1  0.5372180000000  0.4705910000000  0.5885910000000 1.0
C      1  0.5289800000000  0.5070330000000  0.3939950000000 1.0
C      1  0.4634080000000  0.4280660000000  0.4263640000000 1.0
C      1  0.4317490000000  0.4493320000000  0.5063470000000 1.0
C      1  0.5648620000000  0.4881130000000  0.5878490000000 1.0
C      1  0.5454130000000  0.5518160000000  0.5720070000000 1.0
C      1  0.5644520000000  0.4850250000000  0.4268760000000 1.0
C      1  0.5978650000000  0.5217770000000  0.4407240000000 1.0
C      1  0.4318040000000  0.5153100000000  0.5498800000000 1.0
C      1  0.5912580000000  0.5303690000000  0.4088840000000 1.0
C      1  0.5327870000000  0.4199820000000  0.4847760000000 1.0
C      1  0.4157980000000  0.4815510000000  0.4823320000000 1.0
C      1  0.5261680000000  0.6244730000000  0.4816120000000 1.0
C      1  0.4211950000000  0.5781640000000  0.4501030000000 1.0
C      1  0.5220250000000  0.5290700000000  0.4558910000000 1.0
C      1  0.5895010000000  0.4511410000000  0.4550520000000 1.0
C      1  0.5359600000000  0.5845890000000  0.5218460000000 1.0
C      1  0.5448600000000  0.4324960000000  0.5207740000000 1.0
C      1  0.3975650000000  0.4761680000000  0.5407160000000 1.0
C      1  0.4757590000000  0.4362680000000  0.5414360000000 1.0
C      1  0.6078800000000  0.5036210000000  0.4137100000000 1.0
C      1  0.4526700000000  0.4252460000000  0.4972200000000 1.0
C      1  0.5449270000000  0.4797360000000  0.4470720000000 1.0
C      1  0.4864770000000  0.5059680000000  0.6100720000000 1.0
C      1  0.4672820000000  0.4059270000000  0.5409490000000 1.0
C      1  0.5356290000000  0.3996240000000  0.5186970000000 1.0
C      1  0.5334280000000  0.5179140000000  0.6084020000000 1.0
C      1  0.5912200000000  0.5016860000000  0.4654930000000 1.0
C      1  0.4479500000000  0.4263920000000  0.5797760000000 1.0
C      1  0.4740240000000  0.5150300000000  0.4381880000000 1.0
C      1  0.4169990000000  0.5208900000000  0.5795710000000 1.0
C      1  0.4389330000000  0.5070110000000  0.5992030000000 1.0
C      1  0.4992980000000  0.5615160000000  0.5485880000000 1.0
C      1  0.4484260000000  0.4547000000000  0.5358420000000 1.0
C      1  0.3914160000000  0.5385400000000  0.4929000000000 1.0
C      1  0.4071670000000  0.4268640000000  0.4846040000000 1.0
C      1  0.4819660000000  0.4080440000000  0.4364870000000 1.0
C      1  0.4929130000000  0.5926990000000  0.4841960000000 1.0
C      1  0.5755110000000  0.5528710000000  0.4075930000000 1.0
C      1  0.5037620000000  0.4858450000000  0.3881410000000 1.0
C      1  0.5504100000000  0.4492040000000  0.5499650000000 1.0
C      1  0.4445210000000  0.5733270000000  0.5521230000000 1.0
C      1  0.5079870000000  0.4223870000000  0.5687430000000 1.0
C      1  0.5574210000000  0.5227430000000  0.5129680000000 1.0
C      1  0.4964330000000  0.5180010000000  0.3919460000000 1.0
C      1  0.5231660000000  0.5779470000000  0.5920400000000 1.0
C      1  0.4652940000000  0.4633040000000  0.5847780000000 1.0
C      1  0.4957670000000  0.6009440000000  0.5504370000000 1.0
C      1  0.5922750000000  0.5640940000000  0.5158730000000 1.0
C      1  0.4778220000000  0.5073360000000  0.4769850000000 1.0
C      1  0.5006190000000  0.5397100000000  0.4778810000000 1.0
C      1  0.4621230000000  0.4217760000000  0.4682270000000 1.0
C      1  0.5009640000000  0.5271580000000  0.4221970000000 1.0
C      1  0.5259640000000  0.4989380000000  0.5461440000000 1.0
C      1  0.4558290000000  0.5572700000000  0.4894560000000 1.0
C      1  0.5021420000000  0.4840340000000  0.5281820000000 1.0
C      1  0.5295030000000  0.5967740000000  0.5487130000000 1.0
C      1  0.5755440000000  0.4731480000000  0.4713070000000 1.0
C      1  0.4202280000000  0.3994660000000  0.4868990000000 1.0
C      1  0.4388160000000  0.5820150000000  0.4744030000000 1.0
C      1  0.4466430000000  0.5022860000000  0.3989680000000 1.0
C      1  0.5987280000000  0.4976040000000  0.5338280000000 1.0
C      1  0.5227770000000  0.5513430000000  0.4319930000000 1.0
C      1  0.4220800000000  0.5102440000000  0.4153840000000 1.0
C      1  0.5708520000000  0.4303840000000  0.4564180000000 1.0
C      1  0.4429330000000  0.5808400000000  0.5247410000000 1.0
C      1  0.4964600000000  0.4875010000000  0.4565840000000 1.0
C      1  0.5358160000000  0.4379020000000  0.5787080000000 1.0
C      1  0.5013360000000  0.5044760000000  0.5689280000000 1.0
C      1  0.4973460000000  0.5627600000000  0.4975930000000 1.0
C      1  0.6000150000000  0.5678400000000  0.5441490000000 1.0
C      1  0.4240970000000  0.4619550000000  0.4283700000000 1.0
C      1  0.4242360000000  0.5772610000000  0.5036440000000 1.0
C      1  0.4688910000000  0.5935140000000  0.4658120000000 1.0
C      1  0.5787970000000  0.4893920000000  0.5075320000000 1.0
C      1  0.5097060000000  0.3777950000000  0.5202810000000 1.0
C      1  0.6123500000000  0.5102230000000  0.5053270000000 1.0
C      1  0.5473280000000  0.5837790000000  0.5710170000000 1.0
C      1  0.5055540000000  0.4802580000000  0.4862360000000 1.0
C      1  0.5974650000000  0.5512210000000  0.4550020000000 1.0
END
