TITL C-2778426-5645-839 -0.00169974141656688 125000 -155.845210255954 0 0 28 (C1) n - 1
REM
REM in /home/nfs/bkarasulu/CARBON/AIRSS/Generating-Clusters/REBO/Only-C1/SD-CG/HFTN-CG
REM
REM
REM
REM
REM
REM ./C.cell (11c1c37f851c82e70ff6c80c92926a4b)
REM
REM compiler GCC version 9.2.1 20190827 (Red Hat 9.2.1-1)
REM options -cpp -mtune=generic -march=x86-64 -g -O0 -fpre-include=/usr/include/finclude/math-vector-fortran.h
REM seed -124857246 -133121475 2115895405 1076282483 -108781036 -1079021734 -246367059 725232862 -631465177 1701503717 -1996213317 1447712834 1486727609 848718328 28149410 1984868369 -1279266302 -716125549 -1774540669 1970867844 80976493 -1814245029 -929229042 -276842414 221188763 -2132938066 -834868080 1301825381 406107707 1279650416 -1870026243 -575379506 1030929101
REM
CELL 1.54180   50.00000   50.00000   50.00000   90.00000   90.00000   90.00000
LATT -1
SFAC C  
C      1  0.5627960000000  0.5255020000000  0.5273330000000 1.0
C      1  0.4909450000000  0.5348640000000  0.4498520000000 1.0
C      1  0.4783820000000  0.4864730000000  0.5556680000000 1.0
C      1  0.5180280000000  0.4601370000000  0.4672450000000 1.0
C      1  0.5112990000000  0.4703850000000  0.4970490000000 1.0
C      1  0.4695580000000  0.5136860000000  0.4601430000000 1.0
C      1  0.4532530000000  0.5062150000000  0.4802060000000 1.0
C      1  0.5238750000000  0.4997690000000  0.5518940000000 1.0
C      1  0.4850600000000  0.5488850000000  0.5151140000000 1.0
C      1  0.4855140000000  0.5310200000000  0.5373440000000 1.0
C      1  0.4818430000000  0.4681530000000  0.5030420000000 1.0
C      1  0.5357010000000  0.5196320000000  0.5268540000000 1.0
C      1  0.5048150000000  0.5447770000000  0.4948920000000 1.0
C      1  0.4713120000000  0.5059780000000  0.5359200000000 1.0
C      1  0.5009140000000  0.5037620000000  0.4543510000000 1.0
C      1  0.4649110000000  0.4471110000000  0.4963420000000 1.0
C      1  0.5051250000000  0.4809680000000  0.5607620000000 1.0
C      1  0.5723690000000  0.4875150000000  0.4595770000000 1.0
C      1  0.5283250000000  0.4621960000000  0.5176640000000 1.0
C      1  0.5218530000000  0.5220120000000  0.4994040000000 1.0
C      1  0.5207140000000  0.4978490000000  0.4802330000000 1.0
C      1  0.5119440000000  0.5287300000000  0.5484270000000 1.0
C      1  0.5005930000000  0.5537410000000  0.4682760000000 1.0
C      1  0.4649020000000  0.4944790000000  0.5093300000000 1.0
C      1  0.5490730000000  0.4921760000000  0.4688930000000 1.0
C      1  0.5124450000000  0.4752760000000  0.4478600000000 1.0
C      1  0.4384350000000  0.4551310000000  0.4915860000000 1.0
C      1  0.4360150000000  0.4835770000000  0.4947390000000 1.0
END
