TITL C-2778422-5617-477 -0.00292877574563415 125000 -305.489560150922 0 0 53 (C1) n - 1
REM
REM in /home/nfs/bkarasulu/CARBON/AIRSS/Generating-Clusters/REBO/Only-C1/SD-CG/HFTN-CG
REM
REM
REM
REM
REM
REM ./C.cell (11c1c37f851c82e70ff6c80c92926a4b)
REM
REM compiler GCC version 9.2.1 20190827 (Red Hat 9.2.1-1)
REM options -cpp -mtune=generic -march=x86-64 -g -O0 -fpre-include=/usr/include/finclude/math-vector-fortran.h
REM seed 274549932 2036246467 -1706279624 -973895883 1425247560 1751395995 566812559 633040309 -1745635083 -1662661169 315303781 -1438027304 -2110433426 -1837698031 -485404223 -1062828547 -1581420831 1732090822 1140699867 -1873125111 155302906 -1040164202 939718852 322397558 1712683920 -592141001 752697795 1663265206 -274236482 1563800594 -37998337 -1022898700 -923982139
REM
CELL 1.54180   50.00000   50.00000   50.00000   90.00000   90.00000   90.00000
LATT -1
SFAC C  
C      1  0.4745090000000  0.5011970000000  0.5119560000000 1.0
C      1  0.4740550000000  0.4689920000000  0.5094690000000 1.0
C      1  0.4734740000000  0.5729760000000  0.4782220000000 1.0
C      1  0.5349070000000  0.5501300000000  0.5041400000000 1.0
C      1  0.4554870000000  0.5145780000000  0.4496670000000 1.0
C      1  0.5223160000000  0.4077910000000  0.4861710000000 1.0
C      1  0.5178540000000  0.5413890000000  0.5258580000000 1.0
C      1  0.4734530000000  0.5819960000000  0.5060990000000 1.0
C      1  0.4609540000000  0.5223790000000  0.5427710000000 1.0
C      1  0.5730090000000  0.4972060000000  0.4967180000000 1.0
C      1  0.4922160000000  0.5300930000000  0.5101230000000 1.0
C      1  0.5391050000000  0.5157180000000  0.4524830000000 1.0
C      1  0.4796030000000  0.4568130000000  0.5367170000000 1.0
C      1  0.4364800000000  0.4920540000000  0.4927590000000 1.0
C      1  0.5481070000000  0.5420080000000  0.5640960000000 1.0
C      1  0.4954920000000  0.5622470000000  0.4635520000000 1.0
C      1  0.4568250000000  0.5642150000000  0.5222220000000 1.0
C      1  0.4948900000000  0.4792570000000  0.4856850000000 1.0
C      1  0.5150720000000  0.5055820000000  0.5626310000000 1.0
C      1  0.5678690000000  0.4681500000000  0.4825090000000 1.0
C      1  0.4436130000000  0.5459260000000  0.5028230000000 1.0
C      1  0.4720850000000  0.4753650000000  0.5558550000000 1.0
C      1  0.4861440000000  0.4626030000000  0.4571470000000 1.0
C      1  0.4394680000000  0.4970650000000  0.4650900000000 1.0
C      1  0.4621310000000  0.5498340000000  0.5462790000000 1.0
C      1  0.5022830000000  0.5116130000000  0.4834040000000 1.0
C      1  0.5404980000000  0.4695530000000  0.4689970000000 1.0
C      1  0.5346020000000  0.5023700000000  0.5220160000000 1.0
C      1  0.4891200000000  0.4342570000000  0.4593230000000 1.0
C      1  0.5499820000000  0.5133390000000  0.5015150000000 1.0
C      1  0.5322330000000  0.5280080000000  0.4804170000000 1.0
C      1  0.4843470000000  0.5112460000000  0.4476560000000 1.0
C      1  0.5196520000000  0.4535670000000  0.5629060000000 1.0
C      1  0.4450470000000  0.4661760000000  0.5007030000000 1.0
C      1  0.5293280000000  0.4888270000000  0.4503160000000 1.0
C      1  0.5871660000000  0.4523770000000  0.4704530000000 1.0
C      1  0.5056400000000  0.5033950000000  0.5241810000000 1.0
C      1  0.5000430000000  0.4871380000000  0.4468190000000 1.0
C      1  0.4318070000000  0.4422120000000  0.4985890000000 1.0
C      1  0.5686470000000  0.4721690000000  0.5166220000000 1.0
C      1  0.5531470000000  0.5706660000000  0.5033860000000 1.0
C      1  0.4464500000000  0.5414910000000  0.4516910000000 1.0
C      1  0.5306480000000  0.4797940000000  0.5595450000000 1.0
C      1  0.5014350000000  0.4413470000000  0.5458040000000 1.0
C      1  0.5109720000000  0.4308100000000  0.4778590000000 1.0
C      1  0.5485540000000  0.4810820000000  0.5360710000000 1.0
C      1  0.4749920000000  0.4149870000000  0.4467880000000 1.0
C      1  0.4994660000000  0.5348920000000  0.4586860000000 1.0
C      1  0.4452840000000  0.5156960000000  0.5131970000000 1.0
C      1  0.5192710000000  0.4579810000000  0.4837690000000 1.0
C      1  0.5266950000000  0.5306820000000  0.5514510000000 1.0
C      1  0.4496690000000  0.5554900000000  0.4760150000000 1.0
C      1  0.4839050000000  0.5032710000000  0.5507790000000 1.0
END
