TITL C-2778428-5639-1380 -0.00365726326915011 125000 -1122.26348000699 0 0 187 (C1) n - 1
REM
REM in /home/nfs/bkarasulu/CARBON/AIRSS/Generating-Clusters/REBO/Only-C1/SD-CG/HFTN-CG
REM
REM
REM
REM
REM
REM ./C.cell (11c1c37f851c82e70ff6c80c92926a4b)
REM
REM compiler GCC version 9.2.1 20190827 (Red Hat 9.2.1-1)
REM options -cpp -mtune=generic -march=x86-64 -g -O0 -fpre-include=/usr/include/finclude/math-vector-fortran.h
REM seed -306606044 1302227544 222338962 -1970116156 -1236728191 2107802597 -914757193 620489097 -1984414112 -517686669 1396272007 1693230843 -1043609159 -1455938152 -230010993 -1936563618 -1140108459 -986384228 565635513 634762073 -1658518526 -348273238 66875716 474382761 -1094904530 1182028635 -1773552450 1886107595 -234356947 -534441094 -1731359624 -1385432694 -1455776648
REM
CELL 1.54180   50.00000   50.00000   50.00000   90.00000   90.00000   90.00000
LATT -1
SFAC C  
C      1  0.4642920000000  0.4984780000000  0.5434710000000 1.0
C      1  0.5438600000000  0.5174660000000  0.5587000000000 1.0
C      1  0.4216040000000  0.5462250000000  0.4739230000000 1.0
C      1  0.5257680000000  0.4126370000000  0.5414970000000 1.0
C      1  0.4962480000000  0.4159030000000  0.5952950000000 1.0
C      1  0.4273920000000  0.5301340000000  0.5379370000000 1.0
C      1  0.4840470000000  0.4638190000000  0.4513360000000 1.0
C      1  0.5794790000000  0.5071000000000  0.5278110000000 1.0
C      1  0.5387240000000  0.4359670000000  0.5246930000000 1.0
C      1  0.4922660000000  0.4804110000000  0.4049660000000 1.0
C      1  0.5759780000000  0.5604690000000  0.5479000000000 1.0
C      1  0.3876350000000  0.4944280000000  0.4480770000000 1.0
C      1  0.4972430000000  0.5500420000000  0.6243180000000 1.0
C      1  0.3987490000000  0.5008630000000  0.4942880000000 1.0
C      1  0.5466250000000  0.4440090000000  0.4556480000000 1.0
C      1  0.5898860000000  0.4624990000000  0.5402550000000 1.0
C      1  0.5263010000000  0.6010100000000  0.4740940000000 1.0
C      1  0.5529540000000  0.4976090000000  0.6080610000000 1.0
C      1  0.4953660000000  0.5616720000000  0.5962970000000 1.0
C      1  0.5398190000000  0.4269240000000  0.4303330000000 1.0
C      1  0.4697720000000  0.5953450000000  0.5386270000000 1.0
C      1  0.5977130000000  0.4969980000000  0.4565830000000 1.0
C      1  0.4670950000000  0.5125530000000  0.3773550000000 1.0
C      1  0.4416810000000  0.5099960000000  0.5236970000000 1.0
C      1  0.4909810000000  0.5203990000000  0.4545900000000 1.0
C      1  0.4980400000000  0.4772100000000  0.3749320000000 1.0
C      1  0.4529010000000  0.4743220000000  0.5885560000000 1.0
C      1  0.6022910000000  0.5264040000000  0.5013240000000 1.0
C      1  0.5444320000000  0.5798020000000  0.4824230000000 1.0
C      1  0.4653350000000  0.6222700000000  0.5276650000000 1.0
C      1  0.5798490000000  0.4294820000000  0.4927700000000 1.0
C      1  0.5052490000000  0.5426570000000  0.4250750000000 1.0
C      1  0.5776200000000  0.5094770000000  0.5951010000000 1.0
C      1  0.4493460000000  0.5022910000000  0.4306470000000 1.0
C      1  0.4337470000000  0.4202560000000  0.5561780000000 1.0
C      1  0.6034020000000  0.5523910000000  0.4810810000000 1.0
C      1  0.5205640000000  0.5297360000000  0.5040180000000 1.0
C      1  0.5214040000000  0.5679720000000  0.4376080000000 1.0
C      1  0.4993130000000  0.5847470000000  0.5345750000000 1.0
C      1  0.5896510000000  0.4500500000000  0.5093560000000 1.0
C      1  0.5499230000000  0.4973880000000  0.5375520000000 1.0
C      1  0.5027810000000  0.5094210000000  0.4175740000000 1.0
C      1  0.4749420000000  0.4490910000000  0.5277120000000 1.0
C      1  0.5165250000000  0.4110420000000  0.4316550000000 1.0
C      1  0.4687890000000  0.4181860000000  0.4510220000000 1.0
C      1  0.5721980000000  0.4275800000000  0.4305720000000 1.0
C      1  0.4392070000000  0.5896970000000  0.4932740000000 1.0
C      1  0.5118980000000  0.5953570000000  0.4511460000000 1.0
C      1  0.4675770000000  0.4779220000000  0.5185520000000 1.0
C      1  0.5453830000000  0.5529250000000  0.5937830000000 1.0
C      1  0.3942390000000  0.5383830000000  0.4605310000000 1.0
C      1  0.4636160000000  0.4478860000000  0.4406220000000 1.0
C      1  0.4995760000000  0.5210030000000  0.5270150000000 1.0
C      1  0.5298790000000  0.5930790000000  0.5723610000000 1.0
C      1  0.3907120000000  0.4704160000000  0.4944780000000 1.0
C      1  0.6097480000000  0.5137010000000  0.4734550000000 1.0
C      1  0.4525150000000  0.5438320000000  0.4790400000000 1.0
C      1  0.5209040000000  0.4571730000000  0.3902530000000 1.0
C      1  0.5438800000000  0.5063030000000  0.4478260000000 1.0
C      1  0.5423510000000  0.5522440000000  0.4678850000000 1.0
C      1  0.4509280000000  0.4226250000000  0.5820870000000 1.0
C      1  0.5184410000000  0.5127290000000  0.5776330000000 1.0
C      1  0.4645240000000  0.5623950000000  0.4577580000000 1.0
C      1  0.5080050000000  0.5340820000000  0.5533060000000 1.0
C      1  0.4374320000000  0.4501670000000  0.4840150000000 1.0
C      1  0.6004970000000  0.4903700000000  0.5484560000000 1.0
C      1  0.4659590000000  0.6091410000000  0.4961480000000 1.0
C      1  0.5298440000000  0.5148750000000  0.6061940000000 1.0
C      1  0.4072510000000  0.5438630000000  0.5214900000000 1.0
C      1  0.5621860000000  0.4572310000000  0.4173300000000 1.0
C      1  0.4406850000000  0.4198590000000  0.4685380000000 1.0
C      1  0.5188520000000  0.4648430000000  0.5962790000000 1.0
C      1  0.5312710000000  0.4967490000000  0.4203450000000 1.0
C      1  0.4291810000000  0.4419640000000  0.5105910000000 1.0
C      1  0.5029360000000  0.5461710000000  0.4825820000000 1.0
C      1  0.4642670000000  0.5203350000000  0.5696460000000 1.0
C      1  0.4756590000000  0.5300980000000  0.3967790000000 1.0
C      1  0.4490960000000  0.5783450000000  0.5303090000000 1.0
C      1  0.5573740000000  0.5875410000000  0.5074900000000 1.0
C      1  0.4943320000000  0.6034550000000  0.5083270000000 1.0
C      1  0.5354810000000  0.4582440000000  0.4780360000000 1.0
C      1  0.4658490000000  0.5156170000000  0.4764600000000 1.0
C      1  0.4344200000000  0.5308920000000  0.5684350000000 1.0
C      1  0.4818930000000  0.5596740000000  0.6450570000000 1.0
C      1  0.5971990000000  0.4981270000000  0.5781870000000 1.0
C      1  0.5672170000000  0.5779960000000  0.4496850000000 1.0
C      1  0.5137100000000  0.4647330000000  0.5553280000000 1.0
C      1  0.4587910000000  0.5640280000000  0.4095570000000 1.0
C      1  0.5481250000000  0.4634640000000  0.5390190000000 1.0
C      1  0.5575620000000  0.4162030000000  0.5050150000000 1.0
C      1  0.5089850000000  0.4391490000000  0.5997170000000 1.0
C      1  0.4539680000000  0.4471700000000  0.5958130000000 1.0
C      1  0.5666210000000  0.5488670000000  0.4141110000000 1.0
C      1  0.5041470000000  0.4913770000000  0.4830770000000 1.0
C      1  0.4485530000000  0.3970390000000  0.5407520000000 1.0
C      1  0.4517260000000  0.4758390000000  0.4893050000000 1.0
C      1  0.5198360000000  0.5599910000000  0.5370590000000 1.0
C      1  0.4949830000000  0.4483700000000  0.4116510000000 1.0
C      1  0.3968660000000  0.4445250000000  0.4872270000000 1.0
C      1  0.5590710000000  0.5304260000000  0.5837600000000 1.0
C      1  0.4476400000000  0.3936970000000  0.5126260000000 1.0
C      1  0.4817620000000  0.5388160000000  0.5056180000000 1.0
C      1  0.4393130000000  0.5007800000000  0.4608650000000 1.0
C      1  0.4436690000000  0.5580170000000  0.5816400000000 1.0
C      1  0.4745000000000  0.4898580000000  0.5748020000000 1.0
C      1  0.5191120000000  0.6133620000000  0.4993160000000 1.0
C      1  0.5706450000000  0.5313250000000  0.5066260000000 1.0
C      1  0.4161890000000  0.5041200000000  0.5660660000000 1.0
C      1  0.4443130000000  0.5583520000000  0.4332420000000 1.0
C      1  0.4520650000000  0.5628870000000  0.3835650000000 1.0
C      1  0.5458850000000  0.5082380000000  0.5062010000000 1.0
C      1  0.4138520000000  0.4851650000000  0.4445570000000 1.0
C      1  0.4035370000000  0.4222020000000  0.5103100000000 1.0
C      1  0.5694940000000  0.4528610000000  0.5614660000000 1.0
C      1  0.5218590000000  0.4397030000000  0.4976470000000 1.0
C      1  0.3964210000000  0.4670950000000  0.5404780000000 1.0
C      1  0.5526270000000  0.4826540000000  0.4874260000000 1.0
C      1  0.5796740000000  0.5768580000000  0.5210190000000 1.0
C      1  0.4612300000000  0.5931500000000  0.4671160000000 1.0
C      1  0.5234200000000  0.5308310000000  0.4519990000000 1.0
C      1  0.5442260000000  0.5472320000000  0.5162600000000 1.0
C      1  0.5484950000000  0.5469860000000  0.5489380000000 1.0
C      1  0.3854690000000  0.5132840000000  0.4688430000000 1.0
C      1  0.4725800000000  0.5203440000000  0.4274960000000 1.0
C      1  0.4445250000000  0.4442140000000  0.5356970000000 1.0
C      1  0.4773230000000  0.5054970000000  0.5063390000000 1.0
C      1  0.6073880000000  0.5478430000000  0.4489920000000 1.0
C      1  0.5088210000000  0.4722230000000  0.4425300000000 1.0
C      1  0.5504940000000  0.5672860000000  0.4292910000000 1.0
C      1  0.5322200000000  0.3833620000000  0.4775420000000 1.0
C      1  0.4237920000000  0.5927000000000  0.5237250000000 1.0
C      1  0.5464890000000  0.4702340000000  0.6020120000000 1.0
C      1  0.5159410000000  0.5292760000000  0.6254670000000 1.0
C      1  0.4427040000000  0.4564340000000  0.4237660000000 1.0
C      1  0.4154780000000  0.4404090000000  0.4610750000000 1.0
C      1  0.5651040000000  0.4543340000000  0.5879030000000 1.0
C      1  0.4316140000000  0.5011170000000  0.4940410000000 1.0
C      1  0.5494070000000  0.5028520000000  0.3954420000000 1.0
C      1  0.4565170000000  0.5562740000000  0.5096160000000 1.0
C      1  0.5592120000000  0.5289240000000  0.3954570000000 1.0
C      1  0.4642070000000  0.5694660000000  0.5895240000000 1.0
C      1  0.4888750000000  0.4425350000000  0.4981830000000 1.0
C      1  0.4921730000000  0.4242710000000  0.4266560000000 1.0
C      1  0.6094370000000  0.4767110000000  0.4385800000000 1.0
C      1  0.5261590000000  0.5985800000000  0.5452590000000 1.0
C      1  0.5041440000000  0.4861800000000  0.5771250000000 1.0
C      1  0.4476330000000  0.4817960000000  0.4109890000000 1.0
C      1  0.4812650000000  0.4684840000000  0.4821940000000 1.0
C      1  0.4193840000000  0.5499440000000  0.4419160000000 1.0
C      1  0.4812680000000  0.4135390000000  0.4820840000000 1.0
C      1  0.5789380000000  0.4642290000000  0.4440200000000 1.0
C      1  0.5165380000000  0.3950250000000  0.4541430000000 1.0
C      1  0.4057820000000  0.4339370000000  0.5416220000000 1.0
C      1  0.4845630000000  0.5928090000000  0.4420990000000 1.0
C      1  0.4235530000000  0.5602910000000  0.5009310000000 1.0
C      1  0.5016530000000  0.4186790000000  0.5541170000000 1.0
C      1  0.4288410000000  0.4805280000000  0.5755680000000 1.0
C      1  0.4181900000000  0.4582160000000  0.4378160000000 1.0
C      1  0.5242230000000  0.5714300000000  0.5894010000000 1.0
C      1  0.4846160000000  0.5697160000000  0.4221960000000 1.0
C      1  0.5184770000000  0.4919310000000  0.4598500000000 1.0
C      1  0.5749530000000  0.5577140000000  0.4700540000000 1.0
C      1  0.5784030000000  0.4359780000000  0.4630610000000 1.0
C      1  0.5512650000000  0.4728630000000  0.3893350000000 1.0
C      1  0.4742860000000  0.4067990000000  0.5806850000000 1.0
C      1  0.4230270000000  0.4585590000000  0.5571460000000 1.0
C      1  0.5422880000000  0.3912570000000  0.5036690000000 1.0
C      1  0.5927210000000  0.5462780000000  0.4261970000000 1.0
C      1  0.4546860000000  0.4889280000000  0.3844940000000 1.0
C      1  0.5220540000000  0.3900750000000  0.5242740000000 1.0
C      1  0.3943530000000  0.5154180000000  0.5210940000000 1.0
C      1  0.4741240000000  0.3914530000000  0.5023460000000 1.0
C      1  0.6064360000000  0.5651840000000  0.5096580000000 1.0
C      1  0.5298980000000  0.4646000000000  0.4214190000000 1.0
C      1  0.5130120000000  0.4126530000000  0.4826630000000 1.0
C      1  0.5394480000000  0.6070570000000  0.5205530000000 1.0
C      1  0.4285600000000  0.4050640000000  0.4955650000000 1.0
C      1  0.4933010000000  0.3853890000000  0.5233730000000 1.0
C      1  0.3977670000000  0.4974440000000  0.5438820000000 1.0
C      1  0.5666080000000  0.4910480000000  0.4608250000000 1.0
C      1  0.4969230000000  0.5594940000000  0.4602960000000 1.0
C      1  0.6134960000000  0.5105150000000  0.5259670000000 1.0
C      1  0.6053220000000  0.5523910000000  0.5387660000000 1.0
C      1  0.5675450000000  0.4721760000000  0.5124020000000 1.0
C      1  0.4785310000000  0.3941920000000  0.5517070000000 1.0
C      1  0.4949290000000  0.4451730000000  0.5493670000000 1.0
C      1  0.4861540000000  0.5399820000000  0.5739890000000 1.0
END
