TITL C-2778436-5916-1243 0.0136966905733875 125000 -208.725943558814 0 0 36 (C1) n - 1
REM
REM in /home/nfs/bkarasulu/CARBON/AIRSS/Generating-Clusters/REBO/Only-C1/SD-CG/HFTN-CG
REM
REM
REM
REM
REM
REM ./C.cell (11c1c37f851c82e70ff6c80c92926a4b)
REM
REM compiler GCC version 9.2.1 20190827 (Red Hat 9.2.1-1)
REM options -cpp -mtune=generic -march=x86-64 -g -O0 -fpre-include=/usr/include/finclude/math-vector-fortran.h
REM seed 364832092 2013204605 -1216791027 -455850228 -394938134 -256061422 30715084 1052442671 -1186163544 932492664 1119132739 -1428629236 -1689973040 883996419 -251622031 375897159 184921674 -1783851151 1292361101 358955808 -1820931026 -2130312916 -309541930 -1170229233 -3017320 795933895 30331678 1838588224 -1922643776 577538540 -276241860 1938131201 -1107979234
REM
CELL 1.54180   50.00000   50.00000   50.00000   90.00000   90.00000   90.00000
LATT -1
SFAC C  
C      1  0.5150490000000  0.5612490000000  0.5669170000000 1.0
C      1  0.5211580000000  0.4582890000000  0.4432570000000 1.0
C      1  0.4939810000000  0.6377680000000  0.4879040000000 1.0
C      1  0.5630710000000  0.4522060000000  0.4762510000000 1.0
C      1  0.5459470000000  0.4657230000000  0.4565110000000 1.0
C      1  0.5104280000000  0.4296440000000  0.4825320000000 1.0
C      1  0.5171480000000  0.4611200000000  0.5239450000000 1.0
C      1  0.4970380000000  0.5131730000000  0.5130130000000 1.0
C      1  0.4288910000000  0.4932370000000  0.5417090000000 1.0
C      1  0.4519870000000  0.4947760000000  0.5248420000000 1.0
C      1  0.5180730000000  0.4876050000000  0.5086590000000 1.0
C      1  0.4078530000000  0.4769930000000  0.5360210000000 1.0
C      1  0.4958720000000  0.4910270000000  0.4841350000000 1.0
C      1  0.4949510000000  0.6115800000000  0.4876450000000 1.0
C      1  0.5460120000000  0.4904270000000  0.4958390000000 1.0
C      1  0.5033750000000  0.5045350000000  0.4363740000000 1.0
C      1  0.4951140000000  0.5453410000000  0.5608890000000 1.0
C      1  0.4296910000000  0.5098650000000  0.5646860000000 1.0
C      1  0.4739660000000  0.5121670000000  0.5313170000000 1.0
C      1  0.4756880000000  0.4539710000000  0.4614930000000 1.0
C      1  0.5389300000000  0.5163130000000  0.4526100000000 1.0
C      1  0.5639470000000  0.4673950000000  0.5014820000000 1.0
C      1  0.4969240000000  0.5583570000000  0.4871180000000 1.0
C      1  0.5002770000000  0.5134800000000  0.4625030000000 1.0
C      1  0.5019840000000  0.4425930000000  0.4586210000000 1.0
C      1  0.4979450000000  0.5308060000000  0.4868450000000 1.0
C      1  0.4959380000000  0.5849680000000  0.4873810000000 1.0
C      1  0.5446460000000  0.4940140000000  0.4666630000000 1.0
C      1  0.5643190000000  0.4584470000000  0.5284860000000 1.0
C      1  0.4739170000000  0.5284250000000  0.5544790000000 1.0
C      1  0.4534350000000  0.4788510000000  0.5013570000000 1.0
C      1  0.4507630000000  0.5263570000000  0.5707420000000 1.0
C      1  0.5096070000000  0.4388620000000  0.5082470000000 1.0
C      1  0.5102390000000  0.4794580000000  0.4272540000000 1.0
C      1  0.5396170000000  0.4570070000000  0.5410590000000 1.0
C      1  0.4722190000000  0.4739720000000  0.4812160000000 1.0
END
