TITL C-2778429-3646-291 0.00527269516897867 125000 -695.723800818003 0 0 121 (C1) n - 1
REM
REM in /home/nfs/bkarasulu/CARBON/AIRSS/Generating-Clusters/REBO/Only-C1/SD-CG/HFTN-CG
REM
REM
REM
REM
REM
REM ./C.cell (11c1c37f851c82e70ff6c80c92926a4b)
REM
REM compiler GCC version 9.2.1 20190827 (Red Hat 9.2.1-1)
REM options -cpp -mtune=generic -march=x86-64 -g -O0 -fpre-include=/usr/include/finclude/math-vector-fortran.h
REM seed -1847532555 -1788112715 342724255 -1555871594 -1018572557 157138388 -344487101 330174981 476074805 -108961237 802553271 173752539 -1869364635 -1181750139 1123373045 206397384 137980999 86179234 -1768181561 1916630026 378638448 -1792160622 -753364603 1087507417 1262637783 -1914506055 -1793905879 -1393435073 705919326 -1376598619 626460620 -456315649 -2146474815
REM
CELL 1.54180   50.00000   50.00000   50.00000   90.00000   90.00000   90.00000
LATT -1
SFAC C  
C      1  0.4604780000000  0.5678260000000  0.4373700000000 1.0
C      1  0.4367610000000  0.4824060000000  0.5640830000000 1.0
C      1  0.4810680000000  0.5017770000000  0.4700020000000 1.0
C      1  0.5033210000000  0.5503120000000  0.4164010000000 1.0
C      1  0.4588120000000  0.5172550000000  0.5815320000000 1.0
C      1  0.5111910000000  0.4617580000000  0.5419090000000 1.0
C      1  0.4487960000000  0.5424580000000  0.4382460000000 1.0
C      1  0.5041860000000  0.5893740000000  0.5136050000000 1.0
C      1  0.4732020000000  0.5247270000000  0.5325430000000 1.0
C      1  0.4662900000000  0.5585800000000  0.5116400000000 1.0
C      1  0.4611910000000  0.5241710000000  0.4146890000000 1.0
C      1  0.5683960000000  0.5059210000000  0.4731300000000 1.0
C      1  0.4746540000000  0.5832720000000  0.5759600000000 1.0
C      1  0.5430760000000  0.4946640000000  0.4190750000000 1.0
C      1  0.5406100000000  0.4510010000000  0.4292240000000 1.0
C      1  0.5300580000000  0.5197880000000  0.5752160000000 1.0
C      1  0.5740450000000  0.5242240000000  0.4362970000000 1.0
C      1  0.4951650000000  0.5443990000000  0.5060090000000 1.0
C      1  0.4651410000000  0.4451870000000  0.4963550000000 1.0
C      1  0.4337140000000  0.5608500000000  0.5093460000000 1.0
C      1  0.5163000000000  0.5000180000000  0.4356700000000 1.0
C      1  0.5306200000000  0.5617360000000  0.5252320000000 1.0
C      1  0.5296020000000  0.4017260000000  0.4959030000000 1.0
C      1  0.5082710000000  0.4637880000000  0.5798830000000 1.0
C      1  0.5224540000000  0.5576170000000  0.4649660000000 1.0
C      1  0.5814890000000  0.4939240000000  0.5392660000000 1.0
C      1  0.5779820000000  0.5748410000000  0.5095630000000 1.0
C      1  0.5715410000000  0.5519580000000  0.5531550000000 1.0
C      1  0.5028460000000  0.5713240000000  0.5397880000000 1.0
C      1  0.4804800000000  0.5940680000000  0.4896200000000 1.0
C      1  0.4363130000000  0.4455760000000  0.5137170000000 1.0
C      1  0.5916180000000  0.5172830000000  0.5172550000000 1.0
C      1  0.4555410000000  0.4973130000000  0.4897840000000 1.0
C      1  0.5303880000000  0.5219850000000  0.4805770000000 1.0
C      1  0.4114480000000  0.5027330000000  0.4425890000000 1.0
C      1  0.5659130000000  0.4410720000000  0.5008870000000 1.0
C      1  0.4213100000000  0.5353790000000  0.5087600000000 1.0
C      1  0.4635380000000  0.4866980000000  0.5485160000000 1.0
C      1  0.4089140000000  0.4758020000000  0.4827260000000 1.0
C      1  0.4266060000000  0.4535120000000  0.4843220000000 1.0
C      1  0.5356660000000  0.5864040000000  0.4760150000000 1.0
C      1  0.5170110000000  0.4807500000000  0.5073360000000 1.0
C      1  0.4550400000000  0.3956050000000  0.4982240000000 1.0
C      1  0.5361220000000  0.4156830000000  0.4724540000000 1.0
C      1  0.4596470000000  0.5268050000000  0.5014420000000 1.0
C      1  0.4880520000000  0.5062690000000  0.5569720000000 1.0
C      1  0.5121810000000  0.5327770000000  0.4440320000000 1.0
C      1  0.5587880000000  0.4531430000000  0.4511950000000 1.0
C      1  0.4216940000000  0.5855650000000  0.5072660000000 1.0
C      1  0.5711710000000  0.5522760000000  0.4932850000000 1.0
C      1  0.4861710000000  0.4524060000000  0.4261480000000 1.0
C      1  0.4458500000000  0.5613260000000  0.5559160000000 1.0
C      1  0.4769330000000  0.4678560000000  0.4737590000000 1.0
C      1  0.4886930000000  0.4306390000000  0.5525180000000 1.0
C      1  0.4769500000000  0.4658640000000  0.5811870000000 1.0
C      1  0.5390600000000  0.5182810000000  0.5283680000000 1.0
C      1  0.4900450000000  0.4861290000000  0.4230430000000 1.0
C      1  0.5554830000000  0.4324590000000  0.5261120000000 1.0
C      1  0.4822640000000  0.5403550000000  0.4597840000000 1.0
C      1  0.4670620000000  0.4381080000000  0.4486210000000 1.0
C      1  0.4903480000000  0.5658500000000  0.4393180000000 1.0
C      1  0.4252080000000  0.5183430000000  0.5333100000000 1.0
C      1  0.4578720000000  0.5746010000000  0.5380190000000 1.0
C      1  0.4387070000000  0.4893910000000  0.5251470000000 1.0
C      1  0.4828530000000  0.4213830000000  0.4651990000000 1.0
C      1  0.4962210000000  0.4412300000000  0.5216410000000 1.0
C      1  0.5151040000000  0.4412140000000  0.4306990000000 1.0
C      1  0.4663130000000  0.4467320000000  0.5630610000000 1.0
C      1  0.5681760000000  0.4979530000000  0.4300620000000 1.0
C      1  0.4594140000000  0.4913070000000  0.4070500000000 1.0
C      1  0.5840170000000  0.5271700000000  0.4920480000000 1.0
C      1  0.5328560000000  0.5943260000000  0.5023390000000 1.0
C      1  0.4088710000000  0.5019050000000  0.4711900000000 1.0
C      1  0.5125300000000  0.4243340000000  0.4569380000000 1.0
C      1  0.4162960000000  0.4587580000000  0.5373700000000 1.0
C      1  0.5398200000000  0.5507800000000  0.4943490000000 1.0
C      1  0.5657490000000  0.4767960000000  0.5573440000000 1.0
C      1  0.4763700000000  0.4140780000000  0.4950810000000 1.0
C      1  0.5501770000000  0.4468110000000  0.5523370000000 1.0
C      1  0.5508240000000  0.4973620000000  0.5799840000000 1.0
C      1  0.5566030000000  0.4358620000000  0.4739470000000 1.0
C      1  0.5714880000000  0.5553820000000  0.4402980000000 1.0
C      1  0.4239750000000  0.5225220000000  0.4838880000000 1.0
C      1  0.4468250000000  0.5302800000000  0.5533180000000 1.0
C      1  0.4101300000000  0.4898210000000  0.5441830000000 1.0
C      1  0.4826240000000  0.5370910000000  0.5693500000000 1.0
C      1  0.5255390000000  0.5431170000000  0.5565070000000 1.0
C      1  0.4403270000000  0.4964270000000  0.4342490000000 1.0
C      1  0.5921530000000  0.4748100000000  0.4809660000000 1.0
C      1  0.5493770000000  0.5621890000000  0.5604130000000 1.0
C      1  0.4442490000000  0.4471080000000  0.5469370000000 1.0
C      1  0.5557920000000  0.5018200000000  0.5046950000000 1.0
C      1  0.5002940000000  0.5254570000000  0.4815090000000 1.0
C      1  0.5280010000000  0.4897870000000  0.5369440000000 1.0
C      1  0.5071390000000  0.5305000000000  0.5315980000000 1.0
C      1  0.4888880000000  0.4801940000000  0.5267670000000 1.0
C      1  0.4442550000000  0.4495360000000  0.4603950000000 1.0
C      1  0.5815930000000  0.4814480000000  0.5031340000000 1.0
C      1  0.4666730000000  0.4623910000000  0.4015270000000 1.0
C      1  0.5692150000000  0.5251030000000  0.5392330000000 1.0
C      1  0.5542190000000  0.5853420000000  0.5215040000000 1.0
C      1  0.4479610000000  0.4814820000000  0.4610280000000 1.0
C      1  0.5041670000000  0.4534960000000  0.4989870000000 1.0
C      1  0.5018660000000  0.4038110000000  0.5100050000000 1.0
C      1  0.4724040000000  0.5061960000000  0.4415010000000 1.0
C      1  0.5746720000000  0.4785560000000  0.4540540000000 1.0
C      1  0.5049060000000  0.4546940000000  0.4668590000000 1.0
C      1  0.4663870000000  0.4910330000000  0.5892500000000 1.0
C      1  0.5403590000000  0.4665810000000  0.5782160000000 1.0
C      1  0.4630580000000  0.4749590000000  0.5104390000000 1.0
C      1  0.4846810000000  0.5384810000000  0.3998120000000 1.0
C      1  0.5137380000000  0.4935830000000  0.5655630000000 1.0
C      1  0.5326190000000  0.4917620000000  0.4838830000000 1.0
C      1  0.5225340000000  0.4789210000000  0.4590040000000 1.0
C      1  0.4511080000000  0.5308410000000  0.4684400000000 1.0
C      1  0.5011330000000  0.5690320000000  0.4861940000000 1.0
C      1  0.5123670000000  0.4106660000000  0.5417080000000 1.0
C      1  0.4878010000000  0.5635980000000  0.5621430000000 1.0
C      1  0.5206600000000  0.4343130000000  0.5657870000000 1.0
C      1  0.5546800000000  0.5344270000000  0.4612660000000 1.0
C      1  0.5386010000000  0.4100550000000  0.5235230000000 1.0
END
