TITL C-2778433-5640-660 -0.00182180730041188 125000 -382.817034248073 0 0 67 (C1) n - 1
REM
REM in /home/nfs/bkarasulu/CARBON/AIRSS/Generating-Clusters/REBO/Only-C1/SD-CG/HFTN-CG
REM
REM
REM
REM
REM
REM ./C.cell (11c1c37f851c82e70ff6c80c92926a4b)
REM
REM compiler GCC version 9.2.1 20190827 (Red Hat 9.2.1-1)
REM options -cpp -mtune=generic -march=x86-64 -g -O0 -fpre-include=/usr/include/finclude/math-vector-fortran.h
REM seed -1725922918 -1130657380 1693350302 1320588763 -802922179 57995336 -392619953 -1239929349 -1975468888 87004529 -1542794724 -223565867 49652044 -1794382160 -1785127534 1709654771 1541723854 75912114 -770076773 203882197 1256351436 -655344024 -480509569 -967681853 1137452045 -1043670731 1107841990 459383598 -510661452 -1871262571 1697115727 2052158578 493024427
REM
CELL 1.54180   50.00000   50.00000   50.00000   90.00000   90.00000   90.00000
LATT -1
SFAC C  
C      1  0.5404040000000  0.4400330000000  0.4924910000000 1.0
C      1  0.5748070000000  0.5092280000000  0.5164600000000 1.0
C      1  0.5472460000000  0.5160940000000  0.4644170000000 1.0
C      1  0.5594490000000  0.4691340000000  0.4609210000000 1.0
C      1  0.5321470000000  0.4996870000000  0.5051600000000 1.0
C      1  0.4877790000000  0.4462590000000  0.4567800000000 1.0
C      1  0.5086840000000  0.5588460000000  0.4386490000000 1.0
C      1  0.4469080000000  0.5345970000000  0.4077390000000 1.0
C      1  0.4407490000000  0.5056950000000  0.4948670000000 1.0
C      1  0.5015440000000  0.4992050000000  0.5299890000000 1.0
C      1  0.5007680000000  0.4826470000000  0.5752170000000 1.0
C      1  0.5562430000000  0.4618690000000  0.5134290000000 1.0
C      1  0.4983480000000  0.5073120000000  0.4966840000000 1.0
C      1  0.4910070000000  0.5660810000000  0.5523340000000 1.0
C      1  0.4587480000000  0.5367270000000  0.4319650000000 1.0
C      1  0.4325630000000  0.5285960000000  0.4754860000000 1.0
C      1  0.4887880000000  0.5330630000000  0.4445900000000 1.0
C      1  0.4695170000000  0.5031680000000  0.4850840000000 1.0
C      1  0.4736180000000  0.4479320000000  0.4330630000000 1.0
C      1  0.5731520000000  0.4733090000000  0.4861190000000 1.0
C      1  0.5864450000000  0.4975450000000  0.4931760000000 1.0
C      1  0.5412430000000  0.5536900000000  0.5468380000000 1.0
C      1  0.4172890000000  0.4867150000000  0.5037430000000 1.0
C      1  0.4528780000000  0.5394440000000  0.4607860000000 1.0
C      1  0.5610900000000  0.4887750000000  0.5317980000000 1.0
C      1  0.4918080000000  0.5695180000000  0.5204520000000 1.0
C      1  0.4498040000000  0.5340630000000  0.5210450000000 1.0
C      1  0.4634990000000  0.4580690000000  0.4973130000000 1.0
C      1  0.4767870000000  0.5438170000000  0.5066210000000 1.0
C      1  0.5394360000000  0.5539340000000  0.4994590000000 1.0
C      1  0.4833700000000  0.5382800000000  0.5582500000000 1.0
C      1  0.4889310000000  0.4258670000000  0.5053460000000 1.0
C      1  0.4793980000000  0.5441950000000  0.4768690000000 1.0
C      1  0.4854260000000  0.4857900000000  0.4622080000000 1.0
C      1  0.5001560000000  0.5047640000000  0.4420160000000 1.0
C      1  0.5260490000000  0.5294470000000  0.5188860000000 1.0
C      1  0.4288050000000  0.4711560000000  0.5266190000000 1.0
C      1  0.5178260000000  0.4934790000000  0.5555000000000 1.0
C      1  0.3925540000000  0.4847460000000  0.4921000000000 1.0
C      1  0.5195580000000  0.5723690000000  0.4861430000000 1.0
C      1  0.5557960000000  0.5379110000000  0.4768590000000 1.0
C      1  0.4875650000000  0.4682980000000  0.4910460000000 1.0
C      1  0.4593290000000  0.4947950000000  0.5559340000000 1.0
C      1  0.5497360000000  0.5292330000000  0.5551310000000 1.0
C      1  0.4836260000000  0.4463880000000  0.5522010000000 1.0
C      1  0.4759410000000  0.4723800000000  0.5635520000000 1.0
C      1  0.5122140000000  0.4426650000000  0.5540750000000 1.0
C      1  0.5171260000000  0.4280520000000  0.5078950000000 1.0
C      1  0.5241200000000  0.4928100000000  0.4295280000000 1.0
C      1  0.4444620000000  0.5014070000000  0.5289240000000 1.0
C      1  0.5130880000000  0.4659250000000  0.4609210000000 1.0
C      1  0.5451750000000  0.5011190000000  0.5522630000000 1.0
C      1  0.5491370000000  0.4924530000000  0.4457790000000 1.0
C      1  0.4715350000000  0.4347150000000  0.5286000000000 1.0
C      1  0.4813660000000  0.4282150000000  0.4777740000000 1.0
C      1  0.5598630000000  0.5329350000000  0.5162930000000 1.0
C      1  0.5383650000000  0.4505540000000  0.4663160000000 1.0
C      1  0.5023930000000  0.5632060000000  0.4670450000000 1.0
C      1  0.5216980000000  0.4960240000000  0.4744640000000 1.0
C      1  0.4463930000000  0.4499970000000  0.5199370000000 1.0
C      1  0.5198360000000  0.5693320000000  0.5380590000000 1.0
C      1  0.5278110000000  0.4506450000000  0.5285730000000 1.0
C      1  0.5116530000000  0.4729750000000  0.5114020000000 1.0
C      1  0.5230720000000  0.4810490000000  0.4049950000000 1.0
C      1  0.4666440000000  0.5190430000000  0.5693350000000 1.0
C      1  0.4310780000000  0.5518420000000  0.5272160000000 1.0
C      1  0.4961560000000  0.5308840000000  0.5292710000000 1.0
END
