TITL C-2778436-5916-1012 0.000425044310994006 125000 -1032.73743429321 0 0 177 (C1) n - 1
REM
REM in /home/nfs/bkarasulu/CARBON/AIRSS/Generating-Clusters/REBO/Only-C1/SD-CG/HFTN-CG
REM
REM
REM
REM
REM
REM ./C.cell (11c1c37f851c82e70ff6c80c92926a4b)
REM
REM compiler GCC version 9.2.1 20190827 (Red Hat 9.2.1-1)
REM options -cpp -mtune=generic -march=x86-64 -g -O0 -fpre-include=/usr/include/finclude/math-vector-fortran.h
REM seed 1652411438 -2003952145 1342879382 -1015942512 -1481204141 -1955584015 1762362631 1578504503 1025784239 1803220923 1012872565 -1619331075 -33629677 866814415 -1482796674 -263444734 86482466 1000143936 894070119 -1029942205 -1155990099 1176214906 1031798432 -486680656 -1222354784 -859371166 -812760278 2624643 476326514 -299889225 -1985136855 835569454 2103691960
REM
CELL 1.54180   50.00000   50.00000   50.00000   90.00000   90.00000   90.00000
LATT -1
SFAC C  
C      1  0.5363680000000  0.6085110000000  0.4589630000000 1.0
C      1  0.5325390000000  0.4292060000000  0.4745850000000 1.0
C      1  0.4318150000000  0.4992260000000  0.4147170000000 1.0
C      1  0.5935750000000  0.4910980000000  0.4720660000000 1.0
C      1  0.4344080000000  0.4288710000000  0.5061090000000 1.0
C      1  0.4723460000000  0.5450330000000  0.4089900000000 1.0
C      1  0.4286870000000  0.4318670000000  0.4480560000000 1.0
C      1  0.4875800000000  0.4893450000000  0.4873710000000 1.0
C      1  0.5441600000000  0.5888000000000  0.4403040000000 1.0
C      1  0.4743710000000  0.4279810000000  0.5060390000000 1.0
C      1  0.4345300000000  0.4569210000000  0.4907710000000 1.0
C      1  0.4772660000000  0.5351370000000  0.5159940000000 1.0
C      1  0.4982510000000  0.5211530000000  0.4274080000000 1.0
C      1  0.4227190000000  0.4876150000000  0.4978630000000 1.0
C      1  0.4651050000000  0.5682670000000  0.5345950000000 1.0
C      1  0.4219820000000  0.5490110000000  0.4257040000000 1.0
C      1  0.4305380000000  0.4159100000000  0.5373400000000 1.0
C      1  0.5437750000000  0.3976940000000  0.4812800000000 1.0
C      1  0.4931680000000  0.5820950000000  0.4873450000000 1.0
C      1  0.5294150000000  0.5981920000000  0.4895190000000 1.0
C      1  0.5699090000000  0.5730790000000  0.4477460000000 1.0
C      1  0.4632310000000  0.4646770000000  0.4458820000000 1.0
C      1  0.5489770000000  0.5066710000000  0.4765090000000 1.0
C      1  0.4812810000000  0.5172550000000  0.4550430000000 1.0
C      1  0.5189170000000  0.4916430000000  0.4981320000000 1.0
C      1  0.5548800000000  0.5902900000000  0.5046820000000 1.0
C      1  0.5643520000000  0.4737500000000  0.5279570000000 1.0
C      1  0.4332940000000  0.5116930000000  0.5146320000000 1.0
C      1  0.4607540000000  0.4954250000000  0.6118180000000 1.0
C      1  0.5665220000000  0.5185530000000  0.5962420000000 1.0
C      1  0.4645000000000  0.4211940000000  0.5341930000000 1.0
C      1  0.4752610000000  0.5033970000000  0.4091300000000 1.0
C      1  0.4950680000000  0.4581220000000  0.5411850000000 1.0
C      1  0.4446770000000  0.5678590000000  0.5601970000000 1.0
C      1  0.4461240000000  0.5293120000000  0.4163200000000 1.0
C      1  0.5628460000000  0.4326900000000  0.5391510000000 1.0
C      1  0.5076870000000  0.3978660000000  0.5364850000000 1.0
C      1  0.4700010000000  0.4547250000000  0.4016480000000 1.0
C      1  0.5371020000000  0.5507240000000  0.4495190000000 1.0
C      1  0.3911320000000  0.5116150000000  0.5008780000000 1.0
C      1  0.4732560000000  0.5981140000000  0.5224180000000 1.0
C      1  0.4504830000000  0.5135380000000  0.4467810000000 1.0
C      1  0.4357600000000  0.4896360000000  0.4603080000000 1.0
C      1  0.4032870000000  0.5321700000000  0.4488340000000 1.0
C      1  0.5687310000000  0.4742630000000  0.4883720000000 1.0
C      1  0.4981380000000  0.4187850000000  0.4575090000000 1.0
C      1  0.4399120000000  0.4919880000000  0.5609820000000 1.0
C      1  0.5104940000000  0.4348350000000  0.5217320000000 1.0
C      1  0.5159170000000  0.5388030000000  0.4938590000000 1.0
C      1  0.5579630000000  0.4856060000000  0.4515880000000 1.0
C      1  0.5409160000000  0.5017180000000  0.6084670000000 1.0
C      1  0.4830440000000  0.5057600000000  0.6143480000000 1.0
C      1  0.5403830000000  0.5359590000000  0.4770320000000 1.0
C      1  0.5662030000000  0.5427950000000  0.4336980000000 1.0
C      1  0.5509990000000  0.5133130000000  0.4330900000000 1.0
C      1  0.5836950000000  0.5144380000000  0.4413060000000 1.0
C      1  0.4795660000000  0.4877790000000  0.4380030000000 1.0
C      1  0.4751980000000  0.3897870000000  0.4944460000000 1.0
C      1  0.5902930000000  0.4812390000000  0.4416980000000 1.0
C      1  0.4679750000000  0.5570850000000  0.4590710000000 1.0
C      1  0.5196210000000  0.5734770000000  0.4678900000000 1.0
C      1  0.4159150000000  0.5639370000000  0.4557180000000 1.0
C      1  0.4523850000000  0.4104160000000  0.4876360000000 1.0
C      1  0.5596960000000  0.5727640000000  0.5215050000000 1.0
C      1  0.4081900000000  0.5022160000000  0.4333620000000 1.0
C      1  0.4892140000000  0.5398150000000  0.4781760000000 1.0
C      1  0.5306320000000  0.5219430000000  0.5544790000000 1.0
C      1  0.4714790000000  0.5955920000000  0.4677810000000 1.0
C      1  0.4860360000000  0.4088680000000  0.5515340000000 1.0
C      1  0.5786760000000  0.4521950000000  0.4403910000000 1.0
C      1  0.4578530000000  0.5169520000000  0.5659400000000 1.0
C      1  0.5432160000000  0.4567270000000  0.4581140000000 1.0
C      1  0.4586280000000  0.4889630000000  0.5147830000000 1.0
C      1  0.5112980000000  0.5468450000000  0.5986890000000 1.0
C      1  0.4440800000000  0.5379090000000  0.5861470000000 1.0
C      1  0.4961410000000  0.5147040000000  0.5342990000000 1.0
C      1  0.5815880000000  0.4348050000000  0.4629250000000 1.0
C      1  0.5039480000000  0.6038180000000  0.5114090000000 1.0
C      1  0.5338150000000  0.4184050000000  0.5405360000000 1.0
C      1  0.5779890000000  0.4786550000000  0.5647600000000 1.0
C      1  0.4912830000000  0.5171040000000  0.3858170000000 1.0
C      1  0.5283680000000  0.4595620000000  0.5194390000000 1.0
C      1  0.4066840000000  0.4998750000000  0.4730160000000 1.0
C      1  0.4544300000000  0.4804560000000  0.4021050000000 1.0
C      1  0.6092740000000  0.5271550000000  0.4950540000000 1.0
C      1  0.4973050000000  0.3910320000000  0.4737430000000 1.0
C      1  0.5195050000000  0.5169520000000  0.3939840000000 1.0
C      1  0.3978310000000  0.4946920000000  0.5281640000000 1.0
C      1  0.4605090000000  0.5633190000000  0.5867120000000 1.0
C      1  0.4308990000000  0.5408840000000  0.4972990000000 1.0
C      1  0.3924110000000  0.4803810000000  0.4507810000000 1.0
C      1  0.5681520000000  0.4481000000000  0.5637150000000 1.0
C      1  0.5349310000000  0.5585400000000  0.5919070000000 1.0
C      1  0.5398750000000  0.4653020000000  0.4900930000000 1.0
C      1  0.4213600000000  0.5117410000000  0.5444020000000 1.0
C      1  0.5063850000000  0.5956590000000  0.5446830000000 1.0
C      1  0.5130950000000  0.5703680000000  0.5307750000000 1.0
C      1  0.5914130000000  0.5530380000000  0.5464000000000 1.0
C      1  0.4640500000000  0.4592050000000  0.4764140000000 1.0
C      1  0.5946530000000  0.5800640000000  0.5027180000000 1.0
C      1  0.6052610000000  0.5032490000000  0.5492330000000 1.0
C      1  0.4244510000000  0.4584100000000  0.4523570000000 1.0
C      1  0.5208460000000  0.4901870000000  0.4656880000000 1.0
C      1  0.4958120000000  0.5850400000000  0.4476710000000 1.0
C      1  0.4324230000000  0.5749700000000  0.4971470000000 1.0
C      1  0.4006720000000  0.5377630000000  0.4818000000000 1.0
C      1  0.5188060000000  0.4445780000000  0.4112640000000 1.0
C      1  0.4568570000000  0.5358930000000  0.5405740000000 1.0
C      1  0.4483680000000  0.4141370000000  0.4579210000000 1.0
C      1  0.5728910000000  0.5397320000000  0.5717130000000 1.0
C      1  0.5222080000000  0.5324760000000  0.5232610000000 1.0
C      1  0.5910750000000  0.5046920000000  0.5801010000000 1.0
C      1  0.4004220000000  0.4659950000000  0.5095840000000 1.0
C      1  0.5190380000000  0.5689560000000  0.4282670000000 1.0
C      1  0.5262450000000  0.4901940000000  0.4035080000000 1.0
C      1  0.4854690000000  0.5032620000000  0.5745090000000 1.0
C      1  0.4289830000000  0.4381940000000  0.5633400000000 1.0
C      1  0.5832220000000  0.5765110000000  0.4788710000000 1.0
C      1  0.5082510000000  0.4780840000000  0.4298290000000 1.0
C      1  0.5611070000000  0.4157950000000  0.4632580000000 1.0
C      1  0.4972360000000  0.4656270000000  0.4661990000000 1.0
C      1  0.5404610000000  0.4742290000000  0.6018440000000 1.0
C      1  0.4659350000000  0.4430250000000  0.4277970000000 1.0
C      1  0.4177060000000  0.4623220000000  0.5758540000000 1.0
C      1  0.5080730000000  0.4463110000000  0.4426760000000 1.0
C      1  0.5526000000000  0.5009750000000  0.5702630000000 1.0
C      1  0.5106730000000  0.5164040000000  0.6041020000000 1.0
C      1  0.4260420000000  0.5394980000000  0.5572140000000 1.0
C      1  0.5990620000000  0.5699400000000  0.5276210000000 1.0
C      1  0.4580840000000  0.4991930000000  0.4832670000000 1.0
C      1  0.5758710000000  0.4448810000000  0.5145300000000 1.0
C      1  0.4436770000000  0.5791930000000  0.4682540000000 1.0
C      1  0.5224010000000  0.3814610000000  0.4879820000000 1.0
C      1  0.4863700000000  0.4538450000000  0.5679970000000 1.0
C      1  0.4596540000000  0.5290140000000  0.4901960000000 1.0
C      1  0.4723890000000  0.4753590000000  0.5793890000000 1.0
C      1  0.4839270000000  0.4601680000000  0.5035200000000 1.0
C      1  0.5914740000000  0.5251010000000  0.4715090000000 1.0
C      1  0.5589650000000  0.5075190000000  0.5302600000000 1.0
C      1  0.5188100000000  0.5000430000000  0.5755380000000 1.0
C      1  0.4406420000000  0.4790080000000  0.5910970000000 1.0
C      1  0.4897120000000  0.5604320000000  0.5805750000000 1.0
C      1  0.5493720000000  0.4506770000000  0.4252120000000 1.0
C      1  0.5989960000000  0.4769520000000  0.5027910000000 1.0
C      1  0.4530810000000  0.4735620000000  0.5411610000000 1.0
C      1  0.5699320000000  0.5475320000000  0.4730250000000 1.0
C      1  0.5894410000000  0.4402510000000  0.4901400000000 1.0
C      1  0.4991390000000  0.5894520000000  0.5701620000000 1.0
C      1  0.5381640000000  0.4699590000000  0.5496910000000 1.0
C      1  0.4011220000000  0.5671460000000  0.4950500000000 1.0
C      1  0.4712620000000  0.4189730000000  0.4423190000000 1.0
C      1  0.5795390000000  0.5220080000000  0.5459720000000 1.0
C      1  0.5706220000000  0.5048640000000  0.5014340000000 1.0
C      1  0.6017110000000  0.5078490000000  0.5159000000000 1.0
C      1  0.5398010000000  0.5572980000000  0.5388920000000 1.0
C      1  0.4415010000000  0.5422230000000  0.4537110000000 1.0
C      1  0.4528640000000  0.4469020000000  0.5474350000000 1.0
C      1  0.5018080000000  0.3842750000000  0.5125770000000 1.0
C      1  0.4885150000000  0.4854500000000  0.5269710000000 1.0
C      1  0.5395090000000  0.4544800000000  0.5777800000000 1.0
C      1  0.4026390000000  0.4605550000000  0.4767490000000 1.0
C      1  0.5296380000000  0.4933820000000  0.5273060000000 1.0
C      1  0.5477870000000  0.5556510000000  0.5683470000000 1.0
C      1  0.4958450000000  0.4265460000000  0.5726280000000 1.0
C      1  0.5038940000000  0.4268050000000  0.4903510000000 1.0
C      1  0.4979090000000  0.4496380000000  0.3935180000000 1.0
C      1  0.4904850000000  0.5635250000000  0.5123530000000 1.0
C      1  0.4991660000000  0.5324920000000  0.5634800000000 1.0
C      1  0.4116690000000  0.4426190000000  0.5275630000000 1.0
C      1  0.4447540000000  0.5964710000000  0.5150230000000 1.0
C      1  0.5468490000000  0.4720020000000  0.4008550000000 1.0
C      1  0.4057270000000  0.4684770000000  0.5486040000000 1.0
C      1  0.4794250000000  0.5640010000000  0.4304140000000 1.0
C      1  0.5228670000000  0.5066180000000  0.4395520000000 1.0
C      1  0.5248290000000  0.4273440000000  0.5712840000000 1.0
C      1  0.5967770000000  0.4740510000000  0.5363940000000 1.0
C      1  0.5070490000000  0.5457830000000  0.4085760000000 1.0
END
