TITL C-2778427-5640-799 0.00280332099568251 125000 -429.483613045062 0 0 75 (C1) n - 1
REM
REM in /home/nfs/bkarasulu/CARBON/AIRSS/Generating-Clusters/REBO/Only-C1/SD-CG/HFTN-CG
REM
REM
REM
REM
REM
REM ./C.cell (11c1c37f851c82e70ff6c80c92926a4b)
REM
REM compiler GCC version 9.2.1 20190827 (Red Hat 9.2.1-1)
REM options -cpp -mtune=generic -march=x86-64 -g -O0 -fpre-include=/usr/include/finclude/math-vector-fortran.h
REM seed 936764936 848436339 -1156648788 -608353018 -695747986 -993001257 1862437074 -828448094 484150251 -1447827490 -359322889 756284017 1902372388 -589709279 472987152 -633330126 -66988497 1216528724 1714875640 -1036314998 1990289459 -1741106380 -144937030 -58100789 -643827559 1908408487 -519095619 -562123094 -1762079510 -1657507304 -1907919998 1546748973 7437947
REM
CELL 1.54180   50.00000   50.00000   50.00000   90.00000   90.00000   90.00000
LATT -1
SFAC C  
C      1  0.5424380000000  0.5611280000000  0.4888260000000 1.0
C      1  0.5492410000000  0.4428650000000  0.4586160000000 1.0
C      1  0.4669470000000  0.5698830000000  0.4739330000000 1.0
C      1  0.5318260000000  0.4736400000000  0.5215390000000 1.0
C      1  0.4951850000000  0.5631320000000  0.4557650000000 1.0
C      1  0.4660610000000  0.4639150000000  0.4614980000000 1.0
C      1  0.4654150000000  0.4565970000000  0.4358660000000 1.0
C      1  0.4251030000000  0.4959020000000  0.5341370000000 1.0
C      1  0.5660420000000  0.5210690000000  0.4861750000000 1.0
C      1  0.4547470000000  0.4582660000000  0.5480540000000 1.0
C      1  0.4680890000000  0.5439270000000  0.5308900000000 1.0
C      1  0.5741770000000  0.4998130000000  0.5269150000000 1.0
C      1  0.5183730000000  0.5454620000000  0.4374920000000 1.0
C      1  0.5261310000000  0.4559160000000  0.5761050000000 1.0
C      1  0.5078030000000  0.4970080000000  0.4191940000000 1.0
C      1  0.5648980000000  0.4701800000000  0.4612810000000 1.0
C      1  0.5038270000000  0.5427990000000  0.5485500000000 1.0
C      1  0.4747800000000  0.4870020000000  0.4792060000000 1.0
C      1  0.4654160000000  0.5266720000000  0.4312730000000 1.0
C      1  0.4248920000000  0.5126120000000  0.4823060000000 1.0
C      1  0.5351080000000  0.5302170000000  0.5514200000000 1.0
C      1  0.4649560000000  0.5006180000000  0.4429030000000 1.0
C      1  0.4511720000000  0.5201870000000  0.5012640000000 1.0
C      1  0.4796280000000  0.4350390000000  0.5490500000000 1.0
C      1  0.5639500000000  0.4386310000000  0.4856350000000 1.0
C      1  0.5399140000000  0.4975750000000  0.4238210000000 1.0
C      1  0.4923390000000  0.5117630000000  0.4717350000000 1.0
C      1  0.4827740000000  0.5194110000000  0.5416010000000 1.0
C      1  0.4562910000000  0.5638750000000  0.5056730000000 1.0
C      1  0.5078110000000  0.5179550000000  0.5005960000000 1.0
C      1  0.5238740000000  0.4723720000000  0.4887650000000 1.0
C      1  0.5003150000000  0.5675740000000  0.5310280000000 1.0
C      1  0.5226750000000  0.4239500000000  0.5111300000000 1.0
C      1  0.5112370000000  0.4260000000000  0.5394550000000 1.0
C      1  0.5526690000000  0.4934500000000  0.4492990000000 1.0
C      1  0.5202260000000  0.5286510000000  0.4642770000000 1.0
C      1  0.4903860000000  0.5624850000000  0.5044880000000 1.0
C      1  0.5231120000000  0.5253080000000  0.4161600000000 1.0
C      1  0.4456850000000  0.5695190000000  0.4521280000000 1.0
C      1  0.4910390000000  0.4869590000000  0.4404480000000 1.0
C      1  0.5071040000000  0.4734850000000  0.5381070000000 1.0
C      1  0.4354240000000  0.4625770000000  0.4994320000000 1.0
C      1  0.5054060000000  0.5496780000000  0.5819600000000 1.0
C      1  0.5501660000000  0.5192480000000  0.5227480000000 1.0
C      1  0.5173580000000  0.5216820000000  0.5792610000000 1.0
C      1  0.5541710000000  0.4523960000000  0.5324580000000 1.0
C      1  0.5310450000000  0.5014440000000  0.5057160000000 1.0
C      1  0.4420850000000  0.5188930000000  0.5470060000000 1.0
C      1  0.5134310000000  0.5482510000000  0.4897680000000 1.0
C      1  0.5510130000000  0.4298550000000  0.5100090000000 1.0
C      1  0.5210480000000  0.4446280000000  0.4601290000000 1.0
C      1  0.4829120000000  0.4469620000000  0.5019130000000 1.0
C      1  0.5780240000000  0.4660640000000  0.4906610000000 1.0
C      1  0.5090410000000  0.4766000000000  0.5667030000000 1.0
C      1  0.4593910000000  0.4512580000000  0.4881950000000 1.0
C      1  0.5091550000000  0.4412490000000  0.4897410000000 1.0
C      1  0.4338910000000  0.4695250000000  0.5279100000000 1.0
C      1  0.4683210000000  0.5536210000000  0.4378900000000 1.0
C      1  0.5544580000000  0.5546560000000  0.5401060000000 1.0
C      1  0.5286320000000  0.5689290000000  0.4600270000000 1.0
C      1  0.4984030000000  0.5006480000000  0.5771720000000 1.0
C      1  0.4639940000000  0.4917550000000  0.5072790000000 1.0
C      1  0.5571030000000  0.5507170000000  0.5106220000000 1.0
C      1  0.4232680000000  0.4797920000000  0.4798550000000 1.0
C      1  0.4199680000000  0.5213050000000  0.5139640000000 1.0
C      1  0.4418570000000  0.4955140000000  0.4582180000000 1.0
C      1  0.5339580000000  0.4389130000000  0.5545460000000 1.0
C      1  0.4773190000000  0.5323260000000  0.4938410000000 1.0
C      1  0.5060770000000  0.4719860000000  0.4596090000000 1.0
C      1  0.4361530000000  0.5464610000000  0.5272890000000 1.0
C      1  0.5742190000000  0.4739230000000  0.5182410000000 1.0
C      1  0.4672880000000  0.4886450000000  0.5385450000000 1.0
C      1  0.4668910000000  0.5070310000000  0.5673280000000 1.0
C      1  0.5468350000000  0.5144040000000  0.4675470000000 1.0
C      1  0.4880400000000  0.4562530000000  0.5277060000000 1.0
END
