TITL C-2778430-5657-535 0.000591111705857769 125000 -933.511173947204 0 0 160 (C1) n - 1
REM
REM in /home/nfs/bkarasulu/CARBON/AIRSS/Generating-Clusters/REBO/Only-C1/SD-CG/HFTN-CG
REM
REM
REM
REM
REM
REM ./C.cell (11c1c37f851c82e70ff6c80c92926a4b)
REM
REM compiler GCC version 9.2.1 20190827 (Red Hat 9.2.1-1)
REM options -cpp -mtune=generic -march=x86-64 -g -O0 -fpre-include=/usr/include/finclude/math-vector-fortran.h
REM seed 1945582217 86736238 2017868496 -1128696392 -792396013 -1863091536 -852300662 924029378 -1123567490 1769553707 -79652839 -1603508016 482476325 -1047271156 1385350193 1251034102 -1046970455 -1301783685 -753170020 -591465299 585529134 -1783293404 -1809891964 373233470 -2035883236 35624368 1098635968 1701003731 1061968878 1248714043 1279365334 -1515742446 1131052769
REM
CELL 1.54180   50.00000   50.00000   50.00000   90.00000   90.00000   90.00000
LATT -1
SFAC C  
C      1  0.4841200000000  0.4998310000000  0.4003210000000 1.0
C      1  0.5986690000000  0.5027710000000  0.4940980000000 1.0
C      1  0.4361800000000  0.5002650000000  0.5685330000000 1.0
C      1  0.4359460000000  0.4866450000000  0.4994950000000 1.0
C      1  0.5415110000000  0.5152850000000  0.5924790000000 1.0
C      1  0.4904670000000  0.4255520000000  0.4831990000000 1.0
C      1  0.5120780000000  0.5006750000000  0.5602590000000 1.0
C      1  0.4110350000000  0.5472140000000  0.5556420000000 1.0
C      1  0.5419550000000  0.5628010000000  0.4483890000000 1.0
C      1  0.5141180000000  0.4750850000000  0.5126670000000 1.0
C      1  0.4796110000000  0.4850740000000  0.4371640000000 1.0
C      1  0.5177200000000  0.3976880000000  0.5218460000000 1.0
C      1  0.5321970000000  0.5487750000000  0.4122850000000 1.0
C      1  0.4872720000000  0.5900970000000  0.5505270000000 1.0
C      1  0.5339160000000  0.4439950000000  0.5273190000000 1.0
C      1  0.4912390000000  0.4091980000000  0.5401720000000 1.0
C      1  0.5699940000000  0.4350980000000  0.4507170000000 1.0
C      1  0.4165700000000  0.4734280000000  0.4546600000000 1.0
C      1  0.4788020000000  0.3874710000000  0.4866640000000 1.0
C      1  0.4784710000000  0.5452590000000  0.5470270000000 1.0
C      1  0.4524730000000  0.4291870000000  0.5116480000000 1.0
C      1  0.5879590000000  0.4504140000000  0.4636070000000 1.0
C      1  0.3914340000000  0.4672860000000  0.4507360000000 1.0
C      1  0.4944940000000  0.4406720000000  0.4455630000000 1.0
C      1  0.5043510000000  0.5227020000000  0.4962250000000 1.0
C      1  0.4850640000000  0.4620080000000  0.4132180000000 1.0
C      1  0.5084940000000  0.5636620000000  0.4552580000000 1.0
C      1  0.5777580000000  0.4738280000000  0.5621520000000 1.0
C      1  0.5201140000000  0.4594410000000  0.5907170000000 1.0
C      1  0.4565860000000  0.4336700000000  0.5661780000000 1.0
C      1  0.5291530000000  0.5213340000000  0.5443480000000 1.0
C      1  0.4505030000000  0.5390270000000  0.4831110000000 1.0
C      1  0.5269900000000  0.5293630000000  0.4640790000000 1.0
C      1  0.5113920000000  0.5465110000000  0.5479450000000 1.0
C      1  0.5589510000000  0.5551370000000  0.5597910000000 1.0
C      1  0.4482150000000  0.5231960000000  0.5915480000000 1.0
C      1  0.4311090000000  0.5023340000000  0.4511370000000 1.0
C      1  0.5140220000000  0.5219300000000  0.4354610000000 1.0
C      1  0.5112540000000  0.4843660000000  0.3933830000000 1.0
C      1  0.5443010000000  0.3955530000000  0.5122490000000 1.0
C      1  0.4923350000000  0.5024860000000  0.6044600000000 1.0
C      1  0.4711490000000  0.5541630000000  0.4160380000000 1.0
C      1  0.5083340000000  0.4703380000000  0.4462840000000 1.0
C      1  0.4290410000000  0.5700960000000  0.5522300000000 1.0
C      1  0.5004900000000  0.3879000000000  0.4736860000000 1.0
C      1  0.5144020000000  0.4872470000000  0.5894320000000 1.0
C      1  0.6018260000000  0.4492770000000  0.5101140000000 1.0
C      1  0.5014920000000  0.5889820000000  0.4781870000000 1.0
C      1  0.5807960000000  0.4785220000000  0.4683080000000 1.0
C      1  0.4123230000000  0.3854480000000  0.4341810000000 1.0
C      1  0.4139930000000  0.4535580000000  0.5545420000000 1.0
C      1  0.5009980000000  0.4806730000000  0.5421030000000 1.0
C      1  0.5705960000000  0.4471160000000  0.5557180000000 1.0
C      1  0.5133420000000  0.4543620000000  0.4100180000000 1.0
C      1  0.5810230000000  0.5090520000000  0.5413980000000 1.0
C      1  0.4833760000000  0.5702040000000  0.5778380000000 1.0
C      1  0.5488910000000  0.3912200000000  0.4397290000000 1.0
C      1  0.5424570000000  0.4168690000000  0.4531310000000 1.0
C      1  0.4304860000000  0.4006900000000  0.4453430000000 1.0
C      1  0.4408770000000  0.4539790000000  0.4642820000000 1.0
C      1  0.4782390000000  0.6013310000000  0.5002420000000 1.0
C      1  0.4038510000000  0.5417490000000  0.4685390000000 1.0
C      1  0.4953650000000  0.6103050000000  0.5249360000000 1.0
C      1  0.5197420000000  0.4251120000000  0.5508860000000 1.0
C      1  0.5099010000000  0.4153360000000  0.4601870000000 1.0
C      1  0.4861590000000  0.4593690000000  0.5588870000000 1.0
C      1  0.5259110000000  0.4368400000000  0.4305350000000 1.0
C      1  0.4635810000000  0.4414130000000  0.4422210000000 1.0
C      1  0.5583190000000  0.4921660000000  0.4513680000000 1.0
C      1  0.4347250000000  0.4939300000000  0.5291150000000 1.0
C      1  0.5815210000000  0.5396390000000  0.5392330000000 1.0
C      1  0.4327990000000  0.4434730000000  0.5766270000000 1.0
C      1  0.4787690000000  0.5202200000000  0.5160640000000 1.0
C      1  0.4817510000000  0.5166940000000  0.4723060000000 1.0
C      1  0.4422040000000  0.5732460000000  0.4642750000000 1.0
C      1  0.5246860000000  0.5467910000000  0.4899400000000 1.0
C      1  0.5535420000000  0.4216620000000  0.5536800000000 1.0
C      1  0.5620780000000  0.4885460000000  0.5284710000000 1.0
C      1  0.4695330000000  0.5712330000000  0.4592990000000 1.0
C      1  0.5803780000000  0.4339340000000  0.5257870000000 1.0
C      1  0.4976980000000  0.4541610000000  0.4981550000000 1.0
C      1  0.4736960000000  0.4735140000000  0.4988500000000 1.0
C      1  0.5326780000000  0.4810020000000  0.4654780000000 1.0
C      1  0.4467150000000  0.4556960000000  0.4946350000000 1.0
C      1  0.5643310000000  0.4039850000000  0.5316360000000 1.0
C      1  0.5395190000000  0.4731420000000  0.5346950000000 1.0
C      1  0.5529800000000  0.4342170000000  0.5081770000000 1.0
C      1  0.4548140000000  0.4906910000000  0.4064860000000 1.0
C      1  0.5118490000000  0.5555090000000  0.5792660000000 1.0
C      1  0.4076330000000  0.5549080000000  0.4995590000000 1.0
C      1  0.4590070000000  0.5187740000000  0.5535480000000 1.0
C      1  0.4578440000000  0.4808970000000  0.5410990000000 1.0
C      1  0.5330870000000  0.5927890000000  0.4398450000000 1.0
C      1  0.4572390000000  0.4111240000000  0.5404650000000 1.0
C      1  0.4585980000000  0.5487070000000  0.5879330000000 1.0
C      1  0.4343310000000  0.5742150000000  0.4930730000000 1.0
C      1  0.5425910000000  0.4882420000000  0.4052550000000 1.0
C      1  0.5067220000000  0.5722480000000  0.5294540000000 1.0
C      1  0.5156710000000  0.6057830000000  0.4529510000000 1.0
C      1  0.4858770000000  0.5756380000000  0.4328100000000 1.0
C      1  0.5395530000000  0.5672690000000  0.5783420000000 1.0
C      1  0.5019610000000  0.4249640000000  0.5128810000000 1.0
C      1  0.4659990000000  0.4995520000000  0.5955150000000 1.0
C      1  0.5390080000000  0.5184610000000  0.5155410000000 1.0
C      1  0.5918980000000  0.5325350000000  0.5073110000000 1.0
C      1  0.5329000000000  0.5889530000000  0.5274180000000 1.0
C      1  0.4989020000000  0.5632030000000  0.5003230000000 1.0
C      1  0.4887810000000  0.5218560000000  0.5696800000000 1.0
C      1  0.4556170000000  0.4804350000000  0.4538200000000 1.0
C      1  0.4793880000000  0.4919150000000  0.5227390000000 1.0
C      1  0.4501480000000  0.5729820000000  0.5698930000000 1.0
C      1  0.5558140000000  0.5231480000000  0.4578190000000 1.0
C      1  0.5992360000000  0.4848220000000  0.5426100000000 1.0
C      1  0.5368400000000  0.4912930000000  0.4977140000000 1.0
C      1  0.4606210000000  0.4136790000000  0.4847150000000 1.0
C      1  0.5529120000000  0.5242980000000  0.5637260000000 1.0
C      1  0.5166230000000  0.4938620000000  0.4252900000000 1.0
C      1  0.5826560000000  0.5153940000000  0.4298430000000 1.0
C      1  0.4198290000000  0.5229320000000  0.5395060000000 1.0
C      1  0.4267790000000  0.5560120000000  0.4475010000000 1.0
C      1  0.4416190000000  0.5134020000000  0.4246290000000 1.0
C      1  0.4440430000000  0.5447540000000  0.4259060000000 1.0
C      1  0.5196200000000  0.6064100000000  0.5014160000000 1.0
C      1  0.3965340000000  0.5044490000000  0.5253090000000 1.0
C      1  0.4830500000000  0.5407100000000  0.4517140000000 1.0
C      1  0.6055590000000  0.4405990000000  0.4833770000000 1.0
C      1  0.5853710000000  0.5639770000000  0.5154320000000 1.0
C      1  0.4488860000000  0.4161310000000  0.4566510000000 1.0
C      1  0.4614140000000  0.4774670000000  0.5737260000000 1.0
C      1  0.4587430000000  0.5830710000000  0.5097610000000 1.0
C      1  0.6052020000000  0.4770220000000  0.5155580000000 1.0
C      1  0.4485430000000  0.5311110000000  0.5247720000000 1.0
C      1  0.5514870000000  0.5981610000000  0.5010290000000 1.0
C      1  0.4536930000000  0.4621270000000  0.4172340000000 1.0
C      1  0.5698520000000  0.5790000000000  0.4924260000000 1.0
C      1  0.5122850000000  0.5268100000000  0.5941790000000 1.0
C      1  0.5616700000000  0.4935260000000  0.5757640000000 1.0
C      1  0.4608530000000  0.4968270000000  0.4796780000000 1.0
C      1  0.4726740000000  0.5465170000000  0.4972980000000 1.0
C      1  0.4753250000000  0.5166500000000  0.4288170000000 1.0
C      1  0.5789240000000  0.5332840000000  0.4778070000000 1.0
C      1  0.4310650000000  0.5573780000000  0.5226040000000 1.0
C      1  0.5022300000000  0.5433150000000  0.4163140000000 1.0
C      1  0.5659380000000  0.4909440000000  0.4200190000000 1.0
C      1  0.4063160000000  0.4932660000000  0.4955250000000 1.0
C      1  0.3953710000000  0.5241910000000  0.4969770000000 1.0
C      1  0.4307850000000  0.5244640000000  0.4714760000000 1.0
C      1  0.5075640000000  0.4436030000000  0.5722440000000 1.0
C      1  0.5103340000000  0.5022950000000  0.4700840000000 1.0
C      1  0.4670520000000  0.5704670000000  0.5338360000000 1.0
C      1  0.5480520000000  0.4127660000000  0.4864730000000 1.0
C      1  0.4111430000000  0.4856460000000  0.5503200000000 1.0
C      1  0.5933720000000  0.5089260000000  0.4604500000000 1.0
C      1  0.5555920000000  0.5683700000000  0.5304020000000 1.0
C      1  0.4627660000000  0.4497570000000  0.5367980000000 1.0
C      1  0.5700840000000  0.4849420000000  0.4982160000000 1.0
C      1  0.4270680000000  0.4283090000000  0.5401700000000 1.0
C      1  0.5594640000000  0.5403960000000  0.4294570000000 1.0
C      1  0.5503130000000  0.5463720000000  0.5077150000000 1.0
C      1  0.5640260000000  0.5607800000000  0.4714460000000 1.0
END
