TITL C-2778435-5768-989 0.00592628194527907 125000 -619.091096115131 0 0 108 (C1) n - 1
REM
REM in /home/nfs/bkarasulu/CARBON/AIRSS/Generating-Clusters/REBO/Only-C1/SD-CG/HFTN-CG
REM
REM
REM
REM
REM
REM ./C.cell (11c1c37f851c82e70ff6c80c92926a4b)
REM
REM compiler GCC version 9.2.1 20190827 (Red Hat 9.2.1-1)
REM options -cpp -mtune=generic -march=x86-64 -g -O0 -fpre-include=/usr/include/finclude/math-vector-fortran.h
REM seed -787673410 -1475502522 1030624254 -1382383772 -1937073621 520224974 331446519 2127085648 -539414869 1798564444 1901186945 -692590244 1488602713 156526830 -2015363310 -192585887 -843543568 -1003176636 364503825 -48717891 -1189610280 -336718634 1946688024 -256268107 8292902 2060971851 -973489949 -1991736812 -740246516 487483820 97272237 793409124 -1359610217
REM
CELL 1.54180   50.00000   50.00000   50.00000   90.00000   90.00000   90.00000
LATT -1
SFAC C  
C      1  0.4106340000000  0.4701010000000  0.5306740000000 1.0
C      1  0.5035330000000  0.5437570000000  0.5288160000000 1.0
C      1  0.5214860000000  0.4887350000000  0.5409450000000 1.0
C      1  0.4692940000000  0.5212480000000  0.5963830000000 1.0
C      1  0.4972460000000  0.5470430000000  0.4954720000000 1.0
C      1  0.4894290000000  0.5931100000000  0.5170890000000 1.0
C      1  0.5175470000000  0.4583600000000  0.4282780000000 1.0
C      1  0.5860070000000  0.4803910000000  0.5119710000000 1.0
C      1  0.4859310000000  0.4115420000000  0.4764900000000 1.0
C      1  0.4774780000000  0.4648030000000  0.5954450000000 1.0
C      1  0.5125830000000  0.4543130000000  0.4616310000000 1.0
C      1  0.4460100000000  0.3994950000000  0.5073930000000 1.0
C      1  0.5549220000000  0.5011170000000  0.4960980000000 1.0
C      1  0.4765890000000  0.5307510000000  0.4734910000000 1.0
C      1  0.5161620000000  0.4387310000000  0.5560590000000 1.0
C      1  0.5331330000000  0.4229890000000  0.4975630000000 1.0
C      1  0.5249250000000  0.5469000000000  0.4818920000000 1.0
C      1  0.4709130000000  0.5444250000000  0.5514510000000 1.0
C      1  0.4919320000000  0.4426890000000  0.5806480000000 1.0
C      1  0.4635750000000  0.4806850000000  0.5314300000000 1.0
C      1  0.5596720000000  0.4975670000000  0.4658990000000 1.0
C      1  0.5072100000000  0.4935830000000  0.5152830000000 1.0
C      1  0.5311940000000  0.5148750000000  0.5712640000000 1.0
C      1  0.5824980000000  0.5201620000000  0.4551620000000 1.0
C      1  0.5252530000000  0.5177450000000  0.4667030000000 1.0
C      1  0.4789210000000  0.5656280000000  0.5266280000000 1.0
C      1  0.5295940000000  0.5580600000000  0.5455060000000 1.0
C      1  0.4744410000000  0.4010470000000  0.5475690000000 1.0
C      1  0.4833050000000  0.4401080000000  0.5042660000000 1.0
C      1  0.5440040000000  0.4601480000000  0.4202080000000 1.0
C      1  0.4257600000000  0.4336530000000  0.5026140000000 1.0
C      1  0.5358350000000  0.4511390000000  0.5108660000000 1.0
C      1  0.5101280000000  0.4681430000000  0.5726040000000 1.0
C      1  0.4360810000000  0.4134520000000  0.4804910000000 1.0
C      1  0.5304180000000  0.4867730000000  0.4531340000000 1.0
C      1  0.5334640000000  0.6082530000000  0.5032470000000 1.0
C      1  0.5734230000000  0.4914230000000  0.5357340000000 1.0
C      1  0.4591540000000  0.5541170000000  0.5050940000000 1.0
C      1  0.4456870000000  0.5712020000000  0.4719050000000 1.0
C      1  0.5568400000000  0.4732930000000  0.5509580000000 1.0
C      1  0.4769180000000  0.4325400000000  0.5539870000000 1.0
C      1  0.4897110000000  0.4491470000000  0.4292870000000 1.0
C      1  0.5172310000000  0.5322660000000  0.5879810000000 1.0
C      1  0.4735350000000  0.4963740000000  0.4520210000000 1.0
C      1  0.4718940000000  0.4887640000000  0.4822170000000 1.0
C      1  0.4865420000000  0.4232160000000  0.4443270000000 1.0
C      1  0.4649300000000  0.4926820000000  0.5840760000000 1.0
C      1  0.4629080000000  0.5450890000000  0.4272880000000 1.0
C      1  0.4149440000000  0.4596610000000  0.5048380000000 1.0
C      1  0.4769260000000  0.4977940000000  0.5129620000000 1.0
C      1  0.5529520000000  0.5905910000000  0.5055720000000 1.0
C      1  0.5481160000000  0.5572390000000  0.5041410000000 1.0
C      1  0.4485930000000  0.4534270000000  0.4507810000000 1.0
C      1  0.5631990000000  0.4719180000000  0.4359510000000 1.0
C      1  0.4439070000000  0.5256850000000  0.4650230000000 1.0
C      1  0.5733020000000  0.5202290000000  0.5384490000000 1.0
C      1  0.4367320000000  0.4883900000000  0.5725340000000 1.0
C      1  0.5337000000000  0.5212480000000  0.4337760000000 1.0
C      1  0.4414900000000  0.4990530000000  0.4946060000000 1.0
C      1  0.5630190000000  0.5526250000000  0.5416360000000 1.0
C      1  0.4408480000000  0.5401720000000  0.5457520000000 1.0
C      1  0.5233230000000  0.5462820000000  0.4233470000000 1.0
C      1  0.5423820000000  0.4500150000000  0.5408950000000 1.0
C      1  0.5902740000000  0.4688570000000  0.4872250000000 1.0
C      1  0.4930420000000  0.5773440000000  0.4540910000000 1.0
C      1  0.4936560000000  0.5548320000000  0.4334060000000 1.0
C      1  0.5723600000000  0.5497490000000  0.4646950000000 1.0
C      1  0.4195430000000  0.4802200000000  0.5539200000000 1.0
C      1  0.5345910000000  0.5257920000000  0.5464900000000 1.0
C      1  0.4256310000000  0.5288240000000  0.4912230000000 1.0
C      1  0.4564700000000  0.4297160000000  0.5107490000000 1.0
C      1  0.5061010000000  0.6048130000000  0.4970540000000 1.0
C      1  0.5142400000000  0.5610610000000  0.5740870000000 1.0
C      1  0.5394670000000  0.5308540000000  0.5175580000000 1.0
C      1  0.4706560000000  0.4670720000000  0.4383560000000 1.0
C      1  0.5478730000000  0.5624650000000  0.4646170000000 1.0
C      1  0.5002320000000  0.6004440000000  0.4695090000000 1.0
C      1  0.5419750000000  0.4388210000000  0.4701800000000 1.0
C      1  0.4575790000000  0.4243410000000  0.4623030000000 1.0
C      1  0.5512060000000  0.4698890000000  0.4934240000000 1.0
C      1  0.4597950000000  0.5171220000000  0.4208990000000 1.0
C      1  0.4839510000000  0.4614550000000  0.5431130000000 1.0
C      1  0.4824520000000  0.5030830000000  0.4136210000000 1.0
C      1  0.4768690000000  0.5699870000000  0.4807020000000 1.0
C      1  0.4875700000000  0.4897680000000  0.5619380000000 1.0
C      1  0.4860850000000  0.5425080000000  0.5795450000000 1.0
C      1  0.5061680000000  0.4606330000000  0.5173180000000 1.0
C      1  0.5006330000000  0.4164190000000  0.5354310000000 1.0
C      1  0.5047170000000  0.4147260000000  0.5042010000000 1.0
C      1  0.4634550000000  0.5236680000000  0.5019290000000 1.0
C      1  0.4233140000000  0.4773570000000  0.4846020000000 1.0
C      1  0.4915760000000  0.5175290000000  0.5470510000000 1.0
C      1  0.5152910000000  0.4196700000000  0.4619550000000 1.0
C      1  0.5664790000000  0.4584440000000  0.4652100000000 1.0
C      1  0.4263650000000  0.5453620000000  0.5262610000000 1.0
C      1  0.4450150000000  0.5528550000000  0.4486470000000 1.0
C      1  0.4909060000000  0.5241420000000  0.4465180000000 1.0
C      1  0.4297880000000  0.4739190000000  0.4571490000000 1.0
C      1  0.5764610000000  0.5710830000000  0.5174540000000 1.0
C      1  0.5246130000000  0.5109300000000  0.4991570000000 1.0
C      1  0.5363340000000  0.4850490000000  0.5718080000000 1.0
C      1  0.5766410000000  0.5257140000000  0.4884740000000 1.0
C      1  0.5622740000000  0.5053440000000  0.4334000000000 1.0
C      1  0.5832270000000  0.5384180000000  0.5142070000000 1.0
C      1  0.4893260000000  0.4620040000000  0.4810880000000 1.0
C      1  0.5085790000000  0.4994060000000  0.4323150000000 1.0
C      1  0.4271650000000  0.5612860000000  0.4972170000000 1.0
C      1  0.4407400000000  0.5010650000000  0.4440990000000 1.0
END
