TITL C-2778424-3986-543 0.00349722236032336 125000 -613.133218575951 0 0 105 (C1) n - 1
REM
REM in /home/nfs/bkarasulu/CARBON/AIRSS/Generating-Clusters/REBO/Only-C1/SD-CG/HFTN-CG
REM
REM
REM
REM
REM
REM ./C.cell (11c1c37f851c82e70ff6c80c92926a4b)
REM
REM compiler GCC version 9.2.1 20190827 (Red Hat 9.2.1-1)
REM options -cpp -mtune=generic -march=x86-64 -g -O0 -fpre-include=/usr/include/finclude/math-vector-fortran.h
REM seed -700392528 -1628652009 1883462147 2123259658 141227789 -120447759 1126596150 65477000 89818301 -1657958154 -1423890562 -1770737410 -239397797 1902371756 -1454222085 1253744225 -1758105853 -206378371 -1651195483 1192268183 393901080 -1056474318 571576741 1020934372 663484515 -927367413 -781047785 798714134 209657441 2067145352 572583182 -20457785 1209163622
REM
CELL 1.54180   50.00000   50.00000   50.00000   90.00000   90.00000   90.00000
LATT -1
SFAC C  
C      1  0.4774020000000  0.5435110000000  0.5879650000000 1.0
C      1  0.5203780000000  0.5441940000000  0.4450900000000 1.0
C      1  0.4909140000000  0.4390100000000  0.4981610000000 1.0
C      1  0.5733200000000  0.5463250000000  0.4739480000000 1.0
C      1  0.5249630000000  0.5613650000000  0.5113580000000 1.0
C      1  0.5224480000000  0.4859070000000  0.4919890000000 1.0
C      1  0.4632370000000  0.4202560000000  0.4913000000000 1.0
C      1  0.5661410000000  0.4702960000000  0.5582180000000 1.0
C      1  0.5557220000000  0.4463170000000  0.5172250000000 1.0
C      1  0.4322840000000  0.5666520000000  0.4580260000000 1.0
C      1  0.4807980000000  0.5493520000000  0.4459310000000 1.0
C      1  0.5338020000000  0.4280930000000  0.5167780000000 1.0
C      1  0.5564200000000  0.5038320000000  0.4487320000000 1.0
C      1  0.4442460000000  0.5485070000000  0.5122440000000 1.0
C      1  0.5176480000000  0.5328440000000  0.4736090000000 1.0
C      1  0.4264040000000  0.5656110000000  0.4891690000000 1.0
C      1  0.4396410000000  0.4612690000000  0.5404130000000 1.0
C      1  0.4258460000000  0.4718800000000  0.4688880000000 1.0
C      1  0.5066640000000  0.5667460000000  0.5589910000000 1.0
C      1  0.4117580000000  0.4820160000000  0.4937460000000 1.0
C      1  0.4671050000000  0.5491740000000  0.5568160000000 1.0
C      1  0.4747740000000  0.5417110000000  0.5042270000000 1.0
C      1  0.4461140000000  0.5349450000000  0.5396930000000 1.0
C      1  0.5098130000000  0.4743960000000  0.4311140000000 1.0
C      1  0.5300740000000  0.5742910000000  0.4568550000000 1.0
C      1  0.5025350000000  0.4173470000000  0.4414390000000 1.0
C      1  0.4737290000000  0.4222170000000  0.5767490000000 1.0
C      1  0.6186820000000  0.5150410000000  0.4963750000000 1.0
C      1  0.4445710000000  0.5000300000000  0.5077110000000 1.0
C      1  0.5193680000000  0.4241390000000  0.4924000000000 1.0
C      1  0.4949200000000  0.5216120000000  0.5895900000000 1.0
C      1  0.4666660000000  0.4485700000000  0.5339100000000 1.0
C      1  0.4554000000000  0.5295850000000  0.4572600000000 1.0
C      1  0.5341990000000  0.4885800000000  0.4192270000000 1.0
C      1  0.5567970000000  0.4714350000000  0.4380470000000 1.0
C      1  0.4960880000000  0.4458320000000  0.4683310000000 1.0
C      1  0.4909700000000  0.5009150000000  0.5677860000000 1.0
C      1  0.4948700000000  0.5401890000000  0.5415420000000 1.0
C      1  0.5553100000000  0.5167230000000  0.5732640000000 1.0
C      1  0.4060560000000  0.5362170000000  0.4425970000000 1.0
C      1  0.4905350000000  0.4060940000000  0.5351900000000 1.0
C      1  0.4670400000000  0.4869520000000  0.5697640000000 1.0
C      1  0.5287800000000  0.5168140000000  0.4174310000000 1.0
C      1  0.5450300000000  0.4409140000000  0.4494660000000 1.0
C      1  0.5170200000000  0.4244030000000  0.5426340000000 1.0
C      1  0.4077480000000  0.5099700000000  0.4957810000000 1.0
C      1  0.4863570000000  0.4123040000000  0.4689480000000 1.0
C      1  0.5410960000000  0.5195300000000  0.4816840000000 1.0
C      1  0.5273590000000  0.4889970000000  0.4584590000000 1.0
C      1  0.4515920000000  0.5853200000000  0.4984860000000 1.0
C      1  0.4796380000000  0.4661030000000  0.5097440000000 1.0
C      1  0.5254220000000  0.4190790000000  0.4640480000000 1.0
C      1  0.5258240000000  0.5080230000000  0.5856380000000 1.0
C      1  0.5865610000000  0.4787610000000  0.4915200000000 1.0
C      1  0.4274200000000  0.5217460000000  0.4464910000000 1.0
C      1  0.4900150000000  0.5700950000000  0.5819760000000 1.0
C      1  0.5618180000000  0.4453550000000  0.5715880000000 1.0
C      1  0.5186730000000  0.4575350000000  0.4561590000000 1.0
C      1  0.5960960000000  0.5044390000000  0.4857310000000 1.0
C      1  0.4484480000000  0.4682250000000  0.5015620000000 1.0
C      1  0.5497830000000  0.5419880000000  0.5516050000000 1.0
C      1  0.4773970000000  0.4995230000000  0.4713090000000 1.0
C      1  0.4881090000000  0.4399430000000  0.5562510000000 1.0
C      1  0.5720030000000  0.4956040000000  0.5693820000000 1.0
C      1  0.4597910000000  0.4897540000000  0.4215760000000 1.0
C      1  0.5203630000000  0.5291960000000  0.5598060000000 1.0
C      1  0.4456390000000  0.4452090000000  0.4774620000000 1.0
C      1  0.4583210000000  0.5199240000000  0.4880830000000 1.0
C      1  0.4990100000000  0.5289280000000  0.4259770000000 1.0
C      1  0.5103990000000  0.5034680000000  0.5411580000000 1.0
C      1  0.4766580000000  0.5103110000000  0.4390070000000 1.0
C      1  0.4168980000000  0.5346690000000  0.4977750000000 1.0
C      1  0.5787530000000  0.5185670000000  0.4685130000000 1.0
C      1  0.5735100000000  0.5544390000000  0.5014100000000 1.0
C      1  0.5136910000000  0.4531810000000  0.5701310000000 1.0
C      1  0.4589920000000  0.5720820000000  0.4531900000000 1.0
C      1  0.4907740000000  0.5156500000000  0.5182810000000 1.0
C      1  0.4576500000000  0.4786770000000  0.4597370000000 1.0
C      1  0.5569870000000  0.5572610000000  0.4534360000000 1.0
C      1  0.4699900000000  0.5869840000000  0.4768760000000 1.0
C      1  0.5338120000000  0.5674550000000  0.5619920000000 1.0
C      1  0.5765330000000  0.4483270000000  0.4976890000000 1.0
C      1  0.5504670000000  0.5446370000000  0.5215030000000 1.0
C      1  0.4324610000000  0.4915440000000  0.4417440000000 1.0
C      1  0.4194820000000  0.4646850000000  0.5180600000000 1.0
C      1  0.4918040000000  0.4455730000000  0.4286930000000 1.0
C      1  0.4687380000000  0.4505530000000  0.4532050000000 1.0
C      1  0.4680710000000  0.4187090000000  0.5236570000000 1.0
C      1  0.5526640000000  0.4703910000000  0.5332160000000 1.0
C      1  0.5044690000000  0.5453510000000  0.4953770000000 1.0
C      1  0.5505710000000  0.5333110000000  0.4335280000000 1.0
C      1  0.4718530000000  0.4665720000000  0.4129380000000 1.0
C      1  0.4619510000000  0.5793750000000  0.5500900000000 1.0
C      1  0.5678940000000  0.4551420000000  0.4658750000000 1.0
C      1  0.4970260000000  0.5724100000000  0.4651830000000 1.0
C      1  0.4927490000000  0.4913720000000  0.4979380000000 1.0
C      1  0.5473600000000  0.5166880000000  0.5080340000000 1.0
C      1  0.5534100000000  0.4781240000000  0.4865150000000 1.0
C      1  0.4559760000000  0.5894810000000  0.5257040000000 1.0
C      1  0.4443530000000  0.4859610000000  0.5535190000000 1.0
C      1  0.5362790000000  0.4338790000000  0.5677260000000 1.0
C      1  0.4415270000000  0.5076660000000  0.5352730000000 1.0
C      1  0.5341020000000  0.4921940000000  0.5233450000000 1.0
C      1  0.5198820000000  0.4770610000000  0.5813760000000 1.0
C      1  0.5213010000000  0.5805880000000  0.4878420000000 1.0
END
