TITL C-2778430-5657-1327 0.000979829477560141 125000 -1016.93899529963 0 0 174 (C1) n - 1
REM
REM in /home/nfs/bkarasulu/CARBON/AIRSS/Generating-Clusters/REBO/Only-C1/SD-CG/HFTN-CG
REM
REM
REM
REM
REM
REM ./C.cell (11c1c37f851c82e70ff6c80c92926a4b)
REM
REM compiler GCC version 9.2.1 20190827 (Red Hat 9.2.1-1)
REM options -cpp -mtune=generic -march=x86-64 -g -O0 -fpre-include=/usr/include/finclude/math-vector-fortran.h
REM seed 945659817 -517719551 -738006628 1628783028 1735350307 -802960085 967853368 285974968 927208422 561101222 1125980351 -164810261 1553211690 628369543 -117546737 -2017010632 -615656802 -1540713262 1754846268 -758584682 928422549 -1336959321 -1778384251 -1214937921 -671979827 -1086906711 403872520 921712292 -1728008702 423914787 -1465416704 -1851688368 2031860567
REM
CELL 1.54180   50.00000   50.00000   50.00000   90.00000   90.00000   90.00000
LATT -1
SFAC C  
C      1  0.5877370000000  0.5541570000000  0.4648920000000 1.0
C      1  0.5193240000000  0.5626390000000  0.5522430000000 1.0
C      1  0.4721030000000  0.5015780000000  0.5371980000000 1.0
C      1  0.5942650000000  0.5239700000000  0.4564140000000 1.0
C      1  0.4692670000000  0.5553580000000  0.5710480000000 1.0
C      1  0.4699390000000  0.5793520000000  0.4379510000000 1.0
C      1  0.5343750000000  0.3988150000000  0.4774290000000 1.0
C      1  0.4198340000000  0.5541280000000  0.4910310000000 1.0
C      1  0.4796200000000  0.5475460000000  0.5459720000000 1.0
C      1  0.4024900000000  0.5324990000000  0.4818630000000 1.0
C      1  0.5556940000000  0.4734620000000  0.5731580000000 1.0
C      1  0.4970520000000  0.5959470000000  0.5521250000000 1.0
C      1  0.5735080000000  0.5030330000000  0.5072900000000 1.0
C      1  0.3943600000000  0.4737570000000  0.5363280000000 1.0
C      1  0.4477980000000  0.4845720000000  0.4010600000000 1.0
C      1  0.5162060000000  0.4891400000000  0.5314160000000 1.0
C      1  0.4370420000000  0.4387370000000  0.4346290000000 1.0
C      1  0.4523960000000  0.4674590000000  0.5431830000000 1.0
C      1  0.4920380000000  0.5063950000000  0.6007330000000 1.0
C      1  0.5259670000000  0.4427170000000  0.4421710000000 1.0
C      1  0.4898250000000  0.5601060000000  0.5930160000000 1.0
C      1  0.4653790000000  0.4230680000000  0.4578650000000 1.0
C      1  0.4806970000000  0.4703240000000  0.4625440000000 1.0
C      1  0.4587280000000  0.4445520000000  0.4837080000000 1.0
C      1  0.4530840000000  0.5614610000000  0.4154450000000 1.0
C      1  0.4681290000000  0.5441800000000  0.4810470000000 1.0
C      1  0.4956030000000  0.5479520000000  0.4965560000000 1.0
C      1  0.5214170000000  0.5929600000000  0.4373280000000 1.0
C      1  0.4038120000000  0.4877270000000  0.4677440000000 1.0
C      1  0.4820290000000  0.4497370000000  0.5035950000000 1.0
C      1  0.5181850000000  0.5368820000000  0.4773430000000 1.0
C      1  0.5708220000000  0.5316480000000  0.5742270000000 1.0
C      1  0.5259760000000  0.4627950000000  0.5603260000000 1.0
C      1  0.5077400000000  0.4318950000000  0.5420560000000 1.0
C      1  0.4415020000000  0.4974970000000  0.5309260000000 1.0
C      1  0.4924390000000  0.5030390000000  0.4432370000000 1.0
C      1  0.5799680000000  0.4545360000000  0.4478470000000 1.0
C      1  0.3998270000000  0.5223540000000  0.5302110000000 1.0
C      1  0.4411410000000  0.4209730000000  0.5106950000000 1.0
C      1  0.3960430000000  0.4788890000000  0.5071900000000 1.0
C      1  0.4940400000000  0.5833250000000  0.4779770000000 1.0
C      1  0.5420510000000  0.4429290000000  0.4891320000000 1.0
C      1  0.5452440000000  0.4696130000000  0.5347500000000 1.0
C      1  0.4107590000000  0.4856010000000  0.4393750000000 1.0
C      1  0.4505060000000  0.4903390000000  0.5686950000000 1.0
C      1  0.5009960000000  0.5582840000000  0.4584790000000 1.0
C      1  0.4363800000000  0.4688550000000  0.4390090000000 1.0
C      1  0.5474490000000  0.4040690000000  0.5013320000000 1.0
C      1  0.5008800000000  0.5778670000000  0.4236660000000 1.0
C      1  0.4624370000000  0.5498100000000  0.4524670000000 1.0
C      1  0.5046750000000  0.4779100000000  0.6059120000000 1.0
C      1  0.4373650000000  0.5086860000000  0.5041710000000 1.0
C      1  0.5157330000000  0.4337800000000  0.4724090000000 1.0
C      1  0.4683860000000  0.5892200000000  0.4927350000000 1.0
C      1  0.5031360000000  0.5170720000000  0.5567460000000 1.0
C      1  0.4792880000000  0.5987160000000  0.5235300000000 1.0
C      1  0.4645380000000  0.5357670000000  0.4135290000000 1.0
C      1  0.5390300000000  0.4117500000000  0.4490120000000 1.0
C      1  0.4724920000000  0.5463050000000  0.5202730000000 1.0
C      1  0.4272530000000  0.5747410000000  0.4722940000000 1.0
C      1  0.5648370000000  0.4639610000000  0.4255720000000 1.0
C      1  0.5111890000000  0.5520010000000  0.4043740000000 1.0
C      1  0.5322620000000  0.5660300000000  0.4688070000000 1.0
C      1  0.4669800000000  0.3999200000000  0.5037750000000 1.0
C      1  0.4783450000000  0.5052580000000  0.5703490000000 1.0
C      1  0.5574770000000  0.5478760000000  0.5131220000000 1.0
C      1  0.5002800000000  0.4346660000000  0.4211030000000 1.0
C      1  0.5725960000000  0.5175680000000  0.4306970000000 1.0
C      1  0.4249670000000  0.4441950000000  0.5686070000000 1.0
C      1  0.5067840000000  0.4299630000000  0.5021430000000 1.0
C      1  0.5159010000000  0.3767600000000  0.5180060000000 1.0
C      1  0.4248550000000  0.4239630000000  0.4550200000000 1.0
C      1  0.5542710000000  0.5427010000000  0.4314300000000 1.0
C      1  0.4047190000000  0.4519790000000  0.5516460000000 1.0
C      1  0.4250150000000  0.5077350000000  0.5575660000000 1.0
C      1  0.5055230000000  0.3961120000000  0.4636420000000 1.0
C      1  0.4772750000000  0.4454880000000  0.5348880000000 1.0
C      1  0.5315090000000  0.4435710000000  0.5211060000000 1.0
C      1  0.5406370000000  0.5305840000000  0.5900930000000 1.0
C      1  0.5049640000000  0.3979440000000  0.5420920000000 1.0
C      1  0.5395770000000  0.5003520000000  0.5069670000000 1.0
C      1  0.4892000000000  0.5400830000000  0.4351190000000 1.0
C      1  0.5232790000000  0.5356530000000  0.4311390000000 1.0
C      1  0.5084540000000  0.5329880000000  0.6016600000000 1.0
C      1  0.4644070000000  0.4842910000000  0.4371630000000 1.0
C      1  0.4960450000000  0.5846160000000  0.5761470000000 1.0
C      1  0.5814410000000  0.5683150000000  0.5182170000000 1.0
C      1  0.5154420000000  0.6042440000000  0.4650990000000 1.0
C      1  0.5530000000000  0.5020030000000  0.5765660000000 1.0
C      1  0.4633440000000  0.5104240000000  0.4005760000000 1.0
C      1  0.4815010000000  0.4073900000000  0.5619920000000 1.0
C      1  0.5637380000000  0.5119740000000  0.4619890000000 1.0
C      1  0.5978130000000  0.4466140000000  0.5122260000000 1.0
C      1  0.5347490000000  0.5105520000000  0.5518930000000 1.0
C      1  0.4138100000000  0.5122260000000  0.4298820000000 1.0
C      1  0.4230420000000  0.5348970000000  0.5750080000000 1.0
C      1  0.6114460000000  0.5435140000000  0.5091870000000 1.0
C      1  0.5915790000000  0.5274140000000  0.5091380000000 1.0
C      1  0.4650210000000  0.4147500000000  0.5345450000000 1.0
C      1  0.5122800000000  0.6062520000000  0.5234870000000 1.0
C      1  0.4620990000000  0.5103480000000  0.4567350000000 1.0
C      1  0.4144420000000  0.5433520000000  0.5428980000000 1.0
C      1  0.4056430000000  0.4563080000000  0.4923670000000 1.0
C      1  0.4900850000000  0.5005650000000  0.3937820000000 1.0
C      1  0.5070520000000  0.4848470000000  0.4651480000000 1.0
C      1  0.4437820000000  0.5410080000000  0.5040880000000 1.0
C      1  0.5110240000000  0.4068680000000  0.4338570000000 1.0
C      1  0.5955540000000  0.4478520000000  0.4839330000000 1.0
C      1  0.4617970000000  0.5049730000000  0.6066840000000 1.0
C      1  0.4402110000000  0.4803460000000  0.5991940000000 1.0
C      1  0.5669600000000  0.5975060000000  0.5276980000000 1.0
C      1  0.4264730000000  0.4892290000000  0.4835460000000 1.0
C      1  0.4916460000000  0.4723770000000  0.3970080000000 1.0
C      1  0.5753930000000  0.5513480000000  0.5482760000000 1.0
C      1  0.5571910000000  0.5251920000000  0.5359480000000 1.0
C      1  0.4327730000000  0.5137900000000  0.5962250000000 1.0
C      1  0.4788560000000  0.3998240000000  0.4735910000000 1.0
C      1  0.5924370000000  0.5075500000000  0.5736540000000 1.0
C      1  0.4478190000000  0.4721210000000  0.4710500000000 1.0
C      1  0.5721880000000  0.4488920000000  0.5558100000000 1.0
C      1  0.5822650000000  0.4854760000000  0.4849880000000 1.0
C      1  0.4347090000000  0.5667720000000  0.5375530000000 1.0
C      1  0.4662400000000  0.4612390000000  0.4046410000000 1.0
C      1  0.5446400000000  0.6118010000000  0.5212350000000 1.0
C      1  0.4390890000000  0.5302160000000  0.4438590000000 1.0
C      1  0.5301240000000  0.5063060000000  0.4414150000000 1.0
C      1  0.5186780000000  0.4587100000000  0.4055390000000 1.0
C      1  0.5002210000000  0.4744620000000  0.5046470000000 1.0
C      1  0.4861090000000  0.5020850000000  0.5085370000000 1.0
C      1  0.5226190000000  0.4328930000000  0.5726520000000 1.0
C      1  0.4515220000000  0.5804560000000  0.5210380000000 1.0
C      1  0.5486350000000  0.4480600000000  0.4097310000000 1.0
C      1  0.4377360000000  0.4436750000000  0.5308030000000 1.0
C      1  0.4966910000000  0.4735150000000  0.5554340000000 1.0
C      1  0.4477390000000  0.4536320000000  0.5830870000000 1.0
C      1  0.5633550000000  0.5805220000000  0.5515470000000 1.0
C      1  0.5202610000000  0.5920720000000  0.4964840000000 1.0
C      1  0.3958260000000  0.4990140000000  0.5493700000000 1.0
C      1  0.5502440000000  0.5880620000000  0.4547030000000 1.0
C      1  0.4683830000000  0.4355330000000  0.4258630000000 1.0
C      1  0.6055070000000  0.4962990000000  0.4675070000000 1.0
C      1  0.4266130000000  0.4338090000000  0.4852190000000 1.0
C      1  0.3975080000000  0.5113290000000  0.5022620000000 1.0
C      1  0.4069030000000  0.5311400000000  0.4539200000000 1.0
C      1  0.4917280000000  0.4292840000000  0.5806330000000 1.0
C      1  0.5785260000000  0.4371990000000  0.5311110000000 1.0
C      1  0.5552360000000  0.4925550000000  0.4223630000000 1.0
C      1  0.4758310000000  0.4561020000000  0.5731460000000 1.0
C      1  0.5675180000000  0.4406800000000  0.4734520000000 1.0
C      1  0.6069700000000  0.4663960000000  0.4604970000000 1.0
C      1  0.4897030000000  0.4427110000000  0.4587080000000 1.0
C      1  0.5319020000000  0.4720910000000  0.4474850000000 1.0
C      1  0.5367080000000  0.5815970000000  0.5604420000000 1.0
C      1  0.5887550000000  0.4889670000000  0.5568410000000 1.0
C      1  0.5039550000000  0.4535950000000  0.6012610000000 1.0
C      1  0.5661050000000  0.4917100000000  0.5359270000000 1.0
C      1  0.4520210000000  0.5856450000000  0.4663450000000 1.0
C      1  0.4412890000000  0.5594810000000  0.5673210000000 1.0
C      1  0.5669650000000  0.5628340000000  0.4462430000000 1.0
C      1  0.5613960000000  0.4170010000000  0.5205210000000 1.0
C      1  0.5165430000000  0.5406530000000  0.5708620000000 1.0
C      1  0.5127590000000  0.5532320000000  0.5244040000000 1.0
C      1  0.5275860000000  0.4917010000000  0.4044000000000 1.0
C      1  0.5871260000000  0.5731090000000  0.4867650000000 1.0
C      1  0.5340890000000  0.5124190000000  0.4755690000000 1.0
C      1  0.5136100000000  0.5190000000000  0.3963980000000 1.0
C      1  0.5040880000000  0.5223070000000  0.5256460000000 1.0
C      1  0.5730930000000  0.5957590000000  0.4765450000000 1.0
C      1  0.5338060000000  0.5634810000000  0.5025250000000 1.0
C      1  0.5295090000000  0.4744970000000  0.4873180000000 1.0
C      1  0.4981310000000  0.4028740000000  0.5100950000000 1.0
C      1  0.4656340000000  0.5118010000000  0.4882040000000 1.0
C      1  0.5523040000000  0.4401900000000  0.5797100000000 1.0
C      1  0.5565200000000  0.4804520000000  0.4671710000000 1.0
END
