TITL C-2778436-5916-1025 -0.00102241876145524 125000 -989.551148815313 0 0 167 (C1) n - 1
REM
REM in /home/nfs/bkarasulu/CARBON/AIRSS/Generating-Clusters/REBO/Only-C1/SD-CG/HFTN-CG
REM
REM
REM
REM
REM
REM ./C.cell (11c1c37f851c82e70ff6c80c92926a4b)
REM
REM compiler GCC version 9.2.1 20190827 (Red Hat 9.2.1-1)
REM options -cpp -mtune=generic -march=x86-64 -g -O0 -fpre-include=/usr/include/finclude/math-vector-fortran.h
REM seed -240371945 1372659784 -780746852 1321455851 528850599 -1914156927 -2139150575 -1727873430 -1817712973 1254441310 1833620801 -1870625620 1905007895 -1320291663 1653269369 -21863167 -109197309 808758780 764073037 852882029 1774680517 -1697974658 -38062515 516055298 -455602289 437212599 2026184559 1169952629 -1784911285 -1958658505 -1136169966 -455020065 987144564
REM
CELL 1.54180   50.00000   50.00000   50.00000   90.00000   90.00000   90.00000
LATT -1
SFAC C  
C      1  0.5906610000000  0.4546970000000  0.5090880000000 1.0
C      1  0.5633620000000  0.5142290000000  0.4432890000000 1.0
C      1  0.5076940000000  0.5751960000000  0.5366770000000 1.0
C      1  0.5145770000000  0.5370010000000  0.5954420000000 1.0
C      1  0.5949560000000  0.4608620000000  0.4763720000000 1.0
C      1  0.4831930000000  0.5078880000000  0.5134010000000 1.0
C      1  0.5550750000000  0.5935140000000  0.4770820000000 1.0
C      1  0.5004590000000  0.4528100000000  0.6147880000000 1.0
C      1  0.4977090000000  0.4600930000000  0.3866920000000 1.0
C      1  0.5766220000000  0.4411240000000  0.4638190000000 1.0
C      1  0.4041310000000  0.4976900000000  0.4674030000000 1.0
C      1  0.5842890000000  0.4894190000000  0.4385820000000 1.0
C      1  0.5378490000000  0.5326570000000  0.4564880000000 1.0
C      1  0.4536580000000  0.5813860000000  0.4871570000000 1.0
C      1  0.5518560000000  0.5698930000000  0.4554520000000 1.0
C      1  0.5573960000000  0.5406700000000  0.4117950000000 1.0
C      1  0.4792560000000  0.4093020000000  0.4541500000000 1.0
C      1  0.4200090000000  0.5489750000000  0.4671300000000 1.0
C      1  0.3918590000000  0.5104340000000  0.5158210000000 1.0
C      1  0.5994060000000  0.5065000000000  0.5046350000000 1.0
C      1  0.4478510000000  0.5582330000000  0.5380870000000 1.0
C      1  0.4355450000000  0.5185340000000  0.5093840000000 1.0
C      1  0.4692020000000  0.5347240000000  0.4556230000000 1.0
C      1  0.4281230000000  0.4388040000000  0.4565950000000 1.0
C      1  0.4485370000000  0.4658100000000  0.4968150000000 1.0
C      1  0.4776000000000  0.4851420000000  0.4774890000000 1.0
C      1  0.3950000000000  0.5362140000000  0.4726810000000 1.0
C      1  0.4560390000000  0.5457960000000  0.5686420000000 1.0
C      1  0.5638490000000  0.5489280000000  0.5906990000000 1.0
C      1  0.5210060000000  0.3960420000000  0.5153120000000 1.0
C      1  0.5181390000000  0.4474020000000  0.4012340000000 1.0
C      1  0.4816400000000  0.5809570000000  0.5456000000000 1.0
C      1  0.4722100000000  0.4899850000000  0.5621080000000 1.0
C      1  0.4299670000000  0.5145750000000  0.4314670000000 1.0
C      1  0.5197450000000  0.5588250000000  0.4510010000000 1.0
C      1  0.5215210000000  0.4893570000000  0.5268230000000 1.0
C      1  0.4930910000000  0.5140920000000  0.5533980000000 1.0
C      1  0.5095380000000  0.4592990000000  0.5894420000000 1.0
C      1  0.5210130000000  0.5063950000000  0.5629840000000 1.0
C      1  0.4797740000000  0.4791720000000  0.3917630000000 1.0
C      1  0.5859650000000  0.4841800000000  0.5535510000000 1.0
C      1  0.4060340000000  0.4540500000000  0.5567310000000 1.0
C      1  0.5685810000000  0.4306170000000  0.5188360000000 1.0
C      1  0.3965760000000  0.4723220000000  0.4845660000000 1.0
C      1  0.5122860000000  0.5210580000000  0.5268710000000 1.0
C      1  0.3828130000000  0.5213470000000  0.4922360000000 1.0
C      1  0.5125180000000  0.4283570000000  0.4211730000000 1.0
C      1  0.5072690000000  0.5506210000000  0.5156630000000 1.0
C      1  0.5365720000000  0.4641240000000  0.5840110000000 1.0
C      1  0.4292380000000  0.5290290000000  0.5782770000000 1.0
C      1  0.4832790000000  0.5944380000000  0.4983040000000 1.0
C      1  0.5843010000000  0.5441840000000  0.5298360000000 1.0
C      1  0.5346370000000  0.4219690000000  0.4387620000000 1.0
C      1  0.4647350000000  0.4560270000000  0.4682900000000 1.0
C      1  0.5251500000000  0.4154140000000  0.4647600000000 1.0
C      1  0.5680740000000  0.4865960000000  0.4140550000000 1.0
C      1  0.4030010000000  0.4818710000000  0.5147690000000 1.0
C      1  0.4466370000000  0.4911390000000  0.4642760000000 1.0
C      1  0.4388630000000  0.5350480000000  0.4503380000000 1.0
C      1  0.5577260000000  0.5139850000000  0.4037060000000 1.0
C      1  0.5778840000000  0.4835580000000  0.5057710000000 1.0
C      1  0.5465700000000  0.4871120000000  0.5974900000000 1.0
C      1  0.4770260000000  0.5681290000000  0.5699850000000 1.0
C      1  0.4690210000000  0.5744710000000  0.4599930000000 1.0
C      1  0.5444670000000  0.5362040000000  0.6003350000000 1.0
C      1  0.4345130000000  0.5181600000000  0.5498930000000 1.0
C      1  0.5229990000000  0.4983800000000  0.4789420000000 1.0
C      1  0.4139420000000  0.4915200000000  0.4412370000000 1.0
C      1  0.4701370000000  0.4526150000000  0.4360770000000 1.0
C      1  0.4009440000000  0.4467190000000  0.5337240000000 1.0
C      1  0.5482890000000  0.4104810000000  0.5279300000000 1.0
C      1  0.5422190000000  0.4660550000000  0.4082170000000 1.0
C      1  0.4768370000000  0.5255300000000  0.4874080000000 1.0
C      1  0.5625030000000  0.5722980000000  0.5689020000000 1.0
C      1  0.4656470000000  0.5743930000000  0.4328240000000 1.0
C      1  0.5244370000000  0.5091330000000  0.4388400000000 1.0
C      1  0.5182930000000  0.4160690000000  0.5429850000000 1.0
C      1  0.5337680000000  0.5918410000000  0.4961450000000 1.0
C      1  0.5925750000000  0.5346280000000  0.4639930000000 1.0
C      1  0.5457670000000  0.4931130000000  0.5581670000000 1.0
C      1  0.4798860000000  0.4960550000000  0.4199550000000 1.0
C      1  0.4553230000000  0.4606260000000  0.5882110000000 1.0
C      1  0.4475770000000  0.4799450000000  0.5476780000000 1.0
C      1  0.4950640000000  0.5113750000000  0.6011390000000 1.0
C      1  0.5004720000000  0.3885590000000  0.4960360000000 1.0
C      1  0.4874150000000  0.5622770000000  0.4960910000000 1.0
C      1  0.4166840000000  0.5589330000000  0.5309440000000 1.0
C      1  0.4602570000000  0.5403990000000  0.5114110000000 1.0
C      1  0.4876510000000  0.4172320000000  0.5201610000000 1.0
C      1  0.4999390000000  0.4686840000000  0.5389440000000 1.0
C      1  0.5952440000000  0.6044580000000  0.5502710000000 1.0
C      1  0.5302820000000  0.5626810000000  0.5739560000000 1.0
C      1  0.5122050000000  0.4510380000000  0.5057410000000 1.0
C      1  0.5432740000000  0.5290010000000  0.5386340000000 1.0
C      1  0.4696590000000  0.4393550000000  0.5698840000000 1.0
C      1  0.5990210000000  0.4855680000000  0.4622170000000 1.0
C      1  0.5474770000000  0.5454150000000  0.4865000000000 1.0
C      1  0.5510320000000  0.5140320000000  0.4890910000000 1.0
C      1  0.4222620000000  0.5133570000000  0.5989290000000 1.0
C      1  0.5647180000000  0.5233440000000  0.5148900000000 1.0
C      1  0.5618350000000  0.4361620000000  0.4885530000000 1.0
C      1  0.4121900000000  0.5284290000000  0.5301320000000 1.0
C      1  0.4338200000000  0.4865550000000  0.5990410000000 1.0
C      1  0.4866710000000  0.4172290000000  0.5525960000000 1.0
C      1  0.5466020000000  0.4592140000000  0.5534570000000 1.0
C      1  0.5350160000000  0.5634580000000  0.5076150000000 1.0
C      1  0.4261450000000  0.4289090000000  0.4896300000000 1.0
C      1  0.4066860000000  0.4471520000000  0.5038240000000 1.0
C      1  0.4272060000000  0.5121230000000  0.4808340000000 1.0
C      1  0.5012320000000  0.5162820000000  0.4702300000000 1.0
C      1  0.5017470000000  0.4005460000000  0.4698050000000 1.0
C      1  0.4489700000000  0.4843980000000  0.3979090000000 1.0
C      1  0.4892480000000  0.4643840000000  0.5677110000000 1.0
C      1  0.4893170000000  0.4765710000000  0.5072760000000 1.0
C      1  0.4631150000000  0.5203560000000  0.5382080000000 1.0
C      1  0.4936770000000  0.5555880000000  0.4668500000000 1.0
C      1  0.5800100000000  0.5956130000000  0.4891600000000 1.0
C      1  0.5362700000000  0.5594650000000  0.5416520000000 1.0
C      1  0.4344540000000  0.4881740000000  0.5183880000000 1.0
C      1  0.5322630000000  0.4978690000000  0.4012670000000 1.0
C      1  0.4258780000000  0.5706090000000  0.4847650000000 1.0
C      1  0.4775950000000  0.4258380000000  0.4904580000000 1.0
C      1  0.4855290000000  0.4266520000000  0.4322750000000 1.0
C      1  0.5759130000000  0.4564530000000  0.5399640000000 1.0
C      1  0.4459540000000  0.5134130000000  0.4081320000000 1.0
C      1  0.5701360000000  0.5001000000000  0.5791910000000 1.0
C      1  0.5603460000000  0.4843010000000  0.4774220000000 1.0
C      1  0.5752470000000  0.5575520000000  0.4786150000000 1.0
C      1  0.5731460000000  0.5218350000000  0.5533210000000 1.0
C      1  0.6025290000000  0.5109860000000  0.4765270000000 1.0
C      1  0.5872470000000  0.5696220000000  0.5076200000000 1.0
C      1  0.5817260000000  0.5747730000000  0.5408280000000 1.0
C      1  0.5329160000000  0.4379080000000  0.4831610000000 1.0
C      1  0.5779440000000  0.6002730000000  0.5712930000000 1.0
C      1  0.4696390000000  0.4884750000000  0.6017440000000 1.0
C      1  0.4668880000000  0.5167870000000  0.5827880000000 1.0
C      1  0.5712970000000  0.5472020000000  0.4403570000000 1.0
C      1  0.4191360000000  0.4629070000000  0.4341980000000 1.0
C      1  0.4558570000000  0.4274250000000  0.5411040000000 1.0
C      1  0.4663280000000  0.5337410000000  0.4057510000000 1.0
C      1  0.5156850000000  0.4795570000000  0.4248940000000 1.0
C      1  0.4926230000000  0.5172030000000  0.4381390000000 1.0
C      1  0.4278720000000  0.4698040000000  0.5703920000000 1.0
C      1  0.5233820000000  0.4664190000000  0.4671730000000 1.0
C      1  0.5109030000000  0.6064570000000  0.4980470000000 1.0
C      1  0.4498400000000  0.4168700000000  0.5093240000000 1.0
C      1  0.4619880000000  0.5819970000000  0.5204420000000 1.0
C      1  0.5244080000000  0.4468430000000  0.5361950000000 1.0
C      1  0.5106090000000  0.5585600000000  0.4210010000000 1.0
C      1  0.4307480000000  0.4613670000000  0.4090130000000 1.0
C      1  0.5461340000000  0.4849570000000  0.4494610000000 1.0
C      1  0.4713360000000  0.3903380000000  0.5072090000000 1.0
C      1  0.5001030000000  0.5624300000000  0.5838870000000 1.0
C      1  0.4908740000000  0.4774330000000  0.4470070000000 1.0
C      1  0.4814390000000  0.5560970000000  0.4165370000000 1.0
C      1  0.5618070000000  0.4327730000000  0.4402630000000 1.0
C      1  0.5262010000000  0.5016850000000  0.6089400000000 1.0
C      1  0.4519050000000  0.4181920000000  0.4695250000000 1.0
C      1  0.4541710000000  0.4551410000000  0.5266660000000 1.0
C      1  0.4264280000000  0.4653580000000  0.4733880000000 1.0
C      1  0.4536830000000  0.4824960000000  0.4341680000000 1.0
C      1  0.4102140000000  0.5731160000000  0.5083950000000 1.0
C      1  0.5956420000000  0.5060420000000  0.5336450000000 1.0
C      1  0.5337750000000  0.5552030000000  0.4049150000000 1.0
C      1  0.4954370000000  0.4493970000000  0.4768230000000 1.0
C      1  0.5555270000000  0.4886880000000  0.5281470000000 1.0
C      1  0.5385930000000  0.4785060000000  0.5017870000000 1.0
END
