TITL C-2778424-3986-790 -0.00320673600987767 125000 -232.748605960888 0 0 43 (C1) n - 1
REM
REM in /home/nfs/bkarasulu/CARBON/AIRSS/Generating-Clusters/REBO/Only-C1/SD-CG/HFTN-CG
REM
REM
REM
REM
REM
REM ./C.cell (11c1c37f851c82e70ff6c80c92926a4b)
REM
REM compiler GCC version 9.2.1 20190827 (Red Hat 9.2.1-1)
REM options -cpp -mtune=generic -march=x86-64 -g -O0 -fpre-include=/usr/include/finclude/math-vector-fortran.h
REM seed -1265719635 1375675168 118059791 -451189445 126688637 1174894915 -1177569346 1334895429 -397498751 -1665312710 1395650864 -1624242475 -1475897259 -639664464 -743918479 1625892956 1139644608 -424853085 -24004989 -1221056044 -1761401497 -1339660204 350459683 -1948232296 449145719 -1978863221 -52401717 -2031835704 970554343 -519572415 -389557317 -1191392270 415009969
REM
CELL 1.54180   50.00000   50.00000   50.00000   90.00000   90.00000   90.00000
LATT -1
SFAC C  
C      1  0.4855890000000  0.5509630000000  0.4737640000000 1.0
C      1  0.5121010000000  0.5189020000000  0.4893280000000 1.0
C      1  0.5266100000000  0.4961770000000  0.5503540000000 1.0
C      1  0.5447780000000  0.5356710000000  0.5215080000000 1.0
C      1  0.5030440000000  0.5482220000000  0.5458780000000 1.0
C      1  0.4570240000000  0.4342460000000  0.4752390000000 1.0
C      1  0.5296380000000  0.4322710000000  0.5184400000000 1.0
C      1  0.5541590000000  0.4743090000000  0.4708250000000 1.0
C      1  0.4976500000000  0.5207660000000  0.5171390000000 1.0
C      1  0.5149560000000  0.4726860000000  0.5427400000000 1.0
C      1  0.4738690000000  0.4480650000000  0.4506500000000 1.0
C      1  0.5220150000000  0.5240090000000  0.5383370000000 1.0
C      1  0.4425530000000  0.4150060000000  0.4839530000000 1.0
C      1  0.4554770000000  0.4895410000000  0.4803030000000 1.0
C      1  0.5694950000000  0.4871940000000  0.5199360000000 1.0
C      1  0.4808550000000  0.4786100000000  0.4376350000000 1.0
C      1  0.5718810000000  0.5409630000000  0.5210880000000 1.0
C      1  0.4097490000000  0.4737320000000  0.5237780000000 1.0
C      1  0.5476710000000  0.4772810000000  0.5020870000000 1.0
C      1  0.5233510000000  0.4596900000000  0.5161490000000 1.0
C      1  0.4625500000000  0.4669470000000  0.5470110000000 1.0
C      1  0.4890520000000  0.4664380000000  0.5513300000000 1.0
C      1  0.4332990000000  0.4894080000000  0.5052640000000 1.0
C      1  0.4398360000000  0.4726810000000  0.5334180000000 1.0
C      1  0.4723820000000  0.4635260000000  0.4809160000000 1.0
C      1  0.4913810000000  0.5242990000000  0.4555570000000 1.0
C      1  0.5581630000000  0.5553180000000  0.4794440000000 1.0
C      1  0.4686570000000  0.5004820000000  0.4520710000000 1.0
C      1  0.5147200000000  0.5029500000000  0.4590840000000 1.0
C      1  0.4993300000000  0.4513280000000  0.4290580000000 1.0
C      1  0.5432100000000  0.4767760000000  0.4489560000000 1.0
C      1  0.5202890000000  0.4873130000000  0.4875590000000 1.0
C      1  0.4907080000000  0.5599400000000  0.5205980000000 1.0
C      1  0.4415290000000  0.5182700000000  0.4928560000000 1.0
C      1  0.5314260000000  0.5448150000000  0.4930890000000 1.0
C      1  0.4982150000000  0.4657350000000  0.4950640000000 1.0
C      1  0.4723910000000  0.5341450000000  0.5244060000000 1.0
C      1  0.4981860000000  0.5565790000000  0.5716960000000 1.0
C      1  0.5800170000000  0.5523750000000  0.4967650000000 1.0
C      1  0.5029100000000  0.5590770000000  0.4945240000000 1.0
C      1  0.5148550000000  0.4808020000000  0.4353110000000 1.0
C      1  0.4935680000000  0.5645240000000  0.5962390000000 1.0
C      1  0.4608620000000  0.5279690000000  0.4706500000000 1.0
END
