TITL C-2778431-5191-473 -0.000167330635383402 125000 -1127.44128458609 0 0 194 (C1) n - 1
REM
REM in /home/nfs/bkarasulu/CARBON/AIRSS/Generating-Clusters/REBO/Only-C1/SD-CG/HFTN-CG
REM
REM
REM
REM
REM
REM ./C.cell (11c1c37f851c82e70ff6c80c92926a4b)
REM
REM compiler GCC version 9.2.1 20190827 (Red Hat 9.2.1-1)
REM options -cpp -mtune=generic -march=x86-64 -g -O0 -fpre-include=/usr/include/finclude/math-vector-fortran.h
REM seed -65574264 -1499623291 -1192550965 -1843499467 692490340 -672092269 -1218121638 558049247 -1269898932 2037712215 -1774642205 -1432742455 -1196507825 -2036135384 1581280036 937951497 -1161054963 1985535629 -1369633554 1449746724 -1205592687 -2102015743 735126409 581629168 -1237746114 630119009 1242462186 480882765 1705955790 -57077786 432237796 1638277819 -534232281
REM
CELL 1.54180   50.00000   50.00000   50.00000   90.00000   90.00000   90.00000
LATT -1
SFAC C  
C      1  0.5615960000000  0.4836020000000  0.5438360000000 1.0
C      1  0.5130480000000  0.5844630000000  0.4310190000000 1.0
C      1  0.3963550000000  0.5256580000000  0.5294700000000 1.0
C      1  0.5220510000000  0.5521280000000  0.5277470000000 1.0
C      1  0.4364090000000  0.4655650000000  0.4984110000000 1.0
C      1  0.4677360000000  0.4975510000000  0.6057830000000 1.0
C      1  0.5690890000000  0.4257620000000  0.4921040000000 1.0
C      1  0.5145560000000  0.6089830000000  0.5168870000000 1.0
C      1  0.4066350000000  0.4517930000000  0.5439580000000 1.0
C      1  0.4284840000000  0.4198950000000  0.5353060000000 1.0
C      1  0.5763160000000  0.5590480000000  0.5345460000000 1.0
C      1  0.4240540000000  0.5217050000000  0.5580030000000 1.0
C      1  0.5080700000000  0.4754170000000  0.5496990000000 1.0
C      1  0.5740060000000  0.5669790000000  0.5029750000000 1.0
C      1  0.5568700000000  0.4531200000000  0.4030350000000 1.0
C      1  0.5069740000000  0.4404240000000  0.5288210000000 1.0
C      1  0.4204170000000  0.4909790000000  0.4188230000000 1.0
C      1  0.5214810000000  0.5878720000000  0.4642130000000 1.0
C      1  0.5320530000000  0.5337890000000  0.4330610000000 1.0
C      1  0.4328330000000  0.4694010000000  0.5309530000000 1.0
C      1  0.5228520000000  0.4613180000000  0.5135120000000 1.0
C      1  0.4845650000000  0.5902590000000  0.4491240000000 1.0
C      1  0.4579230000000  0.4390660000000  0.5793230000000 1.0
C      1  0.5013340000000  0.4064450000000  0.4135820000000 1.0
C      1  0.5729520000000  0.4146690000000  0.5478260000000 1.0
C      1  0.4687310000000  0.4609100000000  0.4630920000000 1.0
C      1  0.4614530000000  0.5545350000000  0.4976910000000 1.0
C      1  0.6146680000000  0.5017990000000  0.5382070000000 1.0
C      1  0.5164640000000  0.5285330000000  0.6306430000000 1.0
C      1  0.4374600000000  0.5848910000000  0.4252650000000 1.0
C      1  0.4183430000000  0.5280610000000  0.4337850000000 1.0
C      1  0.4246390000000  0.5706510000000  0.5627940000000 1.0
C      1  0.4531110000000  0.5362350000000  0.5558980000000 1.0
C      1  0.4751970000000  0.4143380000000  0.5686900000000 1.0
C      1  0.4803240000000  0.5108290000000  0.5702530000000 1.0
C      1  0.5029190000000  0.4570620000000  0.4633470000000 1.0
C      1  0.5865900000000  0.4812080000000  0.5902630000000 1.0
C      1  0.4862100000000  0.6150530000000  0.5064030000000 1.0
C      1  0.5057840000000  0.4407480000000  0.4362070000000 1.0
C      1  0.5283450000000  0.5243120000000  0.5397040000000 1.0
C      1  0.4489170000000  0.5081320000000  0.4833450000000 1.0
C      1  0.4267510000000  0.5759760000000  0.4555050000000 1.0
C      1  0.4394720000000  0.4276930000000  0.4858210000000 1.0
C      1  0.4793290000000  0.5334760000000  0.4541210000000 1.0
C      1  0.5346170000000  0.5065290000000  0.6178930000000 1.0
C      1  0.4826050000000  0.5435900000000  0.5609710000000 1.0
C      1  0.4855090000000  0.4770940000000  0.5287110000000 1.0
C      1  0.4601950000000  0.4315090000000  0.5361570000000 1.0
C      1  0.5755050000000  0.4732800000000  0.4459580000000 1.0
C      1  0.4202960000000  0.4373680000000  0.5094570000000 1.0
C      1  0.4030670000000  0.4752530000000  0.4438370000000 1.0
C      1  0.4766280000000  0.4367980000000  0.4215510000000 1.0
C      1  0.3982390000000  0.4633560000000  0.5123620000000 1.0
C      1  0.4868130000000  0.5401620000000  0.3973200000000 1.0
C      1  0.5519860000000  0.4472540000000  0.5824800000000 1.0
C      1  0.5387880000000  0.4084200000000  0.5494400000000 1.0
C      1  0.5122270000000  0.4296610000000  0.4907420000000 1.0
C      1  0.4959960000000  0.4988230000000  0.5046800000000 1.0
C      1  0.4465910000000  0.6110010000000  0.4790940000000 1.0
C      1  0.5658700000000  0.4811770000000  0.4145160000000 1.0
C      1  0.4156980000000  0.4482150000000  0.4487580000000 1.0
C      1  0.5806450000000  0.5266260000000  0.4646180000000 1.0
C      1  0.5616640000000  0.4305960000000  0.4202620000000 1.0
C      1  0.5367540000000  0.4550320000000  0.4597950000000 1.0
C      1  0.5427170000000  0.4940310000000  0.4984340000000 1.0
C      1  0.5368640000000  0.4864250000000  0.3963970000000 1.0
C      1  0.4565160000000  0.4183350000000  0.4350980000000 1.0
C      1  0.5551280000000  0.4544800000000  0.5174660000000 1.0
C      1  0.4691080000000  0.4859460000000  0.3861610000000 1.0
C      1  0.4843610000000  0.4349720000000  0.5047290000000 1.0
C      1  0.5465710000000  0.5252380000000  0.4866870000000 1.0
C      1  0.5888870000000  0.4521140000000  0.5219610000000 1.0
C      1  0.4883580000000  0.6021780000000  0.4795140000000 1.0
C      1  0.5611930000000  0.4120020000000  0.4638590000000 1.0
C      1  0.4682180000000  0.4626820000000  0.5028450000000 1.0
C      1  0.5029360000000  0.4710120000000  0.6022430000000 1.0
C      1  0.4721390000000  0.5129270000000  0.5178420000000 1.0
C      1  0.4529140000000  0.5797120000000  0.5160810000000 1.0
C      1  0.4552560000000  0.5363400000000  0.4725740000000 1.0
C      1  0.4621600000000  0.4565490000000  0.3976410000000 1.0
C      1  0.5280500000000  0.4512790000000  0.4140630000000 1.0
C      1  0.6064040000000  0.4923210000000  0.4905910000000 1.0
C      1  0.4925020000000  0.5589060000000  0.4536900000000 1.0
C      1  0.5618510000000  0.4534750000000  0.5512860000000 1.0
C      1  0.4315270000000  0.5450880000000  0.4570670000000 1.0
C      1  0.5758280000000  0.5467040000000  0.4434200000000 1.0
C      1  0.4159470000000  0.5745630000000  0.5303080000000 1.0
C      1  0.5049610000000  0.4066990000000  0.5238340000000 1.0
C      1  0.5623010000000  0.5968320000000  0.4976660000000 1.0
C      1  0.4598320000000  0.4612020000000  0.5418210000000 1.0
C      1  0.5928900000000  0.4966510000000  0.4634590000000 1.0
C      1  0.4572820000000  0.6065620000000  0.5040210000000 1.0
C      1  0.5839920000000  0.4668510000000  0.4929850000000 1.0
C      1  0.5280870000000  0.5042830000000  0.5884580000000 1.0
C      1  0.4422580000000  0.5044890000000  0.5144020000000 1.0
C      1  0.5091940000000  0.4802900000000  0.3941120000000 1.0
C      1  0.5324850000000  0.6043350000000  0.4879510000000 1.0
C      1  0.5612440000000  0.5690380000000  0.4536020000000 1.0
C      1  0.4041220000000  0.5752670000000  0.5047230000000 1.0
C      1  0.5132230000000  0.5910850000000  0.5457920000000 1.0
C      1  0.3958240000000  0.4827740000000  0.5402600000000 1.0
C      1  0.5505740000000  0.4299310000000  0.4463140000000 1.0
C      1  0.5592240000000  0.5664210000000  0.5636130000000 1.0
C      1  0.5301740000000  0.5065010000000  0.4480270000000 1.0
C      1  0.4345340000000  0.4643280000000  0.5817950000000 1.0
C      1  0.3897280000000  0.5227560000000  0.4412990000000 1.0
C      1  0.4272150000000  0.4369530000000  0.5647010000000 1.0
C      1  0.5800040000000  0.4470360000000  0.4672100000000 1.0
C      1  0.5600370000000  0.5163220000000  0.5429310000000 1.0
C      1  0.5645500000000  0.4689920000000  0.6018620000000 1.0
C      1  0.5291620000000  0.3966170000000  0.5125710000000 1.0
C      1  0.5241500000000  0.5550910000000  0.4546570000000 1.0
C      1  0.4424450000000  0.5182680000000  0.5834190000000 1.0
C      1  0.5568530000000  0.4173530000000  0.5760400000000 1.0
C      1  0.5362700000000  0.4289040000000  0.4900630000000 1.0
C      1  0.4786120000000  0.5608990000000  0.5893570000000 1.0
C      1  0.5558960000000  0.4103110000000  0.5193730000000 1.0
C      1  0.4965740000000  0.5636300000000  0.5412820000000 1.0
C      1  0.5360120000000  0.5289640000000  0.5719010000000 1.0
C      1  0.5647950000000  0.5132730000000  0.4046280000000 1.0
C      1  0.4975880000000  0.4876510000000  0.4350680000000 1.0
C      1  0.4419890000000  0.4455320000000  0.4644510000000 1.0
C      1  0.5451230000000  0.5981890000000  0.5238590000000 1.0
C      1  0.5313140000000  0.4914570000000  0.5304970000000 1.0
C      1  0.5506030000000  0.4663970000000  0.4855500000000 1.0
C      1  0.5259050000000  0.4752290000000  0.4361570000000 1.0
C      1  0.4905470000000  0.3975670000000  0.4373830000000 1.0
C      1  0.4413460000000  0.4830080000000  0.4446630000000 1.0
C      1  0.5098510000000  0.4448730000000  0.5602110000000 1.0
C      1  0.4039200000000  0.5457380000000  0.5543210000000 1.0
C      1  0.4759610000000  0.4667330000000  0.4334520000000 1.0
C      1  0.4754560000000  0.5398440000000  0.5170850000000 1.0
C      1  0.4233710000000  0.4800260000000  0.4714940000000 1.0
C      1  0.5001670000000  0.4693270000000  0.4923380000000 1.0
C      1  0.4951110000000  0.4561320000000  0.3920290000000 1.0
C      1  0.6086760000000  0.5203440000000  0.5099420000000 1.0
C      1  0.4039700000000  0.5317160000000  0.4708570000000 1.0
C      1  0.5352590000000  0.4680850000000  0.6120700000000 1.0
C      1  0.5109720000000  0.5549490000000  0.4165630000000 1.0
C      1  0.4835080000000  0.5163210000000  0.4287600000000 1.0
C      1  0.5470340000000  0.5836570000000  0.4344030000000 1.0
C      1  0.5454210000000  0.5704640000000  0.5344360000000 1.0
C      1  0.4597900000000  0.4081560000000  0.4856090000000 1.0
C      1  0.4317240000000  0.4311100000000  0.4286670000000 1.0
C      1  0.5611550000000  0.5342780000000  0.4230450000000 1.0
C      1  0.5887520000000  0.5315850000000  0.5353810000000 1.0
C      1  0.5282880000000  0.5794720000000  0.5693580000000 1.0
C      1  0.5006990000000  0.5706410000000  0.4830230000000 1.0
C      1  0.6043390000000  0.5201110000000  0.5632400000000 1.0
C      1  0.4693030000000  0.4032120000000  0.4588740000000 1.0
C      1  0.4534240000000  0.3998210000000  0.5472920000000 1.0
C      1  0.4714480000000  0.4903620000000  0.4743240000000 1.0
C      1  0.4400140000000  0.5517610000000  0.5312650000000 1.0
C      1  0.4916730000000  0.5069370000000  0.3969930000000 1.0
C      1  0.4559030000000  0.5436740000000  0.4010640000000 1.0
C      1  0.5198720000000  0.5345220000000  0.3906520000000 1.0
C      1  0.5852050000000  0.5381550000000  0.4932540000000 1.0
C      1  0.4056820000000  0.5646270000000  0.4796890000000 1.0
C      1  0.5849430000000  0.5120120000000  0.5876190000000 1.0
C      1  0.4992080000000  0.5073980000000  0.4642660000000 1.0
C      1  0.4237100000000  0.4988290000000  0.5408690000000 1.0
C      1  0.4454570000000  0.5683050000000  0.4059100000000 1.0
C      1  0.4239610000000  0.5303780000000  0.5166220000000 1.0
C      1  0.4669480000000  0.4811180000000  0.5657160000000 1.0
C      1  0.3986010000000  0.4977550000000  0.5098610000000 1.0
C      1  0.5925890000000  0.4402020000000  0.5506800000000 1.0
C      1  0.5999920000000  0.4642320000000  0.5728260000000 1.0
C      1  0.5040870000000  0.4910070000000  0.5757370000000 1.0
C      1  0.5057210000000  0.4121380000000  0.5566510000000 1.0
C      1  0.5135330000000  0.5199690000000  0.4905800000000 1.0
C      1  0.4602620000000  0.4941370000000  0.4181150000000 1.0
C      1  0.6136860000000  0.4741900000000  0.5183800000000 1.0
C      1  0.5290010000000  0.5426520000000  0.6021700000000 1.0
C      1  0.4542760000000  0.5738010000000  0.5690660000000 1.0
C      1  0.5122760000000  0.5657560000000  0.5894560000000 1.0
C      1  0.4145830000000  0.5068110000000  0.4857070000000 1.0
C      1  0.5082760000000  0.4294250000000  0.3982780000000 1.0
C      1  0.5213360000000  0.4492530000000  0.5868800000000 1.0
C      1  0.5850130000000  0.4917360000000  0.5242790000000 1.0
C      1  0.5497150000000  0.5574250000000  0.4828520000000 1.0
C      1  0.4382550000000  0.5190230000000  0.4107470000000 1.0
C      1  0.5710370000000  0.5091460000000  0.5039240000000 1.0
C      1  0.5583200000000  0.5245110000000  0.6047230000000 1.0
C      1  0.5401460000000  0.5156660000000  0.3865610000000 1.0
C      1  0.5593100000000  0.5007400000000  0.4580320000000 1.0
C      1  0.4374880000000  0.4612950000000  0.4179130000000 1.0
C      1  0.5191320000000  0.5516460000000  0.4974660000000 1.0
C      1  0.4537730000000  0.5962790000000  0.4517310000000 1.0
C      1  0.4724330000000  0.4069200000000  0.5150540000000 1.0
C      1  0.4712450000000  0.5302000000000  0.5967720000000 1.0
C      1  0.4681640000000  0.5770130000000  0.5437450000000 1.0
C      1  0.5680650000000  0.5352350000000  0.5693350000000 1.0
C      1  0.4726010000000  0.4658290000000  0.5939560000000 1.0
C      1  0.4394950000000  0.4880430000000  0.5944630000000 1.0
END
