TITL C-2778433-5640-403 -0.00160381116338994 125000 -823.888991364318 0 0 141 (C1) n - 1
REM
REM in /home/nfs/bkarasulu/CARBON/AIRSS/Generating-Clusters/REBO/Only-C1/SD-CG/HFTN-CG
REM
REM
REM
REM
REM
REM ./C.cell (11c1c37f851c82e70ff6c80c92926a4b)
REM
REM compiler GCC version 9.2.1 20190827 (Red Hat 9.2.1-1)
REM options -cpp -mtune=generic -march=x86-64 -g -O0 -fpre-include=/usr/include/finclude/math-vector-fortran.h
REM seed 860175141 -1955119760 1680437101 1538730954 2086623139 1374642275 -2073302600 1161187347 1471708725 -334328111 -1506758263 -449039916 -1724662489 2069529728 -1991077840 1450484303 1031625149 -721314147 1317869460 2065712923 -1143573003 -1847714080 1416345040 -1717047331 1726547418 653855724 1678276007 -1465561063 1462321410 -822714447 -759138115 -1283342274 -1314790541
REM
CELL 1.54180   50.00000   50.00000   50.00000   90.00000   90.00000   90.00000
LATT -1
SFAC C  
C      1  0.4440670000000  0.5525080000000  0.5242820000000 1.0
C      1  0.4317560000000  0.4376140000000  0.5591240000000 1.0
C      1  0.4239180000000  0.5274720000000  0.5141630000000 1.0
C      1  0.5779290000000  0.4596190000000  0.5001710000000 1.0
C      1  0.4714360000000  0.4446350000000  0.4503030000000 1.0
C      1  0.4705620000000  0.5189000000000  0.5528830000000 1.0
C      1  0.4933470000000  0.5779590000000  0.5612150000000 1.0
C      1  0.4360320000000  0.4867980000000  0.5595190000000 1.0
C      1  0.5156060000000  0.4832830000000  0.5923710000000 1.0
C      1  0.4558770000000  0.4931810000000  0.4786120000000 1.0
C      1  0.4613100000000  0.5149370000000  0.4127680000000 1.0
C      1  0.4824420000000  0.4741270000000  0.4521600000000 1.0
C      1  0.5378610000000  0.5610480000000  0.5730190000000 1.0
C      1  0.5256640000000  0.5795350000000  0.4863130000000 1.0
C      1  0.5665120000000  0.5077880000000  0.4338990000000 1.0
C      1  0.4288720000000  0.5728540000000  0.4551970000000 1.0
C      1  0.4647920000000  0.5801030000000  0.5518210000000 1.0
C      1  0.5694500000000  0.4216560000000  0.5546790000000 1.0
C      1  0.5550120000000  0.4474850000000  0.5672070000000 1.0
C      1  0.5398270000000  0.5341300000000  0.5546700000000 1.0
C      1  0.4707950000000  0.5568960000000  0.4940120000000 1.0
C      1  0.5284410000000  0.5367790000000  0.4230650000000 1.0
C      1  0.5016250000000  0.4783890000000  0.5137230000000 1.0
C      1  0.5929120000000  0.5079300000000  0.5123920000000 1.0
C      1  0.5579040000000  0.5700660000000  0.4465480000000 1.0
C      1  0.5822950000000  0.4749610000000  0.5488740000000 1.0
C      1  0.5244790000000  0.4458220000000  0.4983740000000 1.0
C      1  0.5202110000000  0.5143860000000  0.4003440000000 1.0
C      1  0.5053600000000  0.4872650000000  0.4310780000000 1.0
C      1  0.4547500000000  0.5463940000000  0.4188940000000 1.0
C      1  0.4237160000000  0.5895710000000  0.5014640000000 1.0
C      1  0.5800210000000  0.4756940000000  0.4516650000000 1.0
C      1  0.4991950000000  0.5914550000000  0.4777070000000 1.0
C      1  0.4815130000000  0.4461470000000  0.5696990000000 1.0
C      1  0.5187250000000  0.4103530000000  0.4813830000000 1.0
C      1  0.5201250000000  0.4388850000000  0.4343980000000 1.0
C      1  0.5121870000000  0.5880790000000  0.5373380000000 1.0
C      1  0.4078150000000  0.5054780000000  0.4260830000000 1.0
C      1  0.3933370000000  0.4813260000000  0.4932190000000 1.0
C      1  0.5570100000000  0.4761190000000  0.4265590000000 1.0
C      1  0.5513770000000  0.4163450000000  0.4836650000000 1.0
C      1  0.4832850000000  0.4740680000000  0.4853680000000 1.0
C      1  0.4246920000000  0.4608340000000  0.5438820000000 1.0
C      1  0.5488220000000  0.4518430000000  0.4477060000000 1.0
C      1  0.5093160000000  0.4590960000000  0.4136420000000 1.0
C      1  0.5096530000000  0.5289480000000  0.5396030000000 1.0
C      1  0.5164890000000  0.3887330000000  0.5148340000000 1.0
C      1  0.4135630000000  0.4856250000000  0.4469030000000 1.0
C      1  0.5312680000000  0.4836320000000  0.4097490000000 1.0
C      1  0.4080840000000  0.5306140000000  0.4406550000000 1.0
C      1  0.5293190000000  0.5647500000000  0.4402140000000 1.0
C      1  0.4825290000000  0.5458440000000  0.3991620000000 1.0
C      1  0.4000120000000  0.4955860000000  0.4712890000000 1.0
C      1  0.4770720000000  0.3995270000000  0.5339540000000 1.0
C      1  0.5461690000000  0.4611890000000  0.5386420000000 1.0
C      1  0.5634910000000  0.4972620000000  0.5051690000000 1.0
C      1  0.5530040000000  0.5837980000000  0.4935190000000 1.0
C      1  0.5871120000000  0.5066830000000  0.4608180000000 1.0
C      1  0.4594610000000  0.4904580000000  0.5372020000000 1.0
C      1  0.4880860000000  0.5217250000000  0.5016750000000 1.0
C      1  0.4685250000000  0.5007490000000  0.4370250000000 1.0
C      1  0.4379990000000  0.5784180000000  0.5221800000000 1.0
C      1  0.4167230000000  0.5726900000000  0.4799000000000 1.0
C      1  0.4112170000000  0.5424330000000  0.4888950000000 1.0
C      1  0.4910400000000  0.4267570000000  0.4428230000000 1.0
C      1  0.5277890000000  0.5319050000000  0.5046150000000 1.0
C      1  0.4459730000000  0.5022550000000  0.5081360000000 1.0
C      1  0.4772010000000  0.4602340000000  0.4110830000000 1.0
C      1  0.5825750000000  0.5554660000000  0.5157980000000 1.0
C      1  0.5282720000000  0.4359440000000  0.5794990000000 1.0
C      1  0.4799660000000  0.4312970000000  0.5282290000000 1.0
C      1  0.5870240000000  0.5321680000000  0.5315690000000 1.0
C      1  0.4789560000000  0.5868370000000  0.4984180000000 1.0
C      1  0.5632140000000  0.4806450000000  0.4794730000000 1.0
C      1  0.5021000000000  0.4188990000000  0.5095750000000 1.0
C      1  0.4947560000000  0.5502540000000  0.5175860000000 1.0
C      1  0.5045000000000  0.4917920000000  0.5553200000000 1.0
C      1  0.5098110000000  0.3878950000000  0.4678290000000 1.0
C      1  0.5190960000000  0.5510760000000  0.4835240000000 1.0
C      1  0.5062080000000  0.4342860000000  0.5580110000000 1.0
C      1  0.5237850000000  0.4402840000000  0.4675930000000 1.0
C      1  0.4659720000000  0.4156000000000  0.4771310000000 1.0
C      1  0.4730470000000  0.3901210000000  0.4862000000000 1.0
C      1  0.5066470000000  0.5573610000000  0.5758230000000 1.0
C      1  0.4711290000000  0.5018700000000  0.6024140000000 1.0
C      1  0.5495940000000  0.4390850000000  0.5163990000000 1.0
C      1  0.4432870000000  0.4812000000000  0.4492480000000 1.0
C      1  0.4814750000000  0.5666510000000  0.4248160000000 1.0
C      1  0.4067700000000  0.5201440000000  0.5387870000000 1.0
C      1  0.5696690000000  0.5709530000000  0.4729480000000 1.0
C      1  0.4278050000000  0.4577700000000  0.5147950000000 1.0
C      1  0.4770070000000  0.4651580000000  0.5307620000000 1.0
C      1  0.5025610000000  0.5089240000000  0.4838720000000 1.0
C      1  0.4354960000000  0.5450620000000  0.4421920000000 1.0
C      1  0.5817640000000  0.5432340000000  0.5805410000000 1.0
C      1  0.4998800000000  0.5725980000000  0.4491910000000 1.0
C      1  0.5727160000000  0.5315490000000  0.5558260000000 1.0
C      1  0.4911850000000  0.5494530000000  0.4708870000000 1.0
C      1  0.4853670000000  0.3826860000000  0.5107950000000 1.0
C      1  0.5186140000000  0.5034120000000  0.5199150000000 1.0
C      1  0.4227970000000  0.5145800000000  0.5604580000000 1.0
C      1  0.5470770000000  0.4971400000000  0.4589490000000 1.0
C      1  0.4988960000000  0.4047110000000  0.5533010000000 1.0
C      1  0.5858770000000  0.5503120000000  0.4867600000000 1.0
C      1  0.5401510000000  0.4737880000000  0.5836510000000 1.0
C      1  0.4253760000000  0.4480070000000  0.4847970000000 1.0
C      1  0.5434010000000  0.3911480000000  0.5226220000000 1.0
C      1  0.4562920000000  0.4857050000000  0.5835300000000 1.0
C      1  0.4857500000000  0.4745980000000  0.5769090000000 1.0
C      1  0.4816940000000  0.5262840000000  0.4545200000000 1.0
C      1  0.5146030000000  0.4516160000000  0.5307440000000 1.0
C      1  0.5922480000000  0.5222630000000  0.4827540000000 1.0
C      1  0.5585260000000  0.4146310000000  0.5287320000000 1.0
C      1  0.4462700000000  0.5619070000000  0.5630400000000 1.0
C      1  0.5207800000000  0.5056160000000  0.4630660000000 1.0
C      1  0.4571420000000  0.4347740000000  0.5689940000000 1.0
C      1  0.5255330000000  0.5609390000000  0.5216660000000 1.0
C      1  0.5626670000000  0.5602380000000  0.5915610000000 1.0
C      1  0.4978540000000  0.5085140000000  0.5940500000000 1.0
C      1  0.4444210000000  0.4376760000000  0.4654840000000 1.0
C      1  0.4447070000000  0.5448990000000  0.4853850000000 1.0
C      1  0.4757080000000  0.4414720000000  0.4898000000000 1.0
C      1  0.5626030000000  0.4410230000000  0.4768980000000 1.0
C      1  0.5427150000000  0.5765840000000  0.5450910000000 1.0
C      1  0.4507010000000  0.5235940000000  0.4639610000000 1.0
C      1  0.4963720000000  0.5278160000000  0.5701950000000 1.0
C      1  0.5593400000000  0.5323640000000  0.4203770000000 1.0
C      1  0.5073420000000  0.5176460000000  0.4377920000000 1.0
C      1  0.4979890000000  0.5252960000000  0.3878860000000 1.0
C      1  0.4555020000000  0.4666150000000  0.4211120000000 1.0
C      1  0.3990970000000  0.5246920000000  0.4678180000000 1.0
C      1  0.4813950000000  0.5922900000000  0.5261910000000 1.0
C      1  0.5729880000000  0.5552770000000  0.4270510000000 1.0
C      1  0.5626240000000  0.5757760000000  0.5199780000000 1.0
C      1  0.4566110000000  0.4554470000000  0.5084530000000 1.0
C      1  0.5347950000000  0.5029050000000  0.5563220000000 1.0
C      1  0.4629230000000  0.5270980000000  0.5224340000000 1.0
C      1  0.5623920000000  0.4864790000000  0.5650130000000 1.0
C      1  0.5465340000000  0.4901990000000  0.5285140000000 1.0
C      1  0.5917800000000  0.4751590000000  0.5216590000000 1.0
C      1  0.4443160000000  0.5336190000000  0.5640140000000 1.0
END
