TITL C-2778422-5617-1031 -0.000213348759209554 125000 -895.147180055952 0 0 155 (C1) n - 1
REM
REM in /home/nfs/bkarasulu/CARBON/AIRSS/Generating-Clusters/REBO/Only-C1/SD-CG/HFTN-CG
REM
REM
REM
REM
REM
REM ./C.cell (11c1c37f851c82e70ff6c80c92926a4b)
REM
REM compiler GCC version 9.2.1 20190827 (Red Hat 9.2.1-1)
REM options -cpp -mtune=generic -march=x86-64 -g -O0 -fpre-include=/usr/include/finclude/math-vector-fortran.h
REM seed -1153946505 -1713335488 85150979 -260517660 -1234143093 450914003 1605889898 2026810 -1981978 765263441 -2136183133 -2118301250 1211368177 -165912192 -1244262712 1883697308 466539230 -689137284 1796700528 1746609372 -1201758482 -265384749 -326382478 -1646486012 1697589019 135283237 1943340729 2106435234 -461311386 -1131573242 1102335444 -1084895749 643342913
REM
CELL 1.54180   50.00000   50.00000   50.00000   90.00000   90.00000   90.00000
LATT -1
SFAC C  
C      1  0.4918450000000  0.5232580000000  0.4759820000000 1.0
C      1  0.5199710000000  0.4304120000000  0.4444890000000 1.0
C      1  0.5264770000000  0.5770610000000  0.5675670000000 1.0
C      1  0.4396460000000  0.4564480000000  0.5555580000000 1.0
C      1  0.4603370000000  0.3970260000000  0.4687600000000 1.0
C      1  0.4731360000000  0.4832460000000  0.4309530000000 1.0
C      1  0.4903590000000  0.4757650000000  0.4883060000000 1.0
C      1  0.4479410000000  0.5629090000000  0.5262670000000 1.0
C      1  0.4573140000000  0.5660020000000  0.5649500000000 1.0
C      1  0.5602990000000  0.5770040000000  0.4442030000000 1.0
C      1  0.5091080000000  0.5359340000000  0.5511100000000 1.0
C      1  0.5459090000000  0.5335430000000  0.4126550000000 1.0
C      1  0.5645100000000  0.5436180000000  0.5092870000000 1.0
C      1  0.4582640000000  0.5292160000000  0.5057770000000 1.0
C      1  0.5448070000000  0.4509400000000  0.4462150000000 1.0
C      1  0.4241570000000  0.5025020000000  0.5489570000000 1.0
C      1  0.5590350000000  0.4448560000000  0.5571950000000 1.0
C      1  0.4478540000000  0.5124130000000  0.4413930000000 1.0
C      1  0.4530870000000  0.4606620000000  0.5792850000000 1.0
C      1  0.5192100000000  0.4648570000000  0.4169450000000 1.0
C      1  0.4391370000000  0.4810860000000  0.4312730000000 1.0
C      1  0.4777230000000  0.4954690000000  0.5963110000000 1.0
C      1  0.5813530000000  0.4824530000000  0.4357610000000 1.0
C      1  0.4234340000000  0.5610900000000  0.4800930000000 1.0
C      1  0.5257980000000  0.4694060000000  0.5289460000000 1.0
C      1  0.6083760000000  0.5001370000000  0.4866740000000 1.0
C      1  0.5164700000000  0.5222780000000  0.4055630000000 1.0
C      1  0.4108560000000  0.4851540000000  0.4439730000000 1.0
C      1  0.4411610000000  0.4676450000000  0.4687630000000 1.0
C      1  0.5363000000000  0.5153700000000  0.4395720000000 1.0
C      1  0.4296720000000  0.5676750000000  0.4152240000000 1.0
C      1  0.4987740000000  0.4658420000000  0.4421320000000 1.0
C      1  0.4101870000000  0.5190100000000  0.5152450000000 1.0
C      1  0.5476900000000  0.5025010000000  0.6010110000000 1.0
C      1  0.4039540000000  0.5120190000000  0.4636420000000 1.0
C      1  0.5021950000000  0.4360470000000  0.4159430000000 1.0
C      1  0.5751850000000  0.5200290000000  0.4475390000000 1.0
C      1  0.5179840000000  0.3902570000000  0.4900000000000 1.0
C      1  0.4439570000000  0.5434400000000  0.4308890000000 1.0
C      1  0.4928900000000  0.5167040000000  0.5745130000000 1.0
C      1  0.4110190000000  0.4267970000000  0.5037620000000 1.0
C      1  0.4650320000000  0.4014710000000  0.5024200000000 1.0
C      1  0.4859930000000  0.4283830000000  0.5035780000000 1.0
C      1  0.4693820000000  0.4814180000000  0.4641370000000 1.0
C      1  0.5399210000000  0.4309530000000  0.5403810000000 1.0
C      1  0.4720410000000  0.5201390000000  0.3954570000000 1.0
C      1  0.5117550000000  0.5657390000000  0.4368620000000 1.0
C      1  0.4286680000000  0.5634830000000  0.5540760000000 1.0
C      1  0.5528350000000  0.4645240000000  0.4999290000000 1.0
C      1  0.4074810000000  0.4489850000000  0.4785010000000 1.0
C      1  0.5560140000000  0.5713970000000  0.5502920000000 1.0
C      1  0.5567490000000  0.5168100000000  0.4922880000000 1.0
C      1  0.4712250000000  0.4386480000000  0.4233510000000 1.0
C      1  0.4859600000000  0.4255430000000  0.5609640000000 1.0
C      1  0.4809690000000  0.5511200000000  0.5022780000000 1.0
C      1  0.5603740000000  0.5096710000000  0.5571260000000 1.0
C      1  0.4232820000000  0.4746640000000  0.5369460000000 1.0
C      1  0.4477140000000  0.5766340000000  0.4950290000000 1.0
C      1  0.5937030000000  0.4887160000000  0.4638650000000 1.0
C      1  0.5303540000000  0.5107660000000  0.5316280000000 1.0
C      1  0.4783390000000  0.5590330000000  0.5410970000000 1.0
C      1  0.4691900000000  0.4295020000000  0.4747620000000 1.0
C      1  0.4899620000000  0.5977140000000  0.5342970000000 1.0
C      1  0.4450180000000  0.4479930000000  0.4260130000000 1.0
C      1  0.4550400000000  0.4386530000000  0.5393260000000 1.0
C      1  0.4802550000000  0.4480340000000  0.5804870000000 1.0
C      1  0.4951760000000  0.5264620000000  0.5211690000000 1.0
C      1  0.5486490000000  0.5532200000000  0.5781500000000 1.0
C      1  0.5742230000000  0.5370700000000  0.5660920000000 1.0
C      1  0.5088450000000  0.5523450000000  0.5810410000000 1.0
C      1  0.4499470000000  0.5332370000000  0.5863400000000 1.0
C      1  0.5124180000000  0.4802850000000  0.4654230000000 1.0
C      1  0.4288340000000  0.5433690000000  0.5059180000000 1.0
C      1  0.4781290000000  0.4479120000000  0.5248580000000 1.0
C      1  0.5739170000000  0.5061790000000  0.5187630000000 1.0
C      1  0.5417650000000  0.4718220000000  0.4685520000000 1.0
C      1  0.5062490000000  0.5954690000000  0.5527730000000 1.0
C      1  0.4977840000000  0.5220620000000  0.4325640000000 1.0
C      1  0.4660020000000  0.5087760000000  0.4840700000000 1.0
C      1  0.5126890000000  0.4160590000000  0.5421460000000 1.0
C      1  0.5299280000000  0.5439350000000  0.4558040000000 1.0
C      1  0.5314640000000  0.5389160000000  0.4868710000000 1.0
C      1  0.4374620000000  0.5084600000000  0.5785250000000 1.0
C      1  0.4480430000000  0.4398250000000  0.4999610000000 1.0
C      1  0.4916600000000  0.4812860000000  0.5589380000000 1.0
C      1  0.5889720000000  0.5279230000000  0.5367280000000 1.0
C      1  0.4808140000000  0.5005960000000  0.5359890000000 1.0
C      1  0.5313660000000  0.5317400000000  0.5947000000000 1.0
C      1  0.5056080000000  0.4477520000000  0.4876110000000 1.0
C      1  0.5326250000000  0.4352840000000  0.4818900000000 1.0
C      1  0.5982450000000  0.5455280000000  0.5093960000000 1.0
C      1  0.4735080000000  0.5905890000000  0.4776910000000 1.0
C      1  0.5816090000000  0.4559230000000  0.5437650000000 1.0
C      1  0.4703060000000  0.5286680000000  0.5523130000000 1.0
C      1  0.5249940000000  0.5861290000000  0.4784210000000 1.0
C      1  0.5181210000000  0.5140350000000  0.5021200000000 1.0
C      1  0.5117040000000  0.5085440000000  0.4581920000000 1.0
C      1  0.4064130000000  0.4598520000000  0.5111540000000 1.0
C      1  0.6083020000000  0.5290560000000  0.4856610000000 1.0
C      1  0.4467380000000  0.5212780000000  0.5338770000000 1.0
C      1  0.5801930000000  0.4302330000000  0.4990760000000 1.0
C      1  0.4362550000000  0.4178320000000  0.5247580000000 1.0
C      1  0.4847040000000  0.5534240000000  0.4690780000000 1.0
C      1  0.5617470000000  0.4976350000000  0.4682620000000 1.0
C      1  0.4776270000000  0.5840960000000  0.5102190000000 1.0
C      1  0.5794530000000  0.5607870000000  0.5343850000000 1.0
C      1  0.5474590000000  0.5933670000000  0.4641330000000 1.0
C      1  0.5212600000000  0.4706150000000  0.5719800000000 1.0
C      1  0.5612400000000  0.4793130000000  0.5967570000000 1.0
C      1  0.4354280000000  0.5011320000000  0.4710840000000 1.0
C      1  0.5153100000000  0.5019330000000  0.5957570000000 1.0
C      1  0.4519040000000  0.4869870000000  0.5894690000000 1.0
C      1  0.5352400000000  0.5817120000000  0.5289690000000 1.0
C      1  0.4751820000000  0.4791430000000  0.5147050000000 1.0
C      1  0.5013800000000  0.4607450000000  0.5388450000000 1.0
C      1  0.3934650000000  0.4910780000000  0.5069740000000 1.0
C      1  0.5672690000000  0.4575650000000  0.4317080000000 1.0
C      1  0.4596940000000  0.4080000000000  0.5477110000000 1.0
C      1  0.4729190000000  0.5354720000000  0.4430790000000 1.0
C      1  0.5408790000000  0.4861030000000  0.5509410000000 1.0
C      1  0.5415450000000  0.5636710000000  0.4231060000000 1.0
C      1  0.5496600000000  0.5342890000000  0.5362480000000 1.0
C      1  0.4913170000000  0.5416040000000  0.3983980000000 1.0
C      1  0.5691520000000  0.5089250000000  0.4182100000000 1.0
C      1  0.5331340000000  0.6118490000000  0.5271980000000 1.0
C      1  0.4012770000000  0.5409640000000  0.4639480000000 1.0
C      1  0.5268490000000  0.5655240000000  0.5013780000000 1.0
C      1  0.4358140000000  0.4108000000000  0.4863360000000 1.0
C      1  0.5085700000000  0.5626600000000  0.5300210000000 1.0
C      1  0.4266810000000  0.4929910000000  0.5016660000000 1.0
C      1  0.5996800000000  0.5370070000000  0.4605840000000 1.0
C      1  0.4872910000000  0.4375160000000  0.4524880000000 1.0
C      1  0.5229510000000  0.4076400000000  0.4696850000000 1.0
C      1  0.5117260000000  0.4904320000000  0.3975970000000 1.0
C      1  0.4912620000000  0.5639500000000  0.4138000000000 1.0
C      1  0.6078660000000  0.4850390000000  0.5105590000000 1.0
C      1  0.4453110000000  0.4688610000000  0.5111180000000 1.0
C      1  0.5494230000000  0.4596320000000  0.5794940000000 1.0
C      1  0.4995680000000  0.5810250000000  0.4620230000000 1.0
C      1  0.5264070000000  0.4838260000000  0.5026690000000 1.0
C      1  0.4753730000000  0.5514150000000  0.5857900000000 1.0
C      1  0.4175520000000  0.5355930000000  0.5434740000000 1.0
C      1  0.5752760000000  0.4749610000000  0.5167390000000 1.0
C      1  0.3987700000000  0.4802830000000  0.4754780000000 1.0
C      1  0.4811760000000  0.4958430000000  0.4044240000000 1.0
C      1  0.4839600000000  0.3981440000000  0.5295160000000 1.0
C      1  0.5622070000000  0.5474230000000  0.4524290000000 1.0
C      1  0.5656210000000  0.4351770000000  0.4759990000000 1.0
C      1  0.5399290000000  0.4917940000000  0.4163560000000 1.0
C      1  0.4214150000000  0.5608130000000  0.4473390000000 1.0
C      1  0.4998130000000  0.4710860000000  0.5962530000000 1.0
C      1  0.5484520000000  0.4340640000000  0.5118770000000 1.0
C      1  0.4277660000000  0.4477960000000  0.4512390000000 1.0
C      1  0.5127260000000  0.3936770000000  0.5163620000000 1.0
C      1  0.6087320000000  0.4688870000000  0.5370700000000 1.0
END
