TITL C-2778428-5639-956 0.0011271802989831 125000 -478.223646313564 0 0 83 (C1) n - 1
REM
REM in /home/nfs/bkarasulu/CARBON/AIRSS/Generating-Clusters/REBO/Only-C1/SD-CG/HFTN-CG
REM
REM
REM
REM
REM
REM ./C.cell (11c1c37f851c82e70ff6c80c92926a4b)
REM
REM compiler GCC version 9.2.1 20190827 (Red Hat 9.2.1-1)
REM options -cpp -mtune=generic -march=x86-64 -g -O0 -fpre-include=/usr/include/finclude/math-vector-fortran.h
REM seed 340919748 -2035551961 42963814 -1745211196 856785553 460460652 1979373943 689169855 -1239380231 1112460264 1450156817 558591380 568580466 -1153843534 -895538846 -1407973506 2113563082 310272607 181683510 -127455096 869492647 1673766982 553106491 -1684232010 1148003668 -1356268847 -623676204 633349067 -999866581 313105050 -247881648 336365066 -1709198996
REM
CELL 1.54180   50.00000   50.00000   50.00000   90.00000   90.00000   90.00000
LATT -1
SFAC C  
C      1  0.4945720000000  0.5759230000000  0.5129900000000 1.0
C      1  0.4277230000000  0.4760250000000  0.5231230000000 1.0
C      1  0.5159370000000  0.5833330000000  0.4945820000000 1.0
C      1  0.4384150000000  0.5468140000000  0.4780050000000 1.0
C      1  0.5188600000000  0.4917430000000  0.5734090000000 1.0
C      1  0.5501140000000  0.4610630000000  0.4800420000000 1.0
C      1  0.4929000000000  0.4653860000000  0.5136580000000 1.0
C      1  0.4595840000000  0.5682550000000  0.4816280000000 1.0
C      1  0.4649650000000  0.5353580000000  0.4265770000000 1.0
C      1  0.5237440000000  0.4974990000000  0.4268670000000 1.0
C      1  0.5036360000000  0.5522210000000  0.5299630000000 1.0
C      1  0.4908980000000  0.4287630000000  0.5290190000000 1.0
C      1  0.4955900000000  0.4858430000000  0.4139990000000 1.0
C      1  0.4651600000000  0.4473190000000  0.5217080000000 1.0
C      1  0.5152110000000  0.5654210000000  0.5578650000000 1.0
C      1  0.4812980000000  0.5214810000000  0.5841700000000 1.0
C      1  0.5424490000000  0.5104210000000  0.5807830000000 1.0
C      1  0.5251500000000  0.4837160000000  0.4850240000000 1.0
C      1  0.5718970000000  0.4702590000000  0.4554270000000 1.0
C      1  0.4897250000000  0.5178580000000  0.4238340000000 1.0
C      1  0.4927950000000  0.5354350000000  0.4838770000000 1.0
C      1  0.5420020000000  0.4952590000000  0.4615980000000 1.0
C      1  0.5411120000000  0.4321580000000  0.4849850000000 1.0
C      1  0.4875960000000  0.4945650000000  0.5802040000000 1.0
C      1  0.4689850000000  0.4870790000000  0.5077440000000 1.0
C      1  0.4995420000000  0.4533140000000  0.5509200000000 1.0
C      1  0.4504670000000  0.5679520000000  0.5288450000000 1.0
C      1  0.5231890000000  0.4465360000000  0.4425580000000 1.0
C      1  0.5661890000000  0.5244820000000  0.4870930000000 1.0
C      1  0.4777410000000  0.5298610000000  0.5069670000000 1.0
C      1  0.4844660000000  0.5595040000000  0.4689430000000 1.0
C      1  0.4238680000000  0.5270450000000  0.5018390000000 1.0
C      1  0.4658010000000  0.4735230000000  0.4181230000000 1.0
C      1  0.4492140000000  0.5299380000000  0.4518290000000 1.0
C      1  0.4505490000000  0.4417540000000  0.4937860000000 1.0
C      1  0.4965920000000  0.4192530000000  0.4787120000000 1.0
C      1  0.4938130000000  0.4799890000000  0.4848670000000 1.0
C      1  0.5379640000000  0.5711390000000  0.5095200000000 1.0
C      1  0.5480610000000  0.4245030000000  0.5120720000000 1.0
C      1  0.5448100000000  0.5430180000000  0.5003160000000 1.0
C      1  0.5198750000000  0.4697600000000  0.5285330000000 1.0
C      1  0.4457690000000  0.5233220000000  0.5492950000000 1.0
C      1  0.5280130000000  0.4630010000000  0.5658420000000 1.0
C      1  0.4457480000000  0.4545760000000  0.4623480000000 1.0
C      1  0.4575580000000  0.5525880000000  0.5545860000000 1.0
C      1  0.5343720000000  0.4947310000000  0.5124100000000 1.0
C      1  0.4665200000000  0.5787160000000  0.5077410000000 1.0
C      1  0.4987440000000  0.4141700000000  0.5071450000000 1.0
C      1  0.5593040000000  0.5175780000000  0.4605300000000 1.0
C      1  0.4226480000000  0.5086320000000  0.5289590000000 1.0
C      1  0.4278480000000  0.5143850000000  0.4717330000000 1.0
C      1  0.5614550000000  0.5288160000000  0.4345200000000 1.0
C      1  0.4843340000000  0.5267570000000  0.5400470000000 1.0
C      1  0.5674490000000  0.4984510000000  0.5040880000000 1.0
C      1  0.5206640000000  0.5231930000000  0.5247110000000 1.0
C      1  0.5600960000000  0.5173830000000  0.5605580000000 1.0
C      1  0.4990180000000  0.4618740000000  0.4371010000000 1.0
C      1  0.5423980000000  0.4715890000000  0.4385060000000 1.0
C      1  0.5745610000000  0.4591960000000  0.5035550000000 1.0
C      1  0.4333030000000  0.4856580000000  0.4696320000000 1.0
C      1  0.5436790000000  0.5189920000000  0.4157060000000 1.0
C      1  0.5054030000000  0.5027850000000  0.5457740000000 1.0
C      1  0.4737000000000  0.5063070000000  0.4524060000000 1.0
C      1  0.4726250000000  0.4353570000000  0.4706390000000 1.0
C      1  0.5850600000000  0.4796500000000  0.4826280000000 1.0
C      1  0.5220620000000  0.5282340000000  0.4795220000000 1.0
C      1  0.4489020000000  0.5369340000000  0.5191030000000 1.0
C      1  0.5528520000000  0.5259370000000  0.5288800000000 1.0
C      1  0.4426530000000  0.4732180000000  0.4972980000000 1.0
C      1  0.4311730000000  0.4873430000000  0.5546920000000 1.0
C      1  0.5209350000000  0.4275870000000  0.4655320000000 1.0
C      1  0.5639950000000  0.4450220000000  0.5258500000000 1.0
C      1  0.5654270000000  0.4946810000000  0.5371750000000 1.0
C      1  0.4472450000000  0.4587110000000  0.5455100000000 1.0
C      1  0.5358450000000  0.5743080000000  0.5383900000000 1.0
C      1  0.5508400000000  0.4670860000000  0.5424390000000 1.0
C      1  0.5073540000000  0.5128980000000  0.4528200000000 1.0
C      1  0.4541720000000  0.4808170000000  0.4435680000000 1.0
C      1  0.5060120000000  0.5788860000000  0.4679990000000 1.0
C      1  0.4871600000000  0.5486950000000  0.5661340000000 1.0
C      1  0.4846170000000  0.4631410000000  0.4616550000000 1.0
C      1  0.4751400000000  0.4729160000000  0.5592850000000 1.0
C      1  0.4608860000000  0.4951110000000  0.5376850000000 1.0
END
