TITL C-2778427-5640-372 0.00227405216280498 125000 -760.721194111548 0 0 131 (C1) n - 1
REM
REM in /home/nfs/bkarasulu/CARBON/AIRSS/Generating-Clusters/REBO/Only-C1/SD-CG/HFTN-CG
REM
REM
REM
REM
REM
REM ./C.cell (11c1c37f851c82e70ff6c80c92926a4b)
REM
REM compiler GCC version 9.2.1 20190827 (Red Hat 9.2.1-1)
REM options -cpp -mtune=generic -march=x86-64 -g -O0 -fpre-include=/usr/include/finclude/math-vector-fortran.h
REM seed -1562500710 -304235435 -1092437619 -2030083647 -2096485698 1855243570 -1626882690 693014362 79743053 -2057888126 1281358094 -667501285 -1788394002 1632439155 691969946 210571721 -2113729479 802522074 339622559 -1096124230 2130639823 -1186092407 1621307134 274470337 -299349000 -1785055203 1025927064 1669915388 -1260038147 -1016190854 2044262022 105012924 -581587465
REM
CELL 1.54180   50.00000   50.00000   50.00000   90.00000   90.00000   90.00000
LATT -1
SFAC C  
C      1  0.5428420000000  0.5981410000000  0.5225230000000 1.0
C      1  0.5500180000000  0.4904000000000  0.5007090000000 1.0
C      1  0.4137510000000  0.5162920000000  0.5136650000000 1.0
C      1  0.4820670000000  0.5148720000000  0.4866830000000 1.0
C      1  0.5149850000000  0.6190610000000  0.4187610000000 1.0
C      1  0.5707470000000  0.4824110000000  0.4677040000000 1.0
C      1  0.5161620000000  0.5334000000000  0.5474480000000 1.0
C      1  0.4585240000000  0.4288180000000  0.4521020000000 1.0
C      1  0.4397420000000  0.4720930000000  0.5207730000000 1.0
C      1  0.5110310000000  0.5771960000000  0.4441650000000 1.0
C      1  0.5222850000000  0.5074500000000  0.5285170000000 1.0
C      1  0.4568890000000  0.4686940000000  0.4850520000000 1.0
C      1  0.5311280000000  0.4456190000000  0.4946850000000 1.0
C      1  0.4844170000000  0.5299600000000  0.4166110000000 1.0
C      1  0.4993630000000  0.4837170000000  0.5247190000000 1.0
C      1  0.5603050000000  0.4011650000000  0.4935480000000 1.0
C      1  0.5251500000000  0.5529540000000  0.4535010000000 1.0
C      1  0.4519480000000  0.5131560000000  0.5699040000000 1.0
C      1  0.5530550000000  0.5464710000000  0.5406480000000 1.0
C      1  0.4542740000000  0.4685540000000  0.4521160000000 1.0
C      1  0.5345920000000  0.4768390000000  0.5910470000000 1.0
C      1  0.5678210000000  0.5153440000000  0.4751040000000 1.0
C      1  0.4733320000000  0.5524180000000  0.4293640000000 1.0
C      1  0.5378860000000  0.5501670000000  0.5113310000000 1.0
C      1  0.5323810000000  0.5768980000000  0.4011900000000 1.0
C      1  0.5173650000000  0.4681590000000  0.5489510000000 1.0
C      1  0.4966380000000  0.4845030000000  0.4014870000000 1.0
C      1  0.4729760000000  0.5034560000000  0.5470610000000 1.0
C      1  0.5303360000000  0.5211270000000  0.4010970000000 1.0
C      1  0.4739670000000  0.4641970000000  0.5395920000000 1.0
C      1  0.5392970000000  0.4578140000000  0.4688670000000 1.0
C      1  0.5168820000000  0.4246960000000  0.5676910000000 1.0
C      1  0.4456180000000  0.4446550000000  0.5371510000000 1.0
C      1  0.4565570000000  0.4996810000000  0.4458500000000 1.0
C      1  0.4543450000000  0.5354070000000  0.5855030000000 1.0
C      1  0.4628240000000  0.4682040000000  0.5963660000000 1.0
C      1  0.4558020000000  0.4238770000000  0.5068790000000 1.0
C      1  0.5095700000000  0.5438600000000  0.4816830000000 1.0
C      1  0.5696090000000  0.4505440000000  0.5365190000000 1.0
C      1  0.5197060000000  0.4743340000000  0.4995160000000 1.0
C      1  0.4609220000000  0.5536800000000  0.5032380000000 1.0
C      1  0.4346110000000  0.4455350000000  0.4914320000000 1.0
C      1  0.5862250000000  0.5339050000000  0.5208020000000 1.0
C      1  0.5021710000000  0.4723080000000  0.4701240000000 1.0
C      1  0.5949690000000  0.5225390000000  0.4923010000000 1.0
C      1  0.5897270000000  0.5344220000000  0.4608060000000 1.0
C      1  0.5307910000000  0.4511140000000  0.5843170000000 1.0
C      1  0.4869000000000  0.4623070000000  0.4139990000000 1.0
C      1  0.4887140000000  0.4194860000000  0.5487750000000 1.0
C      1  0.4118800000000  0.5181120000000  0.4400100000000 1.0
C      1  0.5274130000000  0.4281200000000  0.5149160000000 1.0
C      1  0.5031680000000  0.5124380000000  0.4002080000000 1.0
C      1  0.5278330000000  0.5329070000000  0.5856710000000 1.0
C      1  0.4792940000000  0.5486930000000  0.5835380000000 1.0
C      1  0.4627420000000  0.5807900000000  0.4716950000000 1.0
C      1  0.4349460000000  0.5611470000000  0.4737800000000 1.0
C      1  0.5431740000000  0.5351880000000  0.4820860000000 1.0
C      1  0.5290230000000  0.4177870000000  0.4661320000000 1.0
C      1  0.4498930000000  0.5645660000000  0.5453910000000 1.0
C      1  0.4257780000000  0.4786860000000  0.5575710000000 1.0
C      1  0.5116510000000  0.5773550000000  0.5549670000000 1.0
C      1  0.4474340000000  0.5803580000000  0.5199260000000 1.0
C      1  0.5824470000000  0.5638110000000  0.5197130000000 1.0
C      1  0.3970800000000  0.4936360000000  0.5010710000000 1.0
C      1  0.5351710000000  0.4531050000000  0.4296590000000 1.0
C      1  0.4736290000000  0.4909350000000  0.6087460000000 1.0
C      1  0.5132600000000  0.4386570000000  0.5382370000000 1.0
C      1  0.4844780000000  0.5138940000000  0.5173740000000 1.0
C      1  0.3737930000000  0.4971370000000  0.4893290000000 1.0
C      1  0.5476650000000  0.4366410000000  0.5584960000000 1.0
C      1  0.4571300000000  0.4992270000000  0.4774090000000 1.0
C      1  0.4676920000000  0.5926010000000  0.4981280000000 1.0
C      1  0.5908890000000  0.4750040000000  0.5250110000000 1.0
C      1  0.4944380000000  0.4882490000000  0.5641440000000 1.0
C      1  0.4254950000000  0.4931020000000  0.4396780000000 1.0
C      1  0.5280760000000  0.5133390000000  0.4993260000000 1.0
C      1  0.5729700000000  0.4885250000000  0.5482270000000 1.0
C      1  0.4715250000000  0.4495520000000  0.4334410000000 1.0
C      1  0.5187140000000  0.4336250000000  0.4427720000000 1.0
C      1  0.5375150000000  0.4905910000000  0.4680780000000 1.0
C      1  0.4111790000000  0.4667720000000  0.5040640000000 1.0
C      1  0.5075070000000  0.5043780000000  0.4765240000000 1.0
C      1  0.5337770000000  0.5561840000000  0.5642610000000 1.0
C      1  0.4238690000000  0.5404400000000  0.4491890000000 1.0
C      1  0.4931780000000  0.5940570000000  0.5150400000000 1.0
C      1  0.4832340000000  0.4579300000000  0.5715220000000 1.0
C      1  0.5467290000000  0.5052470000000  0.4232970000000 1.0
C      1  0.5049370000000  0.5412760000000  0.5161720000000 1.0
C      1  0.4860460000000  0.4139330000000  0.5151860000000 1.0
C      1  0.4814670000000  0.5761720000000  0.4489810000000 1.0
C      1  0.5408920000000  0.5113680000000  0.5546840000000 1.0
C      1  0.5775390000000  0.4997620000000  0.5104500000000 1.0
C      1  0.5577740000000  0.4221160000000  0.4731300000000 1.0
C      1  0.5775360000000  0.5464700000000  0.4392100000000 1.0
C      1  0.4132480000000  0.4560070000000  0.5360470000000 1.0
C      1  0.5073430000000  0.4049160000000  0.4894270000000 1.0
C      1  0.4904910000000  0.4402190000000  0.4957060000000 1.0
C      1  0.5849340000000  0.4487650000000  0.5061750000000 1.0
C      1  0.5769920000000  0.4500330000000  0.4770130000000 1.0
C      1  0.4285810000000  0.5443530000000  0.5009800000000 1.0
C      1  0.4809250000000  0.5655470000000  0.5581500000000 1.0
C      1  0.5201440000000  0.5925230000000  0.4214380000000 1.0
C      1  0.5474780000000  0.5381840000000  0.4327190000000 1.0
C      1  0.5030000000000  0.4871430000000  0.4408890000000 1.0
C      1  0.5706760000000  0.5194530000000  0.5449230000000 1.0
C      1  0.4837740000000  0.5645430000000  0.5242680000000 1.0
C      1  0.5267870000000  0.4802530000000  0.4274150000000 1.0
C      1  0.4437030000000  0.4603130000000  0.5738000000000 1.0
C      1  0.4567960000000  0.5453410000000  0.4541990000000 1.0
C      1  0.4776940000000  0.4640300000000  0.5057710000000 1.0
C      1  0.4924410000000  0.5038410000000  0.5919410000000 1.0
C      1  0.4757260000000  0.5437000000000  0.4789070000000 1.0
C      1  0.4621450000000  0.4334370000000  0.5617910000000 1.0
C      1  0.5379250000000  0.5498340000000  0.4029050000000 1.0
C      1  0.4978150000000  0.4426120000000  0.4632810000000 1.0
C      1  0.4446230000000  0.5152260000000  0.5004240000000 1.0
C      1  0.5390620000000  0.5039190000000  0.5846980000000 1.0
C      1  0.5660380000000  0.4826280000000  0.4344090000000 1.0
C      1  0.4221290000000  0.5108220000000  0.5462470000000 1.0
C      1  0.4827850000000  0.5051620000000  0.4337930000000 1.0
C      1  0.5477750000000  0.4705460000000  0.5538110000000 1.0
C      1  0.5575240000000  0.5753690000000  0.5142990000000 1.0
C      1  0.4471130000000  0.4994920000000  0.5277320000000 1.0
C      1  0.5162710000000  0.5950300000000  0.5325860000000 1.0
C      1  0.5354800000000  0.4001740000000  0.5081460000000 1.0
C      1  0.4792410000000  0.4164790000000  0.4735420000000 1.0
C      1  0.4318130000000  0.4371610000000  0.4613310000000 1.0
C      1  0.4213630000000  0.4627130000000  0.4455120000000 1.0
C      1  0.4335060000000  0.5426910000000  0.5504620000000 1.0
C      1  0.5632610000000  0.4505050000000  0.4455790000000 1.0
C      1  0.5003190000000  0.5312510000000  0.5913680000000 1.0
END
