TITL C-2778431-5191-129 -0.00186611025475266 125000 -562.71815959835 0 0 96 (C1) n - 1
REM
REM in /home/nfs/bkarasulu/CARBON/AIRSS/Generating-Clusters/REBO/Only-C1/SD-CG/HFTN-CG
REM
REM
REM
REM
REM
REM ./C.cell (11c1c37f851c82e70ff6c80c92926a4b)
REM
REM compiler GCC version 9.2.1 20190827 (Red Hat 9.2.1-1)
REM options -cpp -mtune=generic -march=x86-64 -g -O0 -fpre-include=/usr/include/finclude/math-vector-fortran.h
REM seed 385227889 -12101286 2008887398 2000367310 1421013286 -2116825963 -1371232404 861823574 -1130767428 -885286729 -107967516 -855443371 -1539802136 -745802862 -1340028468 -519604871 100260214 87751073 26150592 1530859288 -708857719 -684019531 105325203 774383243 -876981120 -303447739 317813147 -225469380 303748354 1753835019 -537965475 -2135877704 -385137095
REM
CELL 1.54180   50.00000   50.00000   50.00000   90.00000   90.00000   90.00000
LATT -1
SFAC C  
C      1  0.5463740000000  0.4390820000000  0.4958500000000 1.0
C      1  0.4999750000000  0.4314870000000  0.4666900000000 1.0
C      1  0.5022500000000  0.5560940000000  0.5466360000000 1.0
C      1  0.5711360000000  0.4688530000000  0.5049580000000 1.0
C      1  0.5412490000000  0.5322650000000  0.5207870000000 1.0
C      1  0.4709280000000  0.5473660000000  0.4269010000000 1.0
C      1  0.4930930000000  0.5428030000000  0.4498450000000 1.0
C      1  0.4690890000000  0.4495240000000  0.3945600000000 1.0
C      1  0.5093130000000  0.4772190000000  0.5924510000000 1.0
C      1  0.4816840000000  0.5845510000000  0.5143080000000 1.0
C      1  0.5280190000000  0.4686910000000  0.5585090000000 1.0
C      1  0.4990830000000  0.4768790000000  0.5491110000000 1.0
C      1  0.5135100000000  0.4562650000000  0.4210060000000 1.0
C      1  0.5038910000000  0.5892960000000  0.4943830000000 1.0
C      1  0.4838800000000  0.4681580000000  0.4136510000000 1.0
C      1  0.4381570000000  0.5384070000000  0.5023950000000 1.0
C      1  0.5316660000000  0.5473800000000  0.4403430000000 1.0
C      1  0.5067340000000  0.4483490000000  0.5873460000000 1.0
C      1  0.5374650000000  0.4560970000000  0.5219690000000 1.0
C      1  0.4680490000000  0.4410050000000  0.4623130000000 1.0
C      1  0.4453460000000  0.5318300000000  0.4710250000000 1.0
C      1  0.5261460000000  0.4957970000000  0.5271090000000 1.0
C      1  0.5402020000000  0.4827750000000  0.4997050000000 1.0
C      1  0.4395070000000  0.4681060000000  0.5474720000000 1.0
C      1  0.5420700000000  0.5017090000000  0.4311740000000 1.0
C      1  0.4596740000000  0.4409020000000  0.5420410000000 1.0
C      1  0.5078340000000  0.4345630000000  0.5620120000000 1.0
C      1  0.4514300000000  0.4499200000000  0.5145360000000 1.0
C      1  0.4929660000000  0.5123400000000  0.4940760000000 1.0
C      1  0.5574120000000  0.5442290000000  0.4941040000000 1.0
C      1  0.4557840000000  0.4853540000000  0.4747340000000 1.0
C      1  0.5360230000000  0.4746930000000  0.4267130000000 1.0
C      1  0.4829710000000  0.5198190000000  0.5225010000000 1.0
C      1  0.4911430000000  0.5855360000000  0.4688590000000 1.0
C      1  0.4707670000000  0.4983200000000  0.4127690000000 1.0
C      1  0.4689160000000  0.5486370000000  0.5254040000000 1.0
C      1  0.4912330000000  0.5518230000000  0.5001540000000 1.0
C      1  0.4782690000000  0.5172180000000  0.5787620000000 1.0
C      1  0.5125450000000  0.4342090000000  0.4382110000000 1.0
C      1  0.5380880000000  0.5672080000000  0.4678680000000 1.0
C      1  0.5782320000000  0.4449880000000  0.5224160000000 1.0
C      1  0.4823320000000  0.4829350000000  0.4913070000000 1.0
C      1  0.4353240000000  0.4626470000000  0.4695350000000 1.0
C      1  0.5865260000000  0.5034250000000  0.4923070000000 1.0
C      1  0.5478540000000  0.5605050000000  0.5505610000000 1.0
C      1  0.4162260000000  0.4871870000000  0.4757930000000 1.0
C      1  0.4878300000000  0.5791110000000  0.5430930000000 1.0
C      1  0.4790090000000  0.5347570000000  0.4761660000000 1.0
C      1  0.4553540000000  0.5558340000000  0.4519070000000 1.0
C      1  0.4456430000000  0.4998200000000  0.4358770000000 1.0
C      1  0.5593660000000  0.5088550000000  0.4528390000000 1.0
C      1  0.5080530000000  0.4678850000000  0.5178830000000 1.0
C      1  0.5661450000000  0.4322870000000  0.5400790000000 1.0
C      1  0.5561670000000  0.5371790000000  0.5730430000000 1.0
C      1  0.5029220000000  0.5104040000000  0.5452880000000 1.0
C      1  0.4645110000000  0.5754390000000  0.4707430000000 1.0
C      1  0.5029260000000  0.5339200000000  0.5692530000000 1.0
C      1  0.4873410000000  0.4303590000000  0.5420440000000 1.0
C      1  0.4458690000000  0.4376580000000  0.4866580000000 1.0
C      1  0.5474770000000  0.5657510000000  0.5188210000000 1.0
C      1  0.5307610000000  0.5792860000000  0.4952240000000 1.0
C      1  0.4599950000000  0.4785370000000  0.5135800000000 1.0
C      1  0.4246620000000  0.4872190000000  0.5300380000000 1.0
C      1  0.5128330000000  0.5462100000000  0.5218710000000 1.0
C      1  0.4552420000000  0.5678630000000  0.5006390000000 1.0
C      1  0.5010430000000  0.4582310000000  0.4882340000000 1.0
C      1  0.5546280000000  0.5096360000000  0.5658730000000 1.0
C      1  0.4847230000000  0.4901310000000  0.5850770000000 1.0
C      1  0.4347290000000  0.5191280000000  0.5303830000000 1.0
C      1  0.4882150000000  0.5246340000000  0.4146750000000 1.0
C      1  0.4968180000000  0.4233330000000  0.5153800000000 1.0
C      1  0.4532660000000  0.5492920000000  0.5489300000000 1.0
C      1  0.5726080000000  0.4914830000000  0.4704760000000 1.0
C      1  0.4776560000000  0.4260450000000  0.4919320000000 1.0
C      1  0.5284260000000  0.5516200000000  0.5758930000000 1.0
C      1  0.4843070000000  0.4625950000000  0.4472870000000 1.0
C      1  0.5424350000000  0.4572910000000  0.4510970000000 1.0
C      1  0.4660970000000  0.4963980000000  0.5386830000000 1.0
C      1  0.5771760000000  0.4973850000000  0.5191440000000 1.0
C      1  0.5007760000000  0.5100780000000  0.4535580000000 1.0
C      1  0.4778180000000  0.4929380000000  0.4444440000000 1.0
C      1  0.5378390000000  0.4895410000000  0.5783870000000 1.0
C      1  0.4525940000000  0.5197640000000  0.5595630000000 1.0
C      1  0.4693830000000  0.4735070000000  0.5628150000000 1.0
C      1  0.5614880000000  0.4602970000000  0.4740340000000 1.0
C      1  0.5095300000000  0.5694540000000  0.4513450000000 1.0
C      1  0.5240500000000  0.4221590000000  0.5058720000000 1.0
C      1  0.5549360000000  0.5379260000000  0.4630720000000 1.0
C      1  0.5370390000000  0.4389550000000  0.5494980000000 1.0
C      1  0.4102570000000  0.4854470000000  0.5044770000000 1.0
C      1  0.5140110000000  0.4680770000000  0.4594150000000 1.0
C      1  0.4290740000000  0.5093280000000  0.4578410000000 1.0
C      1  0.4448920000000  0.5050160000000  0.5005260000000 1.0
C      1  0.5543760000000  0.5079860000000  0.5353120000000 1.0
C      1  0.5181770000000  0.4951980000000  0.4787620000000 1.0
C      1  0.5191640000000  0.5223050000000  0.4278080000000 1.0
END
