TITL C-2778427-5640-1192 -0.000503595412288517 125000 -414.805177884263 0 0 73 (C1) n - 1
REM
REM in /home/nfs/bkarasulu/CARBON/AIRSS/Generating-Clusters/REBO/Only-C1/SD-CG/HFTN-CG
REM
REM
REM
REM
REM
REM ./C.cell (11c1c37f851c82e70ff6c80c92926a4b)
REM
REM compiler GCC version 9.2.1 20190827 (Red Hat 9.2.1-1)
REM options -cpp -mtune=generic -march=x86-64 -g -O0 -fpre-include=/usr/include/finclude/math-vector-fortran.h
REM seed 367460564 1709752630 -2128041239 335865888 2101701169 -1958805813 1063905768 1649949078 238460959 171848144 1154024764 -1264443086 1183254099 1052833394 -1976009521 -1735442122 410319107 -709447890 1826667386 1848873684 -903922349 1517655347 2014098924 -462081600 -1016036113 -861749143 2134646199 -245754144 444922014 -1845922041 -767585248 150562533 -795293571
REM
CELL 1.54180   50.00000   50.00000   50.00000   90.00000   90.00000   90.00000
LATT -1
SFAC C  
C      1  0.5780940000000  0.5328330000000  0.5029980000000 1.0
C      1  0.5315280000000  0.4398520000000  0.5182930000000 1.0
C      1  0.4743530000000  0.5356090000000  0.4982530000000 1.0
C      1  0.5083380000000  0.5294790000000  0.5650190000000 1.0
C      1  0.4630620000000  0.5462990000000  0.4615110000000 1.0
C      1  0.4420850000000  0.5581420000000  0.5301690000000 1.0
C      1  0.4774040000000  0.5237760000000  0.5666940000000 1.0
C      1  0.4321010000000  0.4737000000000  0.5376530000000 1.0
C      1  0.5124170000000  0.4357030000000  0.5457580000000 1.0
C      1  0.4334630000000  0.5830970000000  0.5361040000000 1.0
C      1  0.5495400000000  0.5006040000000  0.4149960000000 1.0
C      1  0.5403710000000  0.4671460000000  0.5374980000000 1.0
C      1  0.4581630000000  0.4992730000000  0.4997660000000 1.0
C      1  0.4867390000000  0.5017640000000  0.4503940000000 1.0
C      1  0.4912440000000  0.5581940000000  0.5162460000000 1.0
C      1  0.4356970000000  0.5430500000000  0.5053450000000 1.0
C      1  0.5044270000000  0.4854730000000  0.5626050000000 1.0
C      1  0.5244650000000  0.4378960000000  0.4525350000000 1.0
C      1  0.5182560000000  0.5526860000000  0.5178240000000 1.0
C      1  0.5853660000000  0.4760730000000  0.4423370000000 1.0
C      1  0.5020060000000  0.4254170000000  0.4702670000000 1.0
C      1  0.5022810000000  0.5071610000000  0.4207760000000 1.0
C      1  0.4705020000000  0.5683570000000  0.4939490000000 1.0
C      1  0.5566730000000  0.5184920000000  0.4575800000000 1.0
C      1  0.5223190000000  0.4644130000000  0.4439220000000 1.0
C      1  0.4797050000000  0.4780720000000  0.4738000000000 1.0
C      1  0.4580270000000  0.4731040000000  0.5506350000000 1.0
C      1  0.4826340000000  0.4736110000000  0.5313300000000 1.0
C      1  0.4333740000000  0.4816380000000  0.4909730000000 1.0
C      1  0.5635180000000  0.4634000000000  0.5151690000000 1.0
C      1  0.4753510000000  0.4298110000000  0.4617470000000 1.0
C      1  0.4411480000000  0.5331550000000  0.4755490000000 1.0
C      1  0.4780830000000  0.4515720000000  0.4951530000000 1.0
C      1  0.5280240000000  0.5194570000000  0.4204320000000 1.0
C      1  0.4883040000000  0.5061110000000  0.4899840000000 1.0
C      1  0.4529120000000  0.4417510000000  0.5074190000000 1.0
C      1  0.5325240000000  0.5442730000000  0.5467030000000 1.0
C      1  0.4761450000000  0.4936750000000  0.5662880000000 1.0
C      1  0.4455510000000  0.4796590000000  0.4530690000000 1.0
C      1  0.5620360000000  0.4908290000000  0.4427830000000 1.0
C      1  0.5004460000000  0.5750830000000  0.4550190000000 1.0
C      1  0.5539700000000  0.5635370000000  0.5321180000000 1.0
C      1  0.5127460000000  0.4731220000000  0.5190460000000 1.0
C      1  0.5375270000000  0.4825590000000  0.4641750000000 1.0
C      1  0.4730240000000  0.5243170000000  0.5270350000000 1.0
C      1  0.5359420000000  0.5330720000000  0.4448620000000 1.0
C      1  0.5471690000000  0.4966400000000  0.5003150000000 1.0
C      1  0.5166320000000  0.4894760000000  0.4905390000000 1.0
C      1  0.5472740000000  0.5057510000000  0.5298810000000 1.0
C      1  0.4350780000000  0.5049720000000  0.4678230000000 1.0
C      1  0.4729720000000  0.5753060000000  0.4648420000000 1.0
C      1  0.5013330000000  0.4775280000000  0.4315820000000 1.0
C      1  0.5481760000000  0.4902290000000  0.5599660000000 1.0
C      1  0.5180840000000  0.5074880000000  0.5406240000000 1.0
C      1  0.5630280000000  0.5174090000000  0.4844890000000 1.0
C      1  0.5478370000000  0.4639720000000  0.4891930000000 1.0
C      1  0.4593620000000  0.5412030000000  0.5474630000000 1.0
C      1  0.4873790000000  0.4219670000000  0.5334040000000 1.0
C      1  0.5539940000000  0.5646990000000  0.5045160000000 1.0
C      1  0.4895700000000  0.5028770000000  0.5298220000000 1.0
C      1  0.4875480000000  0.5311700000000  0.4592680000000 1.0
C      1  0.4360850000000  0.5145810000000  0.5134560000000 1.0
C      1  0.5307960000000  0.5524560000000  0.4905640000000 1.0
C      1  0.4225390000000  0.5006220000000  0.5342310000000 1.0
C      1  0.5311630000000  0.4359280000000  0.4850720000000 1.0
C      1  0.4320680000000  0.4608980000000  0.5110120000000 1.0
C      1  0.5107640000000  0.4580810000000  0.5627670000000 1.0
C      1  0.5168250000000  0.5478010000000  0.4632800000000 1.0
C      1  0.4990560000000  0.4374970000000  0.5084240000000 1.0
C      1  0.5704590000000  0.5273040000000  0.5291340000000 1.0
C      1  0.4626700000000  0.4549270000000  0.4585290000000 1.0
C      1  0.5412540000000  0.5205260000000  0.5698150000000 1.0
C      1  0.4590020000000  0.4223940000000  0.5282050000000 1.0
END
