TITL C-2778433-5640-1072 -0.00231210029630348 125000 -655.377194530044 0 0 113 (C1) n - 1
REM
REM in /home/nfs/bkarasulu/CARBON/AIRSS/Generating-Clusters/REBO/Only-C1/SD-CG/HFTN-CG
REM
REM
REM
REM
REM
REM ./C.cell (11c1c37f851c82e70ff6c80c92926a4b)
REM
REM compiler GCC version 9.2.1 20190827 (Red Hat 9.2.1-1)
REM options -cpp -mtune=generic -march=x86-64 -g -O0 -fpre-include=/usr/include/finclude/math-vector-fortran.h
REM seed -1499294341 -1628320419 2134232367 1345880874 -1957360137 -789481669 1399575117 1801591814 -1097609935 2050973570 1364274877 1668157158 -215967150 -1541163044 -1621093170 -148167627 1219173784 411989559 1355119168 10425737 -181951418 -788554096 761983237 2110663964 1936726904 354150100 1682600707 1938359490 1612752570 1692662525 -1194965744 -1115303276 1582147396
REM
CELL 1.54180   50.00000   50.00000   50.00000   90.00000   90.00000   90.00000
LATT -1
SFAC C  
C      1  0.4460040000000  0.5339650000000  0.4241170000000 1.0
C      1  0.5525190000000  0.5214100000000  0.5284090000000 1.0
C      1  0.4950460000000  0.5834650000000  0.4711140000000 1.0
C      1  0.4505820000000  0.4365580000000  0.4570500000000 1.0
C      1  0.4484260000000  0.4623920000000  0.4352640000000 1.0
C      1  0.5392470000000  0.5226730000000  0.5868090000000 1.0
C      1  0.5871430000000  0.5440110000000  0.4827760000000 1.0
C      1  0.5553310000000  0.5755340000000  0.5118030000000 1.0
C      1  0.5678660000000  0.4739320000000  0.4497350000000 1.0
C      1  0.5435080000000  0.4854690000000  0.4301980000000 1.0
C      1  0.5285460000000  0.5749650000000  0.5849750000000 1.0
C      1  0.4039470000000  0.4659050000000  0.4989660000000 1.0
C      1  0.4943800000000  0.5365140000000  0.4724540000000 1.0
C      1  0.4565750000000  0.5874690000000  0.4996680000000 1.0
C      1  0.4534060000000  0.4892380000000  0.4406680000000 1.0
C      1  0.4945840000000  0.4047690000000  0.4633710000000 1.0
C      1  0.4887180000000  0.4945170000000  0.5832830000000 1.0
C      1  0.4685710000000  0.5382640000000  0.4067880000000 1.0
C      1  0.5222560000000  0.5744250000000  0.4706700000000 1.0
C      1  0.5441620000000  0.4091830000000  0.4515570000000 1.0
C      1  0.4778520000000  0.5054730000000  0.4375430000000 1.0
C      1  0.4842880000000  0.5838840000000  0.4975310000000 1.0
C      1  0.4632750000000  0.5289880000000  0.5396430000000 1.0
C      1  0.5659980000000  0.4482030000000  0.4968560000000 1.0
C      1  0.4912140000000  0.4414350000000  0.5176320000000 1.0
C      1  0.5743030000000  0.4766440000000  0.5009020000000 1.0
C      1  0.4098700000000  0.4948160000000  0.5138250000000 1.0
C      1  0.5511440000000  0.5568050000000  0.5468050000000 1.0
C      1  0.5453030000000  0.4993020000000  0.4851500000000 1.0
C      1  0.4696300000000  0.4582210000000  0.4687830000000 1.0
C      1  0.5771080000000  0.4312530000000  0.5163010000000 1.0
C      1  0.4964090000000  0.4914880000000  0.5184800000000 1.0
C      1  0.5052480000000  0.5087830000000  0.5603530000000 1.0
C      1  0.4558910000000  0.4782480000000  0.4844320000000 1.0
C      1  0.5143030000000  0.5113160000000  0.5989860000000 1.0
C      1  0.5355530000000  0.5267640000000  0.5029600000000 1.0
C      1  0.5751710000000  0.5643100000000  0.4960520000000 1.0
C      1  0.4728960000000  0.5122850000000  0.5166910000000 1.0
C      1  0.4859960000000  0.5595700000000  0.4215780000000 1.0
C      1  0.5242380000000  0.4156110000000  0.4699190000000 1.0
C      1  0.4405130000000  0.5386400000000  0.4905080000000 1.0
C      1  0.4389470000000  0.4989890000000  0.4669610000000 1.0
C      1  0.4669590000000  0.4776890000000  0.5706880000000 1.0
C      1  0.4383090000000  0.5186490000000  0.5501550000000 1.0
C      1  0.5152070000000  0.4935280000000  0.5388450000000 1.0
C      1  0.5833220000000  0.5215520000000  0.5295940000000 1.0
C      1  0.4802530000000  0.5559330000000  0.5410620000000 1.0
C      1  0.4523780000000  0.5528010000000  0.4513870000000 1.0
C      1  0.5402860000000  0.5137170000000  0.4327710000000 1.0
C      1  0.5409180000000  0.4836070000000  0.5344300000000 1.0
C      1  0.4039150000000  0.5377500000000  0.4702470000000 1.0
C      1  0.5681480000000  0.4847270000000  0.5271460000000 1.0
C      1  0.4807490000000  0.5352280000000  0.4447020000000 1.0
C      1  0.4991350000000  0.5344430000000  0.5564320000000 1.0
C      1  0.5426850000000  0.5529660000000  0.5741490000000 1.0
C      1  0.5584550000000  0.4556620000000  0.4250160000000 1.0
C      1  0.4739910000000  0.4376250000000  0.5396230000000 1.0
C      1  0.4684100000000  0.5289510000000  0.4912480000000 1.0
C      1  0.5226950000000  0.5446730000000  0.4771160000000 1.0
C      1  0.4609740000000  0.4076470000000  0.4680400000000 1.0
C      1  0.5906270000000  0.5190480000000  0.4731630000000 1.0
C      1  0.4918530000000  0.5060600000000  0.4816150000000 1.0
C      1  0.4296060000000  0.5283700000000  0.4534400000000 1.0
C      1  0.5629120000000  0.4031330000000  0.4342760000000 1.0
C      1  0.4340640000000  0.4226920000000  0.4819080000000 1.0
C      1  0.5754870000000  0.4920490000000  0.4734110000000 1.0
C      1  0.4805770000000  0.5180740000000  0.3912470000000 1.0
C      1  0.5900090000000  0.4420180000000  0.5381240000000 1.0
C      1  0.5297440000000  0.4333650000000  0.4912240000000 1.0
C      1  0.5109220000000  0.4792110000000  0.4833070000000 1.0
C      1  0.5257930000000  0.4610590000000  0.4164560000000 1.0
C      1  0.5434060000000  0.5183050000000  0.5541090000000 1.0
C      1  0.4746030000000  0.3788900000000  0.4725110000000 1.0
C      1  0.4924060000000  0.4614750000000  0.4527400000000 1.0
C      1  0.4991880000000  0.5704860000000  0.5208580000000 1.0
C      1  0.4916560000000  0.4658950000000  0.5044140000000 1.0
C      1  0.4523360000000  0.4711070000000  0.5406150000000 1.0
C      1  0.5601520000000  0.5379300000000  0.4383600000000 1.0
C      1  0.4109670000000  0.4444370000000  0.4894980000000 1.0
C      1  0.4405860000000  0.4970040000000  0.5685510000000 1.0
C      1  0.5107630000000  0.4745840000000  0.3929710000000 1.0
C      1  0.5782470000000  0.5497450000000  0.5397620000000 1.0
C      1  0.4063110000000  0.5593030000000  0.4898610000000 1.0
C      1  0.4783440000000  0.5746950000000  0.4494370000000 1.0
C      1  0.5656550000000  0.5051620000000  0.5744110000000 1.0
C      1  0.5419260000000  0.5244160000000  0.4638150000000 1.0
C      1  0.4837480000000  0.5688640000000  0.5696620000000 1.0
C      1  0.4765600000000  0.4477860000000  0.5659320000000 1.0
C      1  0.5164470000000  0.4279730000000  0.5162720000000 1.0
C      1  0.4852840000000  0.5251420000000  0.5980320000000 1.0
C      1  0.5065490000000  0.4460280000000  0.4345730000000 1.0
C      1  0.4352210000000  0.4245370000000  0.5141970000000 1.0
C      1  0.5863140000000  0.4967170000000  0.5515010000000 1.0
C      1  0.4164800000000  0.5209000000000  0.5315150000000 1.0
C      1  0.5298410000000  0.5556040000000  0.5202760000000 1.0
C      1  0.4576580000000  0.4850410000000  0.5126140000000 1.0
C      1  0.4951750000000  0.4957220000000  0.3872790000000 1.0
C      1  0.5388250000000  0.4657540000000  0.4862030000000 1.0
C      1  0.5032720000000  0.4192060000000  0.4361060000000 1.0
C      1  0.5078100000000  0.5848540000000  0.5680980000000 1.0
C      1  0.4181230000000  0.5128220000000  0.4882670000000 1.0
C      1  0.5004010000000  0.4909130000000  0.4531210000000 1.0
C      1  0.5419450000000  0.5951090000000  0.5299140000000 1.0
C      1  0.5162160000000  0.5893460000000  0.5405850000000 1.0
C      1  0.4983240000000  0.4361860000000  0.5799990000000 1.0
C      1  0.5950160000000  0.4657730000000  0.5499200000000 1.0
C      1  0.5261670000000  0.4187090000000  0.5412220000000 1.0
C      1  0.4194650000000  0.4724690000000  0.5349170000000 1.0
C      1  0.5189910000000  0.4230730000000  0.5673140000000 1.0
C      1  0.4173100000000  0.5436740000000  0.5154610000000 1.0
C      1  0.4351620000000  0.5715410000000  0.4932650000000 1.0
C      1  0.4783970000000  0.5510920000000  0.5910150000000 1.0
C      1  0.4344010000000  0.4438190000000  0.5324410000000 1.0
END
