TITL C-2778427-5640-1195 -0.00315384093335599 125000 -396.690700001962 0 0 70 (C1) n - 1
REM
REM in /home/nfs/bkarasulu/CARBON/AIRSS/Generating-Clusters/REBO/Only-C1/SD-CG/HFTN-CG
REM
REM
REM
REM
REM
REM ./C.cell (11c1c37f851c82e70ff6c80c92926a4b)
REM
REM compiler GCC version 9.2.1 20190827 (Red Hat 9.2.1-1)
REM options -cpp -mtune=generic -march=x86-64 -g -O0 -fpre-include=/usr/include/finclude/math-vector-fortran.h
REM seed -177191567 -1479701762 1460059716 1816405420 -177587872 507281989 -1910503364 1551657270 -1365514288 2126493984 -1563960462 -231716425 -1944788073 -1294416563 1313996712 -473273180 -1600873134 -220676736 1541904682 -1369008589 -654910181 1676472772 -12732030 -816966844 1004652699 -593261244 752358818 760364232 -1173640818 1292663397 -1960717621 -918632389 -188022161
REM
CELL 1.54180   50.00000   50.00000   50.00000   90.00000   90.00000   90.00000
LATT -1
SFAC C  
C      1  0.4928760000000  0.4043420000000  0.5166550000000 1.0
C      1  0.5162970000000  0.5116070000000  0.5460970000000 1.0
C      1  0.5057700000000  0.5474730000000  0.5024320000000 1.0
C      1  0.4891590000000  0.5172090000000  0.5781950000000 1.0
C      1  0.4613860000000  0.4672250000000  0.5099940000000 1.0
C      1  0.4086170000000  0.4936080000000  0.5058220000000 1.0
C      1  0.5439400000000  0.5470880000000  0.4376730000000 1.0
C      1  0.5299290000000  0.5040580000000  0.4989110000000 1.0
C      1  0.4693920000000  0.3965610000000  0.5052520000000 1.0
C      1  0.4589260000000  0.5284050000000  0.4718360000000 1.0
C      1  0.4991680000000  0.4783430000000  0.5039260000000 1.0
C      1  0.5733080000000  0.5235310000000  0.4832600000000 1.0
C      1  0.5821090000000  0.5016980000000  0.5058510000000 1.0
C      1  0.4890960000000  0.5898670000000  0.5015510000000 1.0
C      1  0.4789890000000  0.4696750000000  0.4803740000000 1.0
C      1  0.4565360000000  0.5198920000000  0.4996540000000 1.0
C      1  0.4641790000000  0.5232470000000  0.5352640000000 1.0
C      1  0.4500040000000  0.4119860000000  0.4921590000000 1.0
C      1  0.4141820000000  0.4922060000000  0.4791690000000 1.0
C      1  0.5007860000000  0.5294570000000  0.5214810000000 1.0
C      1  0.5539050000000  0.4626280000000  0.4842340000000 1.0
C      1  0.5893380000000  0.4963240000000  0.5788710000000 1.0
C      1  0.5148740000000  0.5849780000000  0.5120880000000 1.0
C      1  0.5821160000000  0.4894490000000  0.4751300000000 1.0
C      1  0.4697360000000  0.5001820000000  0.4212720000000 1.0
C      1  0.5461310000000  0.5441090000000  0.5209980000000 1.0
C      1  0.5470310000000  0.5186910000000  0.4360280000000 1.0
C      1  0.5270250000000  0.5642770000000  0.5317070000000 1.0
C      1  0.4738480000000  0.5766460000000  0.4830280000000 1.0
C      1  0.5446770000000  0.4889120000000  0.5624820000000 1.0
C      1  0.4301540000000  0.5261790000000  0.5144470000000 1.0
C      1  0.5081910000000  0.4263300000000  0.5198940000000 1.0
C      1  0.5718110000000  0.4943860000000  0.5581160000000 1.0
C      1  0.5383580000000  0.5166310000000  0.5233390000000 1.0
C      1  0.5651110000000  0.5087340000000  0.4546410000000 1.0
C      1  0.5903830000000  0.4643850000000  0.4689840000000 1.0
C      1  0.4650340000000  0.5547640000000  0.4693950000000 1.0
C      1  0.4449040000000  0.4063740000000  0.4150010000000 1.0
C      1  0.5171780000000  0.5318700000000  0.5725530000000 1.0
C      1  0.4469680000000  0.4789560000000  0.5357640000000 1.0
C      1  0.4476130000000  0.4267640000000  0.4645680000000 1.0
C      1  0.4349840000000  0.4840430000000  0.4636700000000 1.0
C      1  0.5323160000000  0.4729490000000  0.4977260000000 1.0
C      1  0.5604970000000  0.5485330000000  0.4917580000000 1.0
C      1  0.4561880000000  0.5045540000000  0.4521680000000 1.0
C      1  0.5802870000000  0.4978020000000  0.5315950000000 1.0
C      1  0.4491500000000  0.4587380000000  0.4729220000000 1.0
C      1  0.4817480000000  0.5369320000000  0.5555020000000 1.0
C      1  0.5201320000000  0.5610970000000  0.4535820000000 1.0
C      1  0.4323660000000  0.5263820000000  0.5416720000000 1.0
C      1  0.5046870000000  0.5463340000000  0.4717750000000 1.0
C      1  0.4462270000000  0.4163320000000  0.4392070000000 1.0
C      1  0.5515820000000  0.5665090000000  0.4645490000000 1.0
C      1  0.4871030000000  0.4901620000000  0.5699960000000 1.0
C      1  0.5131360000000  0.4494390000000  0.5555660000000 1.0
C      1  0.4836930000000  0.4844480000000  0.4548050000000 1.0
C      1  0.5320020000000  0.5671820000000  0.4919850000000 1.0
C      1  0.5232460000000  0.5035120000000  0.4300320000000 1.0
C      1  0.4454180000000  0.4407460000000  0.5013480000000 1.0
C      1  0.4213030000000  0.4888920000000  0.5295760000000 1.0
C      1  0.5144720000000  0.4514180000000  0.5156450000000 1.0
C      1  0.5002880000000  0.5120950000000  0.4518910000000 1.0
C      1  0.5084690000000  0.5546510000000  0.5515780000000 1.0
C      1  0.4630850000000  0.4813570000000  0.5584410000000 1.0
C      1  0.5141020000000  0.4796860000000  0.5576470000000 1.0
C      1  0.5130320000000  0.4241850000000  0.5595180000000 1.0
C      1  0.4967520000000  0.4857340000000  0.4227120000000 1.0
C      1  0.5157360000000  0.5166480000000  0.4791930000000 1.0
C      1  0.4752030000000  0.4981100000000  0.5150520000000 1.0
C      1  0.4837600000000  0.5324820000000  0.4407990000000 1.0
END
