TITL C-2778436-5916-892 9.67171089509817e-05 125000 -981.010540311271 0 0 170 (C1) n - 1
REM
REM in /home/nfs/bkarasulu/CARBON/AIRSS/Generating-Clusters/REBO/Only-C1/SD-CG/HFTN-CG
REM
REM
REM
REM
REM
REM ./C.cell (11c1c37f851c82e70ff6c80c92926a4b)
REM
REM compiler GCC version 9.2.1 20190827 (Red Hat 9.2.1-1)
REM options -cpp -mtune=generic -march=x86-64 -g -O0 -fpre-include=/usr/include/finclude/math-vector-fortran.h
REM seed -1159097950 4640092 177797958 1549792205 2070308458 1998340707 -1012454782 2135535328 2146256142 -812640905 -1650848900 1891647473 -1731101897 1466632355 1498644139 1264551743 -1939826836 1546442000 -2078636239 1228147162 1311392120 81567494 -1273946748 59821098 -940544802 124843100 -1493305210 -335545515 -1415749754 -74708691 196023367 184862760 1528509172
REM
CELL 1.54180   50.00000   50.00000   50.00000   90.00000   90.00000   90.00000
LATT -1
SFAC C  
C      1  0.5071560000000  0.5051210000000  0.5643750000000 1.0
C      1  0.5532920000000  0.5780650000000  0.5467560000000 1.0
C      1  0.5520940000000  0.5311040000000  0.5273370000000 1.0
C      1  0.4610240000000  0.4226170000000  0.4605250000000 1.0
C      1  0.5591860000000  0.5019220000000  0.5408710000000 1.0
C      1  0.5274230000000  0.4236020000000  0.5484450000000 1.0
C      1  0.5081620000000  0.5065010000000  0.5098940000000 1.0
C      1  0.5525910000000  0.4572200000000  0.5904240000000 1.0
C      1  0.4721270000000  0.5232480000000  0.4448300000000 1.0
C      1  0.5232110000000  0.4992710000000  0.6004450000000 1.0
C      1  0.4716140000000  0.4983210000000  0.4002870000000 1.0
C      1  0.5083870000000  0.5843480000000  0.4494330000000 1.0
C      1  0.4856780000000  0.4624020000000  0.5950500000000 1.0
C      1  0.5025390000000  0.5271760000000  0.3917100000000 1.0
C      1  0.5536040000000  0.4515950000000  0.4181300000000 1.0
C      1  0.3930480000000  0.5258130000000  0.5098170000000 1.0
C      1  0.4764910000000  0.5123040000000  0.5208670000000 1.0
C      1  0.5776040000000  0.5454470000000  0.4276790000000 1.0
C      1  0.5879520000000  0.4693740000000  0.4505900000000 1.0
C      1  0.4848330000000  0.4183230000000  0.4449170000000 1.0
C      1  0.3975360000000  0.4976630000000  0.5144740000000 1.0
C      1  0.5376340000000  0.5822320000000  0.5217590000000 1.0
C      1  0.5260200000000  0.5025000000000  0.5365930000000 1.0
C      1  0.5374720000000  0.4800690000000  0.4703150000000 1.0
C      1  0.5140420000000  0.4749340000000  0.3985440000000 1.0
C      1  0.5465150000000  0.5127240000000  0.4679770000000 1.0
C      1  0.4522190000000  0.5584450000000  0.4432350000000 1.0
C      1  0.4467300000000  0.4112320000000  0.5279080000000 1.0
C      1  0.4343810000000  0.5424370000000  0.5716500000000 1.0
C      1  0.5520210000000  0.4255500000000  0.4848470000000 1.0
C      1  0.6120800000000  0.5022770000000  0.5095970000000 1.0
C      1  0.5044090000000  0.5662170000000  0.5653400000000 1.0
C      1  0.5561880000000  0.4400870000000  0.5474800000000 1.0
C      1  0.5543550000000  0.5849940000000  0.4927610000000 1.0
C      1  0.4746330000000  0.5432230000000  0.5342560000000 1.0
C      1  0.5567710000000  0.5631310000000  0.4454620000000 1.0
C      1  0.4660340000000  0.5632890000000  0.4856990000000 1.0
C      1  0.4949470000000  0.3980400000000  0.5179290000000 1.0
C      1  0.4685260000000  0.5296840000000  0.3984110000000 1.0
C      1  0.5296540000000  0.4826820000000  0.5707340000000 1.0
C      1  0.4961100000000  0.5133870000000  0.4635440000000 1.0
C      1  0.4511860000000  0.5248250000000  0.5491810000000 1.0
C      1  0.5289810000000  0.5051870000000  0.3933580000000 1.0
C      1  0.4361440000000  0.5082120000000  0.5917900000000 1.0
C      1  0.5133370000000  0.3983010000000  0.4959110000000 1.0
C      1  0.4832620000000  0.4127760000000  0.5652190000000 1.0
C      1  0.4790270000000  0.5597110000000  0.5814510000000 1.0
C      1  0.4524970000000  0.5956090000000  0.5285610000000 1.0
C      1  0.4568750000000  0.5878720000000  0.4962660000000 1.0
C      1  0.5352970000000  0.5220810000000  0.5701700000000 1.0
C      1  0.5560950000000  0.3879720000000  0.5209360000000 1.0
C      1  0.4795460000000  0.4804780000000  0.5256610000000 1.0
C      1  0.5507150000000  0.4846730000000  0.4102830000000 1.0
C      1  0.5707490000000  0.5147180000000  0.4310790000000 1.0
C      1  0.5327020000000  0.4631340000000  0.5464190000000 1.0
C      1  0.5038290000000  0.4656810000000  0.5106440000000 1.0
C      1  0.5212950000000  0.5913030000000  0.4865120000000 1.0
C      1  0.5307070000000  0.5535760000000  0.5769990000000 1.0
C      1  0.4833970000000  0.4376730000000  0.4187110000000 1.0
C      1  0.5263350000000  0.5571460000000  0.4880100000000 1.0
C      1  0.4316210000000  0.5478400000000  0.5324520000000 1.0
C      1  0.5403580000000  0.5831580000000  0.4611710000000 1.0
C      1  0.4385170000000  0.4416840000000  0.5524360000000 1.0
C      1  0.5828320000000  0.4469730000000  0.4264090000000 1.0
C      1  0.4476860000000  0.5220170000000  0.4640020000000 1.0
C      1  0.4571130000000  0.4939620000000  0.4791340000000 1.0
C      1  0.6025530000000  0.4370620000000  0.4890860000000 1.0
C      1  0.4259000000000  0.5202060000000  0.4305410000000 1.0
C      1  0.4856250000000  0.4958920000000  0.5854110000000 1.0
C      1  0.5001610000000  0.5957340000000  0.5557030000000 1.0
C      1  0.4375410000000  0.4485010000000  0.4944560000000 1.0
C      1  0.4985220000000  0.5718390000000  0.4205050000000 1.0
C      1  0.4559050000000  0.4611220000000  0.4692230000000 1.0
C      1  0.5849580000000  0.4824990000000  0.5163730000000 1.0
C      1  0.5883410000000  0.5624830000000  0.4533230000000 1.0
C      1  0.3990900000000  0.5417770000000  0.5344110000000 1.0
C      1  0.4392320000000  0.5738720000000  0.5474030000000 1.0
C      1  0.5608370000000  0.4654950000000  0.5032700000000 1.0
C      1  0.6018600000000  0.4906790000000  0.4808780000000 1.0
C      1  0.4965500000000  0.4942050000000  0.4132100000000 1.0
C      1  0.4535940000000  0.4583180000000  0.5296690000000 1.0
C      1  0.5135410000000  0.5298460000000  0.5953270000000 1.0
C      1  0.5409390000000  0.4007420000000  0.5019050000000 1.0
C      1  0.4899440000000  0.4948200000000  0.4876290000000 1.0
C      1  0.4845830000000  0.5431280000000  0.4234460000000 1.0
C      1  0.5326980000000  0.4759330000000  0.5172530000000 1.0
C      1  0.4962690000000  0.5694980000000  0.5108980000000 1.0
C      1  0.5161210000000  0.5545110000000  0.4012910000000 1.0
C      1  0.4556220000000  0.4942290000000  0.4365520000000 1.0
C      1  0.4757220000000  0.5749910000000  0.4455570000000 1.0
C      1  0.4163510000000  0.5162920000000  0.5676240000000 1.0
C      1  0.5311030000000  0.4397210000000  0.5785690000000 1.0
C      1  0.5147380000000  0.4823780000000  0.4465740000000 1.0
C      1  0.4385490000000  0.4890340000000  0.5289350000000 1.0
C      1  0.5432100000000  0.5507450000000  0.4046960000000 1.0
C      1  0.5361610000000  0.4528350000000  0.4748080000000 1.0
C      1  0.5018350000000  0.6106120000000  0.4883080000000 1.0
C      1  0.4543570000000  0.4498140000000  0.4184110000000 1.0
C      1  0.5098950000000  0.5406500000000  0.4554940000000 1.0
C      1  0.5611050000000  0.5506830000000  0.5609970000000 1.0
C      1  0.3986460000000  0.5543390000000  0.4610860000000 1.0
C      1  0.5785890000000  0.5656210000000  0.5013200000000 1.0
C      1  0.5403420000000  0.5129920000000  0.5009370000000 1.0
C      1  0.4449540000000  0.5398840000000  0.4209690000000 1.0
C      1  0.5303110000000  0.5502340000000  0.5184240000000 1.0
C      1  0.5916140000000  0.5517670000000  0.4791690000000 1.0
C      1  0.5405130000000  0.5432470000000  0.4636520000000 1.0
C      1  0.4564720000000  0.4140140000000  0.5563850000000 1.0
C      1  0.4338800000000  0.4808820000000  0.5731600000000 1.0
C      1  0.4429480000000  0.4359760000000  0.5858640000000 1.0
C      1  0.5089160000000  0.5214270000000  0.4269430000000 1.0
C      1  0.3990440000000  0.4917230000000  0.4671220000000 1.0
C      1  0.5821020000000  0.4790050000000  0.4182090000000 1.0
C      1  0.4775660000000  0.5772950000000  0.5378480000000 1.0
C      1  0.4146340000000  0.4650390000000  0.5501080000000 1.0
C      1  0.5890540000000  0.5027740000000  0.4512220000000 1.0
C      1  0.5546230000000  0.4913230000000  0.5899280000000 1.0
C      1  0.5397930000000  0.5011570000000  0.4365490000000 1.0
C      1  0.4994600000000  0.4845090000000  0.6145990000000 1.0
C      1  0.4680680000000  0.4043400000000  0.5102460000000 1.0
C      1  0.4163940000000  0.4625730000000  0.4642080000000 1.0
C      1  0.5668030000000  0.5199400000000  0.5756090000000 1.0
C      1  0.5348090000000  0.4374930000000  0.4328650000000 1.0
C      1  0.5833130000000  0.4781530000000  0.5471790000000 1.0
C      1  0.5801850000000  0.4517060000000  0.5551920000000 1.0
C      1  0.4786770000000  0.4428180000000  0.5124630000000 1.0
C      1  0.5447800000000  0.4380430000000  0.5155640000000 1.0
C      1  0.4797520000000  0.6069370000000  0.5111050000000 1.0
C      1  0.5737680000000  0.5097430000000  0.5019730000000 1.0
C      1  0.4805540000000  0.4699120000000  0.5561580000000 1.0
C      1  0.4674730000000  0.4234010000000  0.4874090000000 1.0
C      1  0.4399390000000  0.4449240000000  0.4466270000000 1.0
C      1  0.4826560000000  0.4853120000000  0.4497010000000 1.0
C      1  0.5771890000000  0.5507080000000  0.5303510000000 1.0
C      1  0.5902960000000  0.5222310000000  0.4785350000000 1.0
C      1  0.5044150000000  0.4537020000000  0.5608430000000 1.0
C      1  0.4577000000000  0.4625540000000  0.5804200000000 1.0
C      1  0.5042140000000  0.4497700000000  0.3958530000000 1.0
C      1  0.4381780000000  0.4786170000000  0.4993450000000 1.0
C      1  0.4066360000000  0.5227250000000  0.4576800000000 1.0
C      1  0.4454210000000  0.5155710000000  0.5109680000000 1.0
C      1  0.5082860000000  0.4097270000000  0.4670720000000 1.0
C      1  0.4608560000000  0.4979130000000  0.5621400000000 1.0
C      1  0.4985310000000  0.4334370000000  0.5865310000000 1.0
C      1  0.4316210000000  0.5516540000000  0.4692540000000 1.0
C      1  0.4238140000000  0.5164430000000  0.4861550000000 1.0
C      1  0.5514800000000  0.5243950000000  0.4061670000000 1.0
C      1  0.5891890000000  0.5082520000000  0.5572120000000 1.0
C      1  0.5094650000000  0.5975860000000  0.5251400000000 1.0
C      1  0.4954970000000  0.5620980000000  0.4777070000000 1.0
C      1  0.4261820000000  0.4900850000000  0.4465200000000 1.0
C      1  0.4193320000000  0.5462610000000  0.5006840000000 1.0
C      1  0.5081920000000  0.4426610000000  0.4664050000000 1.0
C      1  0.4585760000000  0.5407370000000  0.4975840000000 1.0
C      1  0.4003390000000  0.4707080000000  0.4938150000000 1.0
C      1  0.4831720000000  0.5360580000000  0.5964760000000 1.0
C      1  0.5915980000000  0.5218080000000  0.5284960000000 1.0
C      1  0.4593100000000  0.5211530000000  0.6015440000000 1.0
C      1  0.5378380000000  0.4185910000000  0.4546130000000 1.0
C      1  0.4527490000000  0.4773360000000  0.4094550000000 1.0
C      1  0.5020960000000  0.4051640000000  0.5450630000000 1.0
C      1  0.4112510000000  0.4966530000000  0.5444090000000 1.0
C      1  0.4519110000000  0.5667630000000  0.5746030000000 1.0
C      1  0.4082390000000  0.4522050000000  0.5212320000000 1.0
C      1  0.5112190000000  0.4354590000000  0.5208040000000 1.0
C      1  0.5060020000000  0.5497740000000  0.5377560000000 1.0
C      1  0.4871220000000  0.4634440000000  0.4745300000000 1.0
C      1  0.5074420000000  0.4521230000000  0.4355180000000 1.0
C      1  0.4280130000000  0.4299690000000  0.5157140000000 1.0
C      1  0.5861890000000  0.4618800000000  0.4822190000000 1.0
END
