TITL C-2778436-5916-1386 -0.000134328609846159 125000 -471.005896881534 0 0 83 (C1) n - 1
REM
REM in /home/nfs/bkarasulu/CARBON/AIRSS/Generating-Clusters/REBO/Only-C1/SD-CG/HFTN-CG
REM
REM
REM
REM
REM
REM ./C.cell (11c1c37f851c82e70ff6c80c92926a4b)
REM
REM compiler GCC version 9.2.1 20190827 (Red Hat 9.2.1-1)
REM options -cpp -mtune=generic -march=x86-64 -g -O0 -fpre-include=/usr/include/finclude/math-vector-fortran.h
REM seed 1895018399 1372732894 -277987271 1730305812 1974902168 -2023610018 -1857143355 1504498983 1023917995 29973318 -231021145 1961484706 -1406771412 -1246698662 -1167302161 788888513 -2052858154 -1100383667 1940337689 40738168 850529124 862241408 419265231 1175315908 1940960077 -2089826012 -217567580 653105327 1499378855 1064721210 701328288 579774226 1560447782
REM
CELL 1.54180   50.00000   50.00000   50.00000   90.00000   90.00000   90.00000
LATT -1
SFAC C  
C      1  0.5664470000000  0.5044690000000  0.5456990000000 1.0
C      1  0.5290590000000  0.4209140000000  0.5298400000000 1.0
C      1  0.4712620000000  0.5243830000000  0.5502560000000 1.0
C      1  0.5127800000000  0.4455850000000  0.4384160000000 1.0
C      1  0.5391470000000  0.4984840000000  0.4896520000000 1.0
C      1  0.4982360000000  0.5931730000000  0.5305070000000 1.0
C      1  0.5298330000000  0.5621170000000  0.4574240000000 1.0
C      1  0.5125260000000  0.4689190000000  0.4235460000000 1.0
C      1  0.4772220000000  0.4369960000000  0.4966480000000 1.0
C      1  0.5030670000000  0.5623570000000  0.4190190000000 1.0
C      1  0.5134610000000  0.4491810000000  0.4695500000000 1.0
C      1  0.5568940000000  0.5274230000000  0.4687410000000 1.0
C      1  0.4942920000000  0.4246020000000  0.5305870000000 1.0
C      1  0.4708590000000  0.4666130000000  0.5541470000000 1.0
C      1  0.5563400000000  0.4867040000000  0.5650160000000 1.0
C      1  0.4078080000000  0.4767950000000  0.5054240000000 1.0
C      1  0.5085550000000  0.5059460000000  0.4825120000000 1.0
C      1  0.5472350000000  0.5203810000000  0.5220140000000 1.0
C      1  0.4504340000000  0.4452610000000  0.4498350000000 1.0
C      1  0.4779350000000  0.5055450000000  0.5157510000000 1.0
C      1  0.4968750000000  0.4830770000000  0.5232520000000 1.0
C      1  0.5098530000000  0.5799610000000  0.4412040000000 1.0
C      1  0.4271670000000  0.4570050000000  0.4962520000000 1.0
C      1  0.5224220000000  0.5808310000000  0.5386310000000 1.0
C      1  0.5301470000000  0.4997290000000  0.4587250000000 1.0
C      1  0.5073440000000  0.4357630000000  0.5591480000000 1.0
C      1  0.4668890000000  0.4445950000000  0.5344770000000 1.0
C      1  0.4957590000000  0.4618940000000  0.5681830000000 1.0
C      1  0.5361920000000  0.5357760000000  0.4424210000000 1.0
C      1  0.4473880000000  0.4978080000000  0.5093170000000 1.0
C      1  0.5145650000000  0.5561830000000  0.4857960000000 1.0
C      1  0.4648450000000  0.4577180000000  0.4301340000000 1.0
C      1  0.5129440000000  0.4067490000000  0.5054520000000 1.0
C      1  0.5246090000000  0.5748010000000  0.5666160000000 1.0
C      1  0.4596360000000  0.4992980000000  0.4381710000000 1.0
C      1  0.4402980000000  0.5472500000000  0.4631380000000 1.0
C      1  0.5174260000000  0.4829280000000  0.5574180000000 1.0
C      1  0.5857330000000  0.4327570000000  0.4520030000000 1.0
C      1  0.5421320000000  0.5399010000000  0.4959620000000 1.0
C      1  0.5130270000000  0.5464060000000  0.5739780000000 1.0
C      1  0.4989250000000  0.5822650000000  0.4705630000000 1.0
C      1  0.5119720000000  0.5173970000000  0.5886260000000 1.0
C      1  0.4413610000000  0.5607870000000  0.4871400000000 1.0
C      1  0.5557520000000  0.5100230000000  0.4390730000000 1.0
C      1  0.4872920000000  0.5162620000000  0.4259930000000 1.0
C      1  0.5809220000000  0.5150510000000  0.5191220000000 1.0
C      1  0.4613940000000  0.5618150000000  0.5146810000000 1.0
C      1  0.4817870000000  0.5391200000000  0.5746820000000 1.0
C      1  0.4614580000000  0.5332760000000  0.4401700000000 1.0
C      1  0.4697540000000  0.4973760000000  0.4847720000000 1.0
C      1  0.4289390000000  0.5515090000000  0.5148140000000 1.0
C      1  0.5690540000000  0.4724290000000  0.4888350000000 1.0
C      1  0.4389850000000  0.5161660000000  0.4679320000000 1.0
C      1  0.5105040000000  0.5355020000000  0.4236190000000 1.0
C      1  0.4726010000000  0.5256480000000  0.4709900000000 1.0
C      1  0.5309250000000  0.5568090000000  0.5220310000000 1.0
C      1  0.4852220000000  0.4823230000000  0.4233480000000 1.0
C      1  0.5548750000000  0.4584020000000  0.5575030000000 1.0
C      1  0.4801960000000  0.5372700000000  0.5216670000000 1.0
C      1  0.5158880000000  0.4576990000000  0.5343500000000 1.0
C      1  0.5285710000000  0.4946300000000  0.5278560000000 1.0
C      1  0.4808140000000  0.5082860000000  0.5853440000000 1.0
C      1  0.4768860000000  0.5879070000000  0.5130940000000 1.0
C      1  0.4807230000000  0.4634820000000  0.5021310000000 1.0
C      1  0.5470780000000  0.4351360000000  0.5446420000000 1.0
C      1  0.4943450000000  0.4766090000000  0.4760900000000 1.0
C      1  0.5411710000000  0.4709490000000  0.5090550000000 1.0
C      1  0.4368860000000  0.4615980000000  0.4688370000000 1.0
C      1  0.5712420000000  0.4472210000000  0.4673940000000 1.0
C      1  0.5408940000000  0.4540370000000  0.4800970000000 1.0
C      1  0.4997400000000  0.4258410000000  0.4855530000000 1.0
C      1  0.5176860000000  0.3806680000000  0.4986320000000 1.0
C      1  0.4952710000000  0.5328430000000  0.4922300000000 1.0
C      1  0.4809460000000  0.5965380000000  0.4864130000000 1.0
C      1  0.4654100000000  0.4948310000000  0.5590540000000 1.0
C      1  0.4201450000000  0.5015130000000  0.5125770000000 1.0
C      1  0.5339690000000  0.4857500000000  0.4299260000000 1.0
C      1  0.5713160000000  0.5056260000000  0.4905390000000 1.0
C      1  0.4441570000000  0.4460560000000  0.5169510000000 1.0
C      1  0.5310220000000  0.4984180000000  0.5799020000000 1.0
C      1  0.5131430000000  0.5419840000000  0.5403600000000 1.0
C      1  0.4134630000000  0.5284480000000  0.5186460000000 1.0
C      1  0.4386780000000  0.4882240000000  0.4599050000000 1.0
END
