TITL C-2778422-5617-813 0.00401103692319473 125000 -444.224742478817 0 0 78 (C1) n - 1
REM
REM in /home/nfs/bkarasulu/CARBON/AIRSS/Generating-Clusters/REBO/Only-C1/SD-CG/HFTN-CG
REM
REM
REM
REM
REM
REM ./C.cell (11c1c37f851c82e70ff6c80c92926a4b)
REM
REM compiler GCC version 9.2.1 20190827 (Red Hat 9.2.1-1)
REM options -cpp -mtune=generic -march=x86-64 -g -O0 -fpre-include=/usr/include/finclude/math-vector-fortran.h
REM seed -1616417489 -1112399851 -6859932 -1180461890 -1743304110 1882245252 -1848202695 -1902263203 -349239369 -531567160 -1585071141 488057870 -1280841960 956539143 -2002361295 -1678944194 656784397 1851461968 -1676017497 1609444888 1784084085 -282626074 258819120 629419215 -1860874517 -89287564 1074197700 -1363816096 -441892388 625899656 694111700 -2140365541 -495996347
REM
CELL 1.54180   50.00000   50.00000   50.00000   90.00000   90.00000   90.00000
LATT -1
SFAC C  
C      1  0.5502170000000  0.5554060000000  0.5059620000000 1.0
C      1  0.4464990000000  0.5313060000000  0.4891410000000 1.0
C      1  0.5100640000000  0.5018870000000  0.5776220000000 1.0
C      1  0.4990440000000  0.5574990000000  0.5297740000000 1.0
C      1  0.5727740000000  0.4713940000000  0.4560010000000 1.0
C      1  0.5278350000000  0.4524350000000  0.4723510000000 1.0
C      1  0.4706040000000  0.5312330000000  0.4438620000000 1.0
C      1  0.5289670000000  0.4919980000000  0.5567890000000 1.0
C      1  0.4868670000000  0.5263600000000  0.5727240000000 1.0
C      1  0.5419750000000  0.4480730000000  0.5802190000000 1.0
C      1  0.4902950000000  0.5638350000000  0.4464750000000 1.0
C      1  0.4238140000000  0.5027300000000  0.4730360000000 1.0
C      1  0.5179940000000  0.5296980000000  0.4788350000000 1.0
C      1  0.5153480000000  0.5930570000000  0.4825350000000 1.0
C      1  0.5267140000000  0.4608300000000  0.5569320000000 1.0
C      1  0.4917880000000  0.4763640000000  0.5836620000000 1.0
C      1  0.5668580000000  0.4264380000000  0.4586770000000 1.0
C      1  0.4533530000000  0.4861920000000  0.5583260000000 1.0
C      1  0.5355190000000  0.5342200000000  0.4534500000000 1.0
C      1  0.4377400000000  0.5608810000000  0.4637020000000 1.0
C      1  0.4929280000000  0.4313190000000  0.5382040000000 1.0
C      1  0.4598610000000  0.4707740000000  0.4560910000000 1.0
C      1  0.5570470000000  0.5045750000000  0.5614360000000 1.0
C      1  0.5360990000000  0.5824840000000  0.4963680000000 1.0
C      1  0.5147370000000  0.6186030000000  0.4719950000000 1.0
C      1  0.4002380000000  0.4695680000000  0.5212830000000 1.0
C      1  0.4524390000000  0.4950070000000  0.4735220000000 1.0
C      1  0.5237690000000  0.5256110000000  0.4297940000000 1.0
C      1  0.4624670000000  0.5699880000000  0.4613340000000 1.0
C      1  0.5210900000000  0.4968620000000  0.4252290000000 1.0
C      1  0.5154900000000  0.5327360000000  0.5884140000000 1.0
C      1  0.4930940000000  0.4890340000000  0.4223030000000 1.0
C      1  0.5749860000000  0.4934540000000  0.4709300000000 1.0
C      1  0.4801330000000  0.4376840000000  0.4499230000000 1.0
C      1  0.5366800000000  0.4512670000000  0.5297790000000 1.0
C      1  0.4561780000000  0.5390000000000  0.5364130000000 1.0
C      1  0.5497050000000  0.5349450000000  0.4839650000000 1.0
C      1  0.4913620000000  0.5751620000000  0.4786400000000 1.0
C      1  0.4663860000000  0.4606850000000  0.5405810000000 1.0
C      1  0.4708420000000  0.4759870000000  0.4941450000000 1.0
C      1  0.5395990000000  0.4768390000000  0.4309260000000 1.0
C      1  0.4836050000000  0.5634640000000  0.5060110000000 1.0
C      1  0.4970550000000  0.5408260000000  0.4247640000000 1.0
C      1  0.4716100000000  0.4177020000000  0.4743910000000 1.0
C      1  0.4705230000000  0.4976580000000  0.5772550000000 1.0
C      1  0.5251620000000  0.4676200000000  0.5027850000000 1.0
C      1  0.5342710000000  0.5503190000000  0.5810250000000 1.0
C      1  0.5269050000000  0.5607370000000  0.5304270000000 1.0
C      1  0.5479130000000  0.4491460000000  0.4490240000000 1.0
C      1  0.5234740000000  0.4935000000000  0.5232490000000 1.0
C      1  0.4779050000000  0.5132740000000  0.4184280000000 1.0
C      1  0.4525320000000  0.4891630000000  0.5271780000000 1.0
C      1  0.4234320000000  0.4622370000000  0.5135680000000 1.0
C      1  0.4956250000000  0.4962780000000  0.5050630000000 1.0
C      1  0.4941680000000  0.4553590000000  0.5598230000000 1.0
C      1  0.5664300000000  0.5160600000000  0.5381380000000 1.0
C      1  0.4575160000000  0.5524470000000  0.5092140000000 1.0
C      1  0.4818080000000  0.5431850000000  0.5489550000000 1.0
C      1  0.4818720000000  0.4663110000000  0.4356330000000 1.0
C      1  0.4508870000000  0.4535590000000  0.5044360000000 1.0
C      1  0.4951390000000  0.5182070000000  0.4862980000000 1.0
C      1  0.5850810000000  0.4556540000000  0.5135960000000 1.0
C      1  0.4652870000000  0.4316410000000  0.5226850000000 1.0
C      1  0.5624650000000  0.5437750000000  0.5345440000000 1.0
C      1  0.4476730000000  0.5148880000000  0.5181470000000 1.0
C      1  0.4550430000000  0.4455530000000  0.4735980000000 1.0
C      1  0.4693920000000  0.5208320000000  0.4709960000000 1.0
C      1  0.5099740000000  0.4320530000000  0.4929270000000 1.0
C      1  0.3940070000000  0.5139130000000  0.4706240000000 1.0
C      1  0.5443090000000  0.5570380000000  0.5558650000000 1.0
C      1  0.5342170000000  0.4316740000000  0.4274260000000 1.0
C      1  0.5564500000000  0.4979060000000  0.5156660000000 1.0
C      1  0.5619860000000  0.4670970000000  0.5190530000000 1.0
C      1  0.5640480000000  0.5094070000000  0.4893730000000 1.0
C      1  0.4971510000000  0.4624060000000  0.4840900000000 1.0
C      1  0.4191250000000  0.5366990000000  0.4732180000000 1.0
C      1  0.4709250000000  0.4088100000000  0.5004590000000 1.0
C      1  0.5156320000000  0.4301790000000  0.5207170000000 1.0
END
