TITL C-2778437-8639-1009 -0.00332778559649933 125000 -1060.33757609806 0 0 181 (C1) n - 1
REM
REM in /home/nfs/bkarasulu/CARBON/AIRSS/Generating-Clusters/REBO/Only-C1/SD-CG/HFTN-CG
REM
REM
REM
REM
REM
REM ./C.cell (11c1c37f851c82e70ff6c80c92926a4b)
REM
REM compiler GCC version 9.2.1 20190827 (Red Hat 9.2.1-1)
REM options -cpp -mtune=generic -march=x86-64 -g -O0 -fpre-include=/usr/include/finclude/math-vector-fortran.h
REM seed -35438414 888785592 1154794790 -1532926534 962284962 -400733615 1854151193 -665785485 -599410558 -403900550 -1905127842 -616369794 592424005 -2119828759 -1878824290 -1667992471 -1015719128 -365611571 1226250154 1951547433 -1033125203 -1865252877 -1245117210 -166381881 -913159129 -1398433234 1944633791 884847124 -1544692861 347315866 -1855122650 -162360411 -185904361
REM
CELL 1.54180   50.00000   50.00000   50.00000   90.00000   90.00000   90.00000
LATT -1
SFAC C  
C      1  0.4490310000000  0.4908060000000  0.3982730000000 1.0
C      1  0.5932000000000  0.5559560000000  0.4938930000000 1.0
C      1  0.5034960000000  0.5719150000000  0.5255450000000 1.0
C      1  0.4524350000000  0.5680050000000  0.4247230000000 1.0
C      1  0.4722670000000  0.4094860000000  0.5436340000000 1.0
C      1  0.4799710000000  0.4621940000000  0.5548030000000 1.0
C      1  0.4765740000000  0.5063360000000  0.6070070000000 1.0
C      1  0.4741150000000  0.5323190000000  0.4547480000000 1.0
C      1  0.4570310000000  0.4877620000000  0.4372980000000 1.0
C      1  0.4029710000000  0.5495720000000  0.5434970000000 1.0
C      1  0.4267730000000  0.4832640000000  0.4219910000000 1.0
C      1  0.5454480000000  0.4577300000000  0.5439650000000 1.0
C      1  0.4865880000000  0.6058940000000  0.4588880000000 1.0
C      1  0.5798980000000  0.5413860000000  0.5284940000000 1.0
C      1  0.4929730000000  0.4438960000000  0.4776060000000 1.0
C      1  0.5455460000000  0.5520640000000  0.4770600000000 1.0
C      1  0.5605120000000  0.4435650000000  0.4195260000000 1.0
C      1  0.5416300000000  0.5391660000000  0.4116160000000 1.0
C      1  0.5029550000000  0.5182240000000  0.5711650000000 1.0
C      1  0.5452990000000  0.5030580000000  0.5101000000000 1.0
C      1  0.5747120000000  0.4956550000000  0.5641490000000 1.0
C      1  0.5391670000000  0.5252900000000  0.5561420000000 1.0
C      1  0.5013900000000  0.6046990000000  0.5188690000000 1.0
C      1  0.4756170000000  0.5032310000000  0.4130750000000 1.0
C      1  0.4729680000000  0.4709620000000  0.4760490000000 1.0
C      1  0.5117210000000  0.5093870000000  0.5100310000000 1.0
C      1  0.4725540000000  0.5928960000000  0.4870860000000 1.0
C      1  0.5246330000000  0.4094370000000  0.4359830000000 1.0
C      1  0.5373540000000  0.5698110000000  0.5530570000000 1.0
C      1  0.5354540000000  0.4473910000000  0.4423290000000 1.0
C      1  0.4055040000000  0.4681350000000  0.4647350000000 1.0
C      1  0.4759730000000  0.5247250000000  0.5300190000000 1.0
C      1  0.5770530000000  0.4701650000000  0.4234740000000 1.0
C      1  0.5162640000000  0.5256650000000  0.4043350000000 1.0
C      1  0.4816310000000  0.4470440000000  0.5852150000000 1.0
C      1  0.5010680000000  0.5468190000000  0.4438120000000 1.0
C      1  0.4447190000000  0.5111000000000  0.6022940000000 1.0
C      1  0.5132720000000  0.5456310000000  0.5535630000000 1.0
C      1  0.6019680000000  0.5639960000000  0.5223990000000 1.0
C      1  0.4277580000000  0.5321340000000  0.5925310000000 1.0
C      1  0.4790570000000  0.5562500000000  0.5918150000000 1.0
C      1  0.5584840000000  0.5120930000000  0.5881950000000 1.0
C      1  0.5307260000000  0.5435720000000  0.5841200000000 1.0
C      1  0.4361020000000  0.4937670000000  0.4613200000000 1.0
C      1  0.3910400000000  0.4610920000000  0.4943780000000 1.0
C      1  0.5032030000000  0.5826600000000  0.4860820000000 1.0
C      1  0.4483280000000  0.4225480000000  0.5356610000000 1.0
C      1  0.4151610000000  0.4962070000000  0.5098030000000 1.0
C      1  0.5936250000000  0.5140280000000  0.4565640000000 1.0
C      1  0.5012430000000  0.5068660000000  0.5415220000000 1.0
C      1  0.4541120000000  0.4560650000000  0.5970500000000 1.0
C      1  0.4897000000000  0.3969800000000  0.4988500000000 1.0
C      1  0.5065980000000  0.4893800000000  0.4399450000000 1.0
C      1  0.4536060000000  0.5247920000000  0.4019700000000 1.0
C      1  0.5904790000000  0.5468570000000  0.4619860000000 1.0
C      1  0.5278150000000  0.5998980000000  0.5402460000000 1.0
C      1  0.4920280000000  0.4050600000000  0.4460020000000 1.0
C      1  0.5014660000000  0.4929370000000  0.6075580000000 1.0
C      1  0.4591940000000  0.5191790000000  0.5588420000000 1.0
C      1  0.4511380000000  0.5685180000000  0.5518980000000 1.0
C      1  0.5259730000000  0.5116940000000  0.5954360000000 1.0
C      1  0.4481250000000  0.4620380000000  0.4975830000000 1.0
C      1  0.5637540000000  0.5567140000000  0.4521100000000 1.0
C      1  0.4671880000000  0.4157780000000  0.4895140000000 1.0
C      1  0.4657050000000  0.4568800000000  0.5249070000000 1.0
C      1  0.5068160000000  0.5087250000000  0.4600870000000 1.0
C      1  0.5952840000000  0.4728480000000  0.4852220000000 1.0
C      1  0.5399040000000  0.3953200000000  0.4782630000000 1.0
C      1  0.4056400000000  0.4568790000000  0.5181650000000 1.0
C      1  0.5621840000000  0.4645730000000  0.4862870000000 1.0
C      1  0.5465810000000  0.4239870000000  0.5486520000000 1.0
C      1  0.5001520000000  0.5747130000000  0.4536670000000 1.0
C      1  0.4425960000000  0.5319250000000  0.4526490000000 1.0
C      1  0.5744580000000  0.5345300000000  0.5723300000000 1.0
C      1  0.5350140000000  0.4961790000000  0.5598650000000 1.0
C      1  0.4209290000000  0.5545900000000  0.4664600000000 1.0
C      1  0.4406440000000  0.4322660000000  0.4868630000000 1.0
C      1  0.5358020000000  0.5658020000000  0.5209920000000 1.0
C      1  0.5432080000000  0.4763430000000  0.5790420000000 1.0
C      1  0.4586020000000  0.4596630000000  0.4037240000000 1.0
C      1  0.5225940000000  0.4577060000000  0.5817550000000 1.0
C      1  0.5097610000000  0.5789580000000  0.4112160000000 1.0
C      1  0.6044380000000  0.4425370000000  0.4812320000000 1.0
C      1  0.4488050000000  0.5170360000000  0.4828830000000 1.0
C      1  0.5105920000000  0.4697700000000  0.5063580000000 1.0
C      1  0.6038610000000  0.4854230000000  0.4581950000000 1.0
C      1  0.3865020000000  0.4903030000000  0.4825740000000 1.0
C      1  0.5214580000000  0.4801480000000  0.5352430000000 1.0
C      1  0.5445850000000  0.4701360000000  0.4615570000000 1.0
C      1  0.5537320000000  0.3968630000000  0.5019170000000 1.0
C      1  0.4501690000000  0.4509030000000  0.4595930000000 1.0
C      1  0.5930080000000  0.5192960000000  0.5482350000000 1.0
C      1  0.5905480000000  0.4644590000000  0.5327230000000 1.0
C      1  0.5494930000000  0.6156680000000  0.5273130000000 1.0
C      1  0.5181620000000  0.4296780000000  0.4630520000000 1.0
C      1  0.5064980000000  0.4713190000000  0.3976200000000 1.0
C      1  0.4863290000000  0.4445510000000  0.4441500000000 1.0
C      1  0.4180120000000  0.5633690000000  0.4954020000000 1.0
C      1  0.4398250000000  0.4456920000000  0.4182280000000 1.0
C      1  0.4241330000000  0.4598510000000  0.4437720000000 1.0
C      1  0.5597690000000  0.5106570000000  0.4828310000000 1.0
C      1  0.4107140000000  0.5084130000000  0.4481150000000 1.0
C      1  0.4870450000000  0.4356160000000  0.5088350000000 1.0
C      1  0.5301030000000  0.4839480000000  0.4270230000000 1.0
C      1  0.4522370000000  0.5441830000000  0.5031150000000 1.0
C      1  0.5869240000000  0.4186680000000  0.4979700000000 1.0
C      1  0.5145160000000  0.5537890000000  0.4845670000000 1.0
C      1  0.4920410000000  0.4981560000000  0.4845790000000 1.0
C      1  0.6072290000000  0.4891380000000  0.5418760000000 1.0
C      1  0.5462160000000  0.6206150000000  0.5024640000000 1.0
C      1  0.5292700000000  0.5314860000000  0.4550690000000 1.0
C      1  0.5631640000000  0.5588980000000  0.5666560000000 1.0
C      1  0.5090330000000  0.3986230000000  0.4749200000000 1.0
C      1  0.4819770000000  0.4828650000000  0.5129630000000 1.0
C      1  0.5026670000000  0.4652240000000  0.6013950000000 1.0
C      1  0.4121540000000  0.5368450000000  0.5138810000000 1.0
C      1  0.4014640000000  0.4851040000000  0.5372350000000 1.0
C      1  0.5235920000000  0.4738770000000  0.4821960000000 1.0
C      1  0.5321910000000  0.4571920000000  0.4095370000000 1.0
C      1  0.5618020000000  0.5575990000000  0.5033990000000 1.0
C      1  0.4758010000000  0.5276860000000  0.5835800000000 1.0
C      1  0.5535340000000  0.4037470000000  0.4511900000000 1.0
C      1  0.4857320000000  0.4522000000000  0.4036450000000 1.0
C      1  0.5840700000000  0.4979510000000  0.5019700000000 1.0
C      1  0.5970040000000  0.5241120000000  0.4879040000000 1.0
C      1  0.5757170000000  0.4213930000000  0.4337420000000 1.0
C      1  0.4013320000000  0.5294720000000  0.4660780000000 1.0
C      1  0.4842290000000  0.5513420000000  0.5139390000000 1.0
C      1  0.4310140000000  0.4502770000000  0.5791250000000 1.0
C      1  0.4674480000000  0.6017200000000  0.5167310000000 1.0
C      1  0.5029130000000  0.5001460000000  0.4016670000000 1.0
C      1  0.4326720000000  0.5168130000000  0.4246820000000 1.0
C      1  0.4861240000000  0.3920180000000  0.5253810000000 1.0
C      1  0.4912730000000  0.4211780000000  0.5650660000000 1.0
C      1  0.4563670000000  0.5680160000000  0.4791460000000 1.0
C      1  0.6019430000000  0.4361030000000  0.4491340000000 1.0
C      1  0.5205720000000  0.6023990000000  0.4563260000000 1.0
C      1  0.5490200000000  0.5618710000000  0.4287820000000 1.0
C      1  0.4251960000000  0.4346570000000  0.5154570000000 1.0
C      1  0.4603540000000  0.5058090000000  0.5102890000000 1.0
C      1  0.4390920000000  0.4975090000000  0.5320460000000 1.0
C      1  0.4405570000000  0.4514010000000  0.5477770000000 1.0
C      1  0.4994070000000  0.4263720000000  0.4202860000000 1.0
C      1  0.4840650000000  0.5481690000000  0.4799780000000 1.0
C      1  0.5085530000000  0.4481050000000  0.5556510000000 1.0
C      1  0.4016760000000  0.5225810000000  0.5758200000000 1.0
C      1  0.5691250000000  0.4910740000000  0.5308690000000 1.0
C      1  0.4595800000000  0.4853300000000  0.5568200000000 1.0
C      1  0.5303010000000  0.5839750000000  0.4293330000000 1.0
C      1  0.5507250000000  0.5296460000000  0.5293620000000 1.0
C      1  0.5237310000000  0.4117030000000  0.5604840000000 1.0
C      1  0.3922560000000  0.5169590000000  0.5451090000000 1.0
C      1  0.5700860000000  0.4635270000000  0.5668080000000 1.0
C      1  0.4261230000000  0.4794130000000  0.4887010000000 1.0
C      1  0.4444410000000  0.5898320000000  0.5298190000000 1.0
C      1  0.4433630000000  0.5716090000000  0.4496370000000 1.0
C      1  0.4403270000000  0.5424600000000  0.5325090000000 1.0
C      1  0.6011730000000  0.4656000000000  0.4378970000000 1.0
C      1  0.5826770000000  0.4132280000000  0.4662110000000 1.0
C      1  0.4962140000000  0.5498370000000  0.4119820000000 1.0
C      1  0.5255860000000  0.5374670000000  0.5083880000000 1.0
C      1  0.4179210000000  0.5745150000000  0.5247140000000 1.0
C      1  0.4731660000000  0.5752970000000  0.5695700000000 1.0
C      1  0.5199500000000  0.6097580000000  0.4899600000000 1.0
C      1  0.5142940000000  0.4422300000000  0.5248330000000 1.0
C      1  0.3967900000000  0.5180830000000  0.4949970000000 1.0
C      1  0.4999260000000  0.5830770000000  0.5571370000000 1.0
C      1  0.4659670000000  0.5515310000000  0.4075460000000 1.0
C      1  0.5773260000000  0.4471850000000  0.5098140000000 1.0
C      1  0.5447410000000  0.4497820000000  0.5115860000000 1.0
C      1  0.4839470000000  0.4730690000000  0.4377210000000 1.0
C      1  0.5577060000000  0.4897130000000  0.4385700000000 1.0
C      1  0.4291300000000  0.5487800000000  0.5643700000000 1.0
C      1  0.4271500000000  0.5074540000000  0.5614220000000 1.0
C      1  0.4492340000000  0.4847560000000  0.5875060000000 1.0
C      1  0.4210610000000  0.4749210000000  0.5595720000000 1.0
C      1  0.4663810000000  0.4210880000000  0.4584580000000 1.0
C      1  0.5786860000000  0.4363980000000  0.5481530000000 1.0
C      1  0.5598860000000  0.5169030000000  0.4520710000000 1.0
C      1  0.5692160000000  0.4119280000000  0.5263090000000 1.0
C      1  0.5083750000000  0.5673000000000  0.5861180000000 1.0
END
