TITL C-2778435-5768-235 -0.00135043518291892 125000 -573.121813112221 0 0 101 (C1) n - 1
REM
REM in /home/nfs/bkarasulu/CARBON/AIRSS/Generating-Clusters/REBO/Only-C1/SD-CG/HFTN-CG
REM
REM
REM
REM
REM
REM ./C.cell (11c1c37f851c82e70ff6c80c92926a4b)
REM
REM compiler GCC version 9.2.1 20190827 (Red Hat 9.2.1-1)
REM options -cpp -mtune=generic -march=x86-64 -g -O0 -fpre-include=/usr/include/finclude/math-vector-fortran.h
REM seed 488785721 1545423203 543290442 -953559548 150624453 -935191946 1672108778 -1266707915 962413935 1965888946 -1066420867 -1890869420 -1172964528 681564150 -1915339059 -888915910 1790701331 -1679076647 -1735962264 -1581321866 166585666 553813985 -1243057272 -1819907600 1461617357 -417815094 1687746909 181687438 -2020330163 1049812887 110559976 10301438 -1737508868
REM
CELL 1.54180   50.00000   50.00000   50.00000   90.00000   90.00000   90.00000
LATT -1
SFAC C  
C      1  0.5223960000000  0.4858470000000  0.4193900000000 1.0
C      1  0.5825740000000  0.4969540000000  0.4869350000000 1.0
C      1  0.4450030000000  0.5093310000000  0.5183510000000 1.0
C      1  0.5349800000000  0.4392480000000  0.5366790000000 1.0
C      1  0.4584820000000  0.5322710000000  0.4364510000000 1.0
C      1  0.5934680000000  0.5323140000000  0.5019900000000 1.0
C      1  0.5290910000000  0.5486640000000  0.5676670000000 1.0
C      1  0.5488650000000  0.4248650000000  0.4863220000000 1.0
C      1  0.4425970000000  0.4309700000000  0.5186400000000 1.0
C      1  0.5035240000000  0.5128060000000  0.5452810000000 1.0
C      1  0.4907520000000  0.5248590000000  0.4708970000000 1.0
C      1  0.4101740000000  0.5176910000000  0.4668850000000 1.0
C      1  0.4347610000000  0.4794300000000  0.4332840000000 1.0
C      1  0.5720330000000  0.5139260000000  0.5460860000000 1.0
C      1  0.5666110000000  0.4636440000000  0.5365630000000 1.0
C      1  0.4375920000000  0.5297840000000  0.4728930000000 1.0
C      1  0.4992300000000  0.4583640000000  0.4790140000000 1.0
C      1  0.4842820000000  0.4644420000000  0.5065440000000 1.0
C      1  0.4822280000000  0.5576160000000  0.4399740000000 1.0
C      1  0.4521670000000  0.4169850000000  0.4932010000000 1.0
C      1  0.4404890000000  0.5374780000000  0.5048070000000 1.0
C      1  0.5241510000000  0.5604210000000  0.4782310000000 1.0
C      1  0.4704920000000  0.5448830000000  0.5612050000000 1.0
C      1  0.4939080000000  0.5010920000000  0.4180320000000 1.0
C      1  0.5802040000000  0.5353220000000  0.5258980000000 1.0
C      1  0.4955170000000  0.5632810000000  0.5172990000000 1.0
C      1  0.5360860000000  0.4563490000000  0.4575360000000 1.0
C      1  0.4896060000000  0.4414600000000  0.5560180000000 1.0
C      1  0.5347690000000  0.4858930000000  0.4466600000000 1.0
C      1  0.4232910000000  0.4556990000000  0.5121550000000 1.0
C      1  0.4743040000000  0.5083310000000  0.5359590000000 1.0
C      1  0.4603420000000  0.4957060000000  0.5645360000000 1.0
C      1  0.4759270000000  0.4562830000000  0.4584780000000 1.0
C      1  0.4507550000000  0.5040640000000  0.4433260000000 1.0
C      1  0.5107220000000  0.5062540000000  0.4997280000000 1.0
C      1  0.4744390000000  0.4803450000000  0.4366690000000 1.0
C      1  0.5011970000000  0.6072800000000  0.4894270000000 1.0
C      1  0.5466080000000  0.5575980000000  0.4394680000000 1.0
C      1  0.4398980000000  0.5292950000000  0.5596680000000 1.0
C      1  0.5176880000000  0.4860150000000  0.4762890000000 1.0
C      1  0.4709610000000  0.5629880000000  0.5332320000000 1.0
C      1  0.5502300000000  0.5113580000000  0.4531800000000 1.0
C      1  0.5687310000000  0.5651240000000  0.4538350000000 1.0
C      1  0.5181560000000  0.4301910000000  0.4817100000000 1.0
C      1  0.5434470000000  0.5796290000000  0.5211170000000 1.0
C      1  0.5673040000000  0.4508590000000  0.4987840000000 1.0
C      1  0.4959790000000  0.5771200000000  0.4874280000000 1.0
C      1  0.4583500000000  0.4297550000000  0.5477340000000 1.0
C      1  0.5486960000000  0.4545480000000  0.5620920000000 1.0
C      1  0.4681610000000  0.4686580000000  0.5753950000000 1.0
C      1  0.5875410000000  0.4884250000000  0.5402050000000 1.0
C      1  0.5172800000000  0.4602030000000  0.4040150000000 1.0
C      1  0.4794070000000  0.5175950000000  0.5766030000000 1.0
C      1  0.4390160000000  0.4898850000000  0.4721400000000 1.0
C      1  0.4869550000000  0.5303040000000  0.4206460000000 1.0
C      1  0.4765490000000  0.4350250000000  0.5191450000000 1.0
C      1  0.4729080000000  0.5707460000000  0.4696000000000 1.0
C      1  0.5005140000000  0.4666840000000  0.5760620000000 1.0
C      1  0.5252310000000  0.4972480000000  0.5259190000000 1.0
C      1  0.5335490000000  0.5330310000000  0.4448540000000 1.0
C      1  0.4294130000000  0.4994700000000  0.5570780000000 1.0
C      1  0.4499100000000  0.4778550000000  0.5305120000000 1.0
C      1  0.6142470000000  0.4849870000000  0.5536530000000 1.0
C      1  0.5493710000000  0.5309810000000  0.5649740000000 1.0
C      1  0.5068820000000  0.4134990000000  0.5058120000000 1.0
C      1  0.5059410000000  0.5392650000000  0.4955850000000 1.0
C      1  0.5323200000000  0.4772600000000  0.5728980000000 1.0
C      1  0.5094160000000  0.5658140000000  0.4515940000000 1.0
C      1  0.5034680000000  0.4252360000000  0.4278270000000 1.0
C      1  0.4529250000000  0.4343850000000  0.4708900000000 1.0
C      1  0.5055380000000  0.6323730000000  0.4910910000000 1.0
C      1  0.4399680000000  0.5487250000000  0.5359270000000 1.0
C      1  0.5510170000000  0.5636650000000  0.4920030000000 1.0
C      1  0.5834410000000  0.4756270000000  0.5089670000000 1.0
C      1  0.4193150000000  0.4751820000000  0.5400880000000 1.0
C      1  0.5710000000000  0.5156460000000  0.4711730000000 1.0
C      1  0.4458630000000  0.5552790000000  0.4554200000000 1.0
C      1  0.4429330000000  0.4569750000000  0.4478840000000 1.0
C      1  0.5058110000000  0.5263060000000  0.4466890000000 1.0
C      1  0.5166500000000  0.4350910000000  0.4492820000000 1.0
C      1  0.4775270000000  0.4687840000000  0.5399940000000 1.0
C      1  0.5071300000000  0.4997010000000  0.5748950000000 1.0
C      1  0.4884230000000  0.4690500000000  0.4077560000000 1.0
C      1  0.4305160000000  0.4576350000000  0.4792080000000 1.0
C      1  0.5766470000000  0.5461880000000  0.4780870000000 1.0
C      1  0.4237740000000  0.4885160000000  0.5029170000000 1.0
C      1  0.5043290000000  0.5419480000000  0.5586640000000 1.0
C      1  0.5630260000000  0.5563480000000  0.5235980000000 1.0
C      1  0.5392100000000  0.4635010000000  0.4884680000000 1.0
C      1  0.5184560000000  0.5792300000000  0.5311040000000 1.0
C      1  0.5567620000000  0.4266420000000  0.5185960000000 1.0
C      1  0.4643660000000  0.5101420000000  0.4804300000000 1.0
C      1  0.4449350000000  0.5753530000000  0.5164820000000 1.0
C      1  0.5379970000000  0.4687830000000  0.5198280000000 1.0
C      1  0.4533690000000  0.4442110000000  0.5732250000000 1.0
C      1  0.4018630000000  0.4999790000000  0.4828680000000 1.0
C      1  0.4448540000000  0.5663400000000  0.4868390000000 1.0
C      1  0.5074010000000  0.4276650000000  0.5329630000000 1.0
C      1  0.4805590000000  0.4968860000000  0.5054890000000 1.0
C      1  0.5622080000000  0.4053670000000  0.4676600000000 1.0
C      1  0.5410470000000  0.5016750000000  0.5534480000000 1.0
END
