TITL C-2778437-8639-317 -0.000150060077153883 125000 -992.415860303927 0 0 171 (C1) n - 1
REM
REM in /home/nfs/bkarasulu/CARBON/AIRSS/Generating-Clusters/REBO/Only-C1/SD-CG/HFTN-CG
REM
REM
REM
REM
REM
REM ./C.cell (11c1c37f851c82e70ff6c80c92926a4b)
REM
REM compiler GCC version 9.2.1 20190827 (Red Hat 9.2.1-1)
REM options -cpp -mtune=generic -march=x86-64 -g -O0 -fpre-include=/usr/include/finclude/math-vector-fortran.h
REM seed -1973480720 -99766299 1905730080 -1565260793 1822789781 -1060092525 -1011201553 -571512736 1138920790 -1980768748 463339430 -612685124 -12089091 -1547266794 -1149652938 -860938000 291633271 -72882990 -1168112413 2038951132 -880306723 -1485854189 -1459907417 -1213109326 -1397861750 -998282738 1570635314 -1125993795 -2090943658 -1617072963 1537032446 1608862458 991500980
REM
CELL 1.54180   50.00000   50.00000   50.00000   90.00000   90.00000   90.00000
LATT -1
SFAC C  
C      1  0.5503140000000  0.4379540000000  0.5351380000000 1.0
C      1  0.5042020000000  0.4725540000000  0.4584610000000 1.0
C      1  0.4636780000000  0.4424500000000  0.4859680000000 1.0
C      1  0.4293950000000  0.5210660000000  0.4349920000000 1.0
C      1  0.4761160000000  0.4433130000000  0.4225830000000 1.0
C      1  0.5401300000000  0.4672560000000  0.5211790000000 1.0
C      1  0.4615070000000  0.4192080000000  0.4420030000000 1.0
C      1  0.4899790000000  0.5015450000000  0.4580760000000 1.0
C      1  0.4984720000000  0.4358660000000  0.5139570000000 1.0
C      1  0.5323890000000  0.5080460000000  0.4783150000000 1.0
C      1  0.5258910000000  0.5918010000000  0.4740780000000 1.0
C      1  0.5075550000000  0.4606410000000  0.5313960000000 1.0
C      1  0.4959180000000  0.5822370000000  0.5576230000000 1.0
C      1  0.4533390000000  0.5751510000000  0.4388840000000 1.0
C      1  0.5805070000000  0.4720000000000  0.5227100000000 1.0
C      1  0.4400280000000  0.4791490000000  0.4138910000000 1.0
C      1  0.4711350000000  0.6025530000000  0.4803710000000 1.0
C      1  0.5963420000000  0.5642570000000  0.5028340000000 1.0
C      1  0.4320200000000  0.4472420000000  0.5496990000000 1.0
C      1  0.5810100000000  0.4307570000000  0.4859750000000 1.0
C      1  0.5140360000000  0.5468970000000  0.5319800000000 1.0
C      1  0.5795040000000  0.4074490000000  0.5069140000000 1.0
C      1  0.4362190000000  0.5295160000000  0.4875310000000 1.0
C      1  0.4967350000000  0.4102840000000  0.5446490000000 1.0
C      1  0.3828720000000  0.5314360000000  0.4952730000000 1.0
C      1  0.5080680000000  0.5244060000000  0.4007690000000 1.0
C      1  0.4403440000000  0.5632270000000  0.4614730000000 1.0
C      1  0.4797970000000  0.5183750000000  0.5418730000000 1.0
C      1  0.4060640000000  0.5208260000000  0.5365040000000 1.0
C      1  0.5646240000000  0.4987660000000  0.4569420000000 1.0
C      1  0.5299890000000  0.3894880000000  0.4926700000000 1.0
C      1  0.4815970000000  0.4867080000000  0.3940540000000 1.0
C      1  0.4328130000000  0.4916150000000  0.4512620000000 1.0
C      1  0.4689420000000  0.4357500000000  0.5319850000000 1.0
C      1  0.4566500000000  0.4610650000000  0.5132840000000 1.0
C      1  0.4604040000000  0.5221630000000  0.5635960000000 1.0
C      1  0.5391920000000  0.5343040000000  0.4241700000000 1.0
C      1  0.5332440000000  0.4626660000000  0.3946080000000 1.0
C      1  0.5849330000000  0.4674320000000  0.4707540000000 1.0
C      1  0.4755450000000  0.5914500000000  0.4482130000000 1.0
C      1  0.5071870000000  0.5087710000000  0.5532710000000 1.0
C      1  0.4674720000000  0.5303300000000  0.4423280000000 1.0
C      1  0.4670840000000  0.5001110000000  0.5167900000000 1.0
C      1  0.5631100000000  0.5494350000000  0.4263290000000 1.0
C      1  0.5998990000000  0.4890910000000  0.4923100000000 1.0
C      1  0.3967260000000  0.4725280000000  0.4841150000000 1.0
C      1  0.4236900000000  0.4719190000000  0.5578930000000 1.0
C      1  0.4450270000000  0.4424430000000  0.4607430000000 1.0
C      1  0.4545380000000  0.4531080000000  0.5918750000000 1.0
C      1  0.4421430000000  0.4413300000000  0.4264260000000 1.0
C      1  0.5608330000000  0.4710560000000  0.4948050000000 1.0
C      1  0.5503700000000  0.4761470000000  0.4499400000000 1.0
C      1  0.4144800000000  0.4983450000000  0.4753970000000 1.0
C      1  0.4556790000000  0.5212480000000  0.5970670000000 1.0
C      1  0.4813760000000  0.5554440000000  0.5271600000000 1.0
C      1  0.4114090000000  0.4528620000000  0.5054950000000 1.0
C      1  0.4868120000000  0.5720620000000  0.5007450000000 1.0
C      1  0.4558540000000  0.5206650000000  0.4660720000000 1.0
C      1  0.4263650000000  0.4346030000000  0.5263140000000 1.0
C      1  0.4926960000000  0.4517840000000  0.5802160000000 1.0
C      1  0.5331210000000  0.5633190000000  0.5152460000000 1.0
C      1  0.5442770000000  0.5004950000000  0.4188830000000 1.0
C      1  0.5281930000000  0.4391810000000  0.5676770000000 1.0
C      1  0.4641790000000  0.4822250000000  0.4593120000000 1.0
C      1  0.4597130000000  0.5643760000000  0.4833350000000 1.0
C      1  0.5487450000000  0.5151550000000  0.5395080000000 1.0
C      1  0.4438200000000  0.5076750000000  0.4130720000000 1.0
C      1  0.4093980000000  0.4980740000000  0.5610510000000 1.0
C      1  0.4817870000000  0.5436290000000  0.4042720000000 1.0
C      1  0.5968090000000  0.5151740000000  0.4734100000000 1.0
C      1  0.5456300000000  0.6026580000000  0.4944420000000 1.0
C      1  0.5070220000000  0.4005470000000  0.4203630000000 1.0
C      1  0.5693120000000  0.4852120000000  0.5824550000000 1.0
C      1  0.4221130000000  0.5422000000000  0.4525570000000 1.0
C      1  0.5352170000000  0.5945550000000  0.5255190000000 1.0
C      1  0.5176380000000  0.4225230000000  0.4387900000000 1.0
C      1  0.5680580000000  0.4351260000000  0.4253780000000 1.0
C      1  0.3793790000000  0.4995830000000  0.4943550000000 1.0
C      1  0.4738950000000  0.4049690000000  0.5200260000000 1.0
C      1  0.5218810000000  0.5400420000000  0.4740490000000 1.0
C      1  0.4204980000000  0.5359680000000  0.5609940000000 1.0
C      1  0.5107960000000  0.5529950000000  0.4199690000000 1.0
C      1  0.5619420000000  0.5319950000000  0.5633590000000 1.0
C      1  0.5143790000000  0.5663290000000  0.5740020000000 1.0
C      1  0.4262530000000  0.5156420000000  0.5847270000000 1.0
C      1  0.4915120000000  0.5464050000000  0.6004200000000 1.0
C      1  0.4935340000000  0.5144420000000  0.4851250000000 1.0
C      1  0.4946270000000  0.5285870000000  0.5126330000000 1.0
C      1  0.4304460000000  0.4796350000000  0.5067460000000 1.0
C      1  0.5233140000000  0.5208360000000  0.4480940000000 1.0
C      1  0.4572120000000  0.4381430000000  0.5640540000000 1.0
C      1  0.5242280000000  0.4444750000000  0.4928130000000 1.0
C      1  0.5906010000000  0.5099460000000  0.4402430000000 1.0
C      1  0.4530700000000  0.4934410000000  0.4872340000000 1.0
C      1  0.4392110000000  0.5552310000000  0.5561050000000 1.0
C      1  0.4224740000000  0.4257450000000  0.4880420000000 1.0
C      1  0.4362220000000  0.5763300000000  0.5132420000000 1.0
C      1  0.4461080000000  0.5269420000000  0.5140300000000 1.0
C      1  0.5680210000000  0.5827130000000  0.5065750000000 1.0
C      1  0.5835540000000  0.5410100000000  0.4461650000000 1.0
C      1  0.3935300000000  0.5439080000000  0.5184950000000 1.0
C      1  0.4056540000000  0.5294540000000  0.4756390000000 1.0
C      1  0.4217340000000  0.4644430000000  0.4370500000000 1.0
C      1  0.5195870000000  0.5388940000000  0.5610040000000 1.0
C      1  0.5919870000000  0.5043900000000  0.5195750000000 1.0
C      1  0.5346570000000  0.5656570000000  0.4556100000000 1.0
C      1  0.5229610000000  0.4198620000000  0.5444030000000 1.0
C      1  0.5039960000000  0.5883820000000  0.5263000000000 1.0
C      1  0.5082790000000  0.4782820000000  0.3959030000000 1.0
C      1  0.5792480000000  0.4306230000000  0.4566050000000 1.0
C      1  0.4701210000000  0.4008380000000  0.4617950000000 1.0
C      1  0.5673140000000  0.4126310000000  0.5280500000000 1.0
C      1  0.5302460000000  0.5173580000000  0.5846280000000 1.0
C      1  0.4084720000000  0.5684100000000  0.5143250000000 1.0
C      1  0.5597490000000  0.5514760000000  0.4681610000000 1.0
C      1  0.4747390000000  0.4130140000000  0.4876570000000 1.0
C      1  0.5021280000000  0.5195770000000  0.6024290000000 1.0
C      1  0.4954690000000  0.5180240000000  0.4317730000000 1.0
C      1  0.5311800000000  0.5107930000000  0.3930890000000 1.0
C      1  0.5602720000000  0.4507500000000  0.5650960000000 1.0
C      1  0.5166090000000  0.4652340000000  0.5956660000000 1.0
C      1  0.5067300000000  0.5790740000000  0.4414250000000 1.0
C      1  0.5237550000000  0.4964320000000  0.5277650000000 1.0
C      1  0.5702330000000  0.5169160000000  0.5845240000000 1.0
C      1  0.4679710000000  0.5495430000000  0.5825210000000 1.0
C      1  0.5181720000000  0.4799880000000  0.4271110000000 1.0
C      1  0.5643130000000  0.5137510000000  0.4859100000000 1.0
C      1  0.5919310000000  0.5661800000000  0.5334770000000 1.0
C      1  0.5671440000000  0.5228330000000  0.5161180000000 1.0
C      1  0.4125170000000  0.4498620000000  0.4659020000000 1.0
C      1  0.4422160000000  0.4134180000000  0.5109320000000 1.0
C      1  0.5713800000000  0.5569240000000  0.5566460000000 1.0
C      1  0.5487400000000  0.4304660000000  0.4958950000000 1.0
C      1  0.4713630000000  0.5936070000000  0.5328990000000 1.0
C      1  0.5261010000000  0.4699150000000  0.5575480000000 1.0
C      1  0.5263270000000  0.4111820000000  0.4689780000000 1.0
C      1  0.4472280000000  0.4915930000000  0.5716630000000 1.0
C      1  0.6019650000000  0.4950840000000  0.5468220000000 1.0
C      1  0.4785880000000  0.4739160000000  0.5359900000000 1.0
C      1  0.4643510000000  0.5754820000000  0.5611670000000 1.0
C      1  0.4857090000000  0.4248280000000  0.5666200000000 1.0
C      1  0.5591370000000  0.5501590000000  0.5015960000000 1.0
C      1  0.4629820000000  0.4719600000000  0.6055750000000 1.0
C      1  0.5422260000000  0.4948900000000  0.5663790000000 1.0
C      1  0.4514260000000  0.5536670000000  0.5279110000000 1.0
C      1  0.5755150000000  0.4867140000000  0.4208880000000 1.0
C      1  0.5638970000000  0.5850150000000  0.5402020000000 1.0
C      1  0.5261180000000  0.5663840000000  0.5988610000000 1.0
C      1  0.4834780000000  0.4676860000000  0.4843810000000 1.0
C      1  0.4742450000000  0.4765470000000  0.5661450000000 1.0
C      1  0.4695280000000  0.5132010000000  0.3994810000000 1.0
C      1  0.4755520000000  0.4986680000000  0.6059890000000 1.0
C      1  0.4606380000000  0.5527510000000  0.4243490000000 1.0
C      1  0.5052420000000  0.4096740000000  0.4956360000000 1.0
C      1  0.5858660000000  0.4605030000000  0.4404800000000 1.0
C      1  0.5150640000000  0.5661420000000  0.4901850000000 1.0
C      1  0.5007210000000  0.6055710000000  0.4634640000000 1.0
C      1  0.5451610000000  0.4644240000000  0.5926650000000 1.0
C      1  0.5007760000000  0.4907930000000  0.5803200000000 1.0
C      1  0.4566160000000  0.5978180000000  0.5048240000000 1.0
C      1  0.5360730000000  0.5416140000000  0.6067170000000 1.0
C      1  0.5039440000000  0.4489450000000  0.4334920000000 1.0
C      1  0.5972330000000  0.4554380000000  0.4991360000000 1.0
C      1  0.5919210000000  0.5474070000000  0.4787180000000 1.0
C      1  0.5525620000000  0.4615970000000  0.4190830000000 1.0
C      1  0.5494910000000  0.4184480000000  0.4465660000000 1.0
C      1  0.5840920000000  0.4716300000000  0.5565930000000 1.0
C      1  0.4093940000000  0.5035150000000  0.5098800000000 1.0
C      1  0.4989890000000  0.4895880000000  0.5054800000000 1.0
C      1  0.4635850000000  0.4667190000000  0.4044960000000 1.0
C      1  0.5314180000000  0.4738590000000  0.4771410000000 1.0
END
