TITL C-2778430-5657-84 0.000996427370331305 125000 -930.628502013311 0 0 159 (C1) n - 1
REM
REM in /home/nfs/bkarasulu/CARBON/AIRSS/Generating-Clusters/REBO/Only-C1/SD-CG/HFTN-CG
REM
REM
REM
REM
REM
REM ./C.cell (11c1c37f851c82e70ff6c80c92926a4b)
REM
REM compiler GCC version 9.2.1 20190827 (Red Hat 9.2.1-1)
REM options -cpp -mtune=generic -march=x86-64 -g -O0 -fpre-include=/usr/include/finclude/math-vector-fortran.h
REM seed 1964472051 1178281030 832067930 -643422366 -1771659303 324064573 -879179417 1540082050 1804732489 1379151214 -67743872 139289239 1308185024 1923153011 -1132934462 1361354790 -1281209868 177892372 1184664770 1471989665 -1399424478 -997161799 -728940445 -1997948994 -1057240135 -742160274 1993392041 -1000888919 -19744815 -269091897 1016152564 1521492930 -564711689
REM
CELL 1.54180   50.00000   50.00000   50.00000   90.00000   90.00000   90.00000
LATT -1
SFAC C  
C      1  0.4994520000000  0.5750040000000  0.5448000000000 1.0
C      1  0.5010950000000  0.5566860000000  0.5738490000000 1.0
C      1  0.4894490000000  0.4949220000000  0.4740040000000 1.0
C      1  0.4055640000000  0.4707290000000  0.4902110000000 1.0
C      1  0.4723620000000  0.5760440000000  0.4237740000000 1.0
C      1  0.5071570000000  0.4311880000000  0.5746740000000 1.0
C      1  0.4652640000000  0.4474780000000  0.5464650000000 1.0
C      1  0.5114180000000  0.4847830000000  0.5215860000000 1.0
C      1  0.5604110000000  0.4241640000000  0.5196500000000 1.0
C      1  0.4730740000000  0.5570980000000  0.5541490000000 1.0
C      1  0.4645720000000  0.4181130000000  0.4015400000000 1.0
C      1  0.4106880000000  0.5277880000000  0.4748790000000 1.0
C      1  0.4472200000000  0.4480900000000  0.5198720000000 1.0
C      1  0.4354110000000  0.4556700000000  0.4151800000000 1.0
C      1  0.4391200000000  0.4777550000000  0.5720590000000 1.0
C      1  0.4736250000000  0.3619370000000  0.5358600000000 1.0
C      1  0.4683600000000  0.4889070000000  0.4286760000000 1.0
C      1  0.5151730000000  0.5064090000000  0.5753060000000 1.0
C      1  0.4762320000000  0.4410850000000  0.5780080000000 1.0
C      1  0.5823290000000  0.5566310000000  0.5491340000000 1.0
C      1  0.5226310000000  0.5708650000000  0.4305380000000 1.0
C      1  0.6022810000000  0.5079790000000  0.4479150000000 1.0
C      1  0.4916790000000  0.4459620000000  0.4578780000000 1.0
C      1  0.5601660000000  0.5390530000000  0.4753870000000 1.0
C      1  0.4607240000000  0.6300120000000  0.4694030000000 1.0
C      1  0.5439490000000  0.5470140000000  0.4277340000000 1.0
C      1  0.5179000000000  0.5224640000000  0.3889400000000 1.0
C      1  0.5956890000000  0.4309320000000  0.4641750000000 1.0
C      1  0.5246260000000  0.5476160000000  0.4020960000000 1.0
C      1  0.4493140000000  0.4650870000000  0.4689190000000 1.0
C      1  0.5475280000000  0.3988500000000  0.4836030000000 1.0
C      1  0.5045870000000  0.5594510000000  0.5144030000000 1.0
C      1  0.4399050000000  0.4489510000000  0.4482300000000 1.0
C      1  0.4430090000000  0.4472620000000  0.5762180000000 1.0
C      1  0.5671150000000  0.5118660000000  0.5154970000000 1.0
C      1  0.4868000000000  0.5023230000000  0.5616620000000 1.0
C      1  0.5088710000000  0.5407340000000  0.4527740000000 1.0
C      1  0.4729640000000  0.5093320000000  0.4530710000000 1.0
C      1  0.3807340000000  0.4934980000000  0.5378800000000 1.0
C      1  0.5174940000000  0.6024910000000  0.5038100000000 1.0
C      1  0.6030090000000  0.5420930000000  0.5306750000000 1.0
C      1  0.4498530000000  0.4197750000000  0.5570420000000 1.0
C      1  0.4851170000000  0.4955230000000  0.5282660000000 1.0
C      1  0.5545730000000  0.5694350000000  0.4873740000000 1.0
C      1  0.5807850000000  0.5744850000000  0.5047900000000 1.0
C      1  0.4572940000000  0.4787920000000  0.5232310000000 1.0
C      1  0.4352640000000  0.5578840000000  0.4629410000000 1.0
C      1  0.5467910000000  0.5890060000000  0.5364870000000 1.0
C      1  0.3962470000000  0.4491520000000  0.4756820000000 1.0
C      1  0.5896960000000  0.4590780000000  0.5423640000000 1.0
C      1  0.4752600000000  0.5442060000000  0.5921700000000 1.0
C      1  0.3799020000000  0.5623510000000  0.5161190000000 1.0
C      1  0.5360560000000  0.4399630000000  0.5073110000000 1.0
C      1  0.6034710000000  0.5144680000000  0.5322160000000 1.0
C      1  0.5381030000000  0.4290370000000  0.5640850000000 1.0
C      1  0.5519820000000  0.5410450000000  0.5549090000000 1.0
C      1  0.4433580000000  0.5232570000000  0.5446180000000 1.0
C      1  0.4549250000000  0.5759860000000  0.5054160000000 1.0
C      1  0.4370240000000  0.4175620000000  0.4840180000000 1.0
C      1  0.4753850000000  0.4205400000000  0.4517650000000 1.0
C      1  0.4478790000000  0.4044390000000  0.5322080000000 1.0
C      1  0.5393330000000  0.4774230000000  0.4456290000000 1.0
C      1  0.4659590000000  0.5582520000000  0.4522360000000 1.0
C      1  0.5190180000000  0.4141120000000  0.4932640000000 1.0
C      1  0.4995320000000  0.4534200000000  0.5978520000000 1.0
C      1  0.4385470000000  0.4229780000000  0.5117910000000 1.0
C      1  0.4738960000000  0.5439640000000  0.4157490000000 1.0
C      1  0.5174200000000  0.5983780000000  0.5331940000000 1.0
C      1  0.4663960000000  0.4938820000000  0.5820160000000 1.0
C      1  0.5977250000000  0.5512510000000  0.5041680000000 1.0
C      1  0.4974600000000  0.3989300000000  0.5060210000000 1.0
C      1  0.4781330000000  0.4665380000000  0.4776790000000 1.0
C      1  0.6122520000000  0.4870780000000  0.4916340000000 1.0
C      1  0.6029380000000  0.5075390000000  0.4760230000000 1.0
C      1  0.4298880000000  0.4847260000000  0.4115960000000 1.0
C      1  0.5244230000000  0.5361050000000  0.5744160000000 1.0
C      1  0.4921910000000  0.4678150000000  0.4336930000000 1.0
C      1  0.4733870000000  0.3885990000000  0.4886580000000 1.0
C      1  0.5697210000000  0.4765280000000  0.5842390000000 1.0
C      1  0.4227490000000  0.5076830000000  0.4598140000000 1.0
C      1  0.5471350000000  0.5422860000000  0.5944700000000 1.0
C      1  0.4463360000000  0.5824570000000  0.4792360000000 1.0
C      1  0.5655520000000  0.4624760000000  0.4400370000000 1.0
C      1  0.4163300000000  0.4341040000000  0.4332620000000 1.0
C      1  0.5661670000000  0.4017610000000  0.5050560000000 1.0
C      1  0.5664240000000  0.4362210000000  0.5465630000000 1.0
C      1  0.5011250000000  0.5045840000000  0.3877000000000 1.0
C      1  0.5120010000000  0.5801850000000  0.4575730000000 1.0
C      1  0.4633100000000  0.5202350000000  0.5185150000000 1.0
C      1  0.5103670000000  0.5288060000000  0.5245230000000 1.0
C      1  0.5217120000000  0.4914520000000  0.4784980000000 1.0
C      1  0.5691590000000  0.4687660000000  0.5174280000000 1.0
C      1  0.5604170000000  0.4950000000000  0.4885850000000 1.0
C      1  0.4368220000000  0.4912820000000  0.5415670000000 1.0
C      1  0.5575770000000  0.5288520000000  0.4456160000000 1.0
C      1  0.4484720000000  0.5037070000000  0.3973860000000 1.0
C      1  0.5128810000000  0.4357780000000  0.5422180000000 1.0
C      1  0.4497390000000  0.5387240000000  0.5808540000000 1.0
C      1  0.5116310000000  0.5554110000000  0.4811360000000 1.0
C      1  0.5298230000000  0.5907500000000  0.4818520000000 1.0
C      1  0.5861520000000  0.4821290000000  0.5626900000000 1.0
C      1  0.5399890000000  0.4847930000000  0.5760350000000 1.0
C      1  0.5409740000000  0.4872910000000  0.4069980000000 1.0
C      1  0.4231830000000  0.5689650000000  0.5384250000000 1.0
C      1  0.4552710000000  0.4438890000000  0.3956630000000 1.0
C      1  0.5449910000000  0.5046990000000  0.4617420000000 1.0
C      1  0.6001450000000  0.4828280000000  0.5199710000000 1.0
C      1  0.4544900000000  0.5303170000000  0.4682590000000 1.0
C      1  0.5788480000000  0.5100840000000  0.4322630000000 1.0
C      1  0.4821390000000  0.4614520000000  0.5075990000000 1.0
C      1  0.4115110000000  0.5039510000000  0.5275570000000 1.0
C      1  0.5071170000000  0.5147140000000  0.4954650000000 1.0
C      1  0.4153940000000  0.5551660000000  0.4401820000000 1.0
C      1  0.4225760000000  0.5446150000000  0.4182060000000 1.0
C      1  0.4985800000000  0.5659720000000  0.4072490000000 1.0
C      1  0.5180000000000  0.4809610000000  0.5979490000000 1.0
C      1  0.5704640000000  0.4429440000000  0.4632690000000 1.0
C      1  0.5369360000000  0.5692590000000  0.5146460000000 1.0
C      1  0.4421590000000  0.5536180000000  0.5540260000000 1.0
C      1  0.4600230000000  0.4065400000000  0.4715150000000 1.0
C      1  0.4808410000000  0.5265800000000  0.6139610000000 1.0
C      1  0.4746830000000  0.4988730000000  0.6098270000000 1.0
C      1  0.4747600000000  0.4107840000000  0.4255880000000 1.0
C      1  0.5177980000000  0.4755580000000  0.4243420000000 1.0
C      1  0.4479420000000  0.5304880000000  0.4103090000000 1.0
C      1  0.5432020000000  0.5304700000000  0.5266880000000 1.0
C      1  0.4056330000000  0.5538780000000  0.5218750000000 1.0
C      1  0.4364930000000  0.5055560000000  0.4352390000000 1.0
C      1  0.5179940000000  0.4392440000000  0.4706490000000 1.0
C      1  0.4619020000000  0.6027500000000  0.4669280000000 1.0
C      1  0.5346020000000  0.5354060000000  0.4938450000000 1.0
C      1  0.4717930000000  0.4616940000000  0.3831180000000 1.0
C      1  0.4716810000000  0.5524730000000  0.5112920000000 1.0
C      1  0.4702570000000  0.3857710000000  0.5220090000000 1.0
C      1  0.4306620000000  0.4850750000000  0.4805530000000 1.0
C      1  0.4160750000000  0.5284400000000  0.5084640000000 1.0
C      1  0.4761120000000  0.4895260000000  0.3954720000000 1.0
C      1  0.5627740000000  0.4618440000000  0.4871320000000 1.0
C      1  0.4929940000000  0.4792180000000  0.6181600000000 1.0
C      1  0.4831640000000  0.5871140000000  0.4523560000000 1.0
C      1  0.5659230000000  0.5436140000000  0.6167770000000 1.0
C      1  0.5560220000000  0.4488190000000  0.5828040000000 1.0
C      1  0.4433160000000  0.5141850000000  0.4933730000000 1.0
C      1  0.5844240000000  0.5269260000000  0.4903230000000 1.0
C      1  0.5354960000000  0.4696650000000  0.5239490000000 1.0
C      1  0.5746540000000  0.5814320000000  0.5324590000000 1.0
C      1  0.4992510000000  0.4467050000000  0.5224660000000 1.0
C      1  0.5304290000000  0.4647170000000  0.4846860000000 1.0
C      1  0.5941860000000  0.5462400000000  0.6075090000000 1.0
C      1  0.4895810000000  0.5301070000000  0.5468440000000 1.0
C      1  0.5680090000000  0.4863670000000  0.4195390000000 1.0
C      1  0.5456780000000  0.4231500000000  0.4650270000000 1.0
C      1  0.5790060000000  0.5038510000000  0.5464410000000 1.0
C      1  0.3940700000000  0.4809390000000  0.5122650000000 1.0
C      1  0.5492300000000  0.4651880000000  0.5519090000000 1.0
C      1  0.4384260000000  0.5882060000000  0.5248910000000 1.0
C      1  0.5766440000000  0.5459310000000  0.5784420000000 1.0
C      1  0.4895320000000  0.5294290000000  0.4376360000000 1.0
C      1  0.4339590000000  0.5112620000000  0.5758930000000 1.0
END
