TITL C-2778431-5191-279 0.0189716818620812 125000 -344.182625304223 0 0 60 (C1) n - 1
REM
REM in /home/nfs/bkarasulu/CARBON/AIRSS/Generating-Clusters/REBO/Only-C1/SD-CG/HFTN-CG
REM
REM
REM
REM
REM
REM ./C.cell (11c1c37f851c82e70ff6c80c92926a4b)
REM
REM compiler GCC version 9.2.1 20190827 (Red Hat 9.2.1-1)
REM options -cpp -mtune=generic -march=x86-64 -g -O0 -fpre-include=/usr/include/finclude/math-vector-fortran.h
REM seed 1310473832 758727303 -265037319 1367340817 -1962195467 2043601198 -419734488 988785541 1129106228 1618638555 511644237 -517918575 -1765464531 1434997317 974375513 -2127899262 -1752283468 -585677809 1958876827 549534549 1827117012 -1447970948 -960047608 1541916984 -868729747 -931008915 1043093076 -990442414 -1727499618 -1670874335 -1661125663 -1385784432 -2028279425
REM
CELL 1.54180   50.00000   50.00000   50.00000   90.00000   90.00000   90.00000
LATT -1
SFAC C  
C      1  0.5068420000000  0.5176100000000  0.5209510000000 1.0
C      1  0.5612120000000  0.5124900000000  0.4553560000000 1.0
C      1  0.4669220000000  0.5046320000000  0.5486190000000 1.0
C      1  0.4905680000000  0.5627830000000  0.5146680000000 1.0
C      1  0.5164170000000  0.4900860000000  0.5092260000000 1.0
C      1  0.5123410000000  0.5488980000000  0.5693080000000 1.0
C      1  0.4576130000000  0.4855530000000  0.4563390000000 1.0
C      1  0.5060260000000  0.4558200000000  0.4277130000000 1.0
C      1  0.5322020000000  0.5310430000000  0.4756240000000 1.0
C      1  0.4955280000000  0.4787270000000  0.4242020000000 1.0
C      1  0.4500040000000  0.5222660000000  0.5326730000000 1.0
C      1  0.4890720000000  0.5512100000000  0.4838640000000 1.0
C      1  0.4949720000000  0.4980460000000  0.4498230000000 1.0
C      1  0.5190080000000  0.5183210000000  0.5698780000000 1.0
C      1  0.4566150000000  0.5116360000000  0.5034070000000 1.0
C      1  0.4459090000000  0.4635450000000  0.5289340000000 1.0
C      1  0.4204580000000  0.5234960000000  0.4700120000000 1.0
C      1  0.4926810000000  0.4766470000000  0.4961780000000 1.0
C      1  0.5154670000000  0.5354140000000  0.4483640000000 1.0
C      1  0.5410910000000  0.5797420000000  0.5029030000000 1.0
C      1  0.5377640000000  0.4741880000000  0.4642690000000 1.0
C      1  0.5533600000000  0.5161680000000  0.5362900000000 1.0
C      1  0.4808750000000  0.5308180000000  0.5087530000000 1.0
C      1  0.5396760000000  0.5694400000000  0.5298870000000 1.0
C      1  0.5236580000000  0.4332140000000  0.5049430000000 1.0
C      1  0.4830650000000  0.5522330000000  0.5522830000000 1.0
C      1  0.5065010000000  0.4352660000000  0.4821020000000 1.0
C      1  0.3955460000000  0.5291010000000  0.4641120000000 1.0
C      1  0.4789500000000  0.4355530000000  0.4814630000000 1.0
C      1  0.5652370000000  0.5096650000000  0.4823030000000 1.0
C      1  0.4498730000000  0.4385130000000  0.4399080000000 1.0
C      1  0.5116470000000  0.5661720000000  0.5399350000000 1.0
C      1  0.4890160000000  0.5409750000000  0.4577340000000 1.0
C      1  0.5474820000000  0.5601650000000  0.4845330000000 1.0
C      1  0.4866230000000  0.4619810000000  0.5598800000000 1.0
C      1  0.4694390000000  0.5171140000000  0.4544940000000 1.0
C      1  0.5580270000000  0.4606200000000  0.4793080000000 1.0
C      1  0.5180840000000  0.4508120000000  0.4567060000000 1.0
C      1  0.4663610000000  0.4772210000000  0.5481570000000 1.0
C      1  0.5139420000000  0.4328920000000  0.5322160000000 1.0
C      1  0.4421290000000  0.4603500000000  0.4960390000000 1.0
C      1  0.4263280000000  0.4496520000000  0.5428040000000 1.0
C      1  0.4935370000000  0.5198560000000  0.5500160000000 1.0
C      1  0.5574530000000  0.5460550000000  0.5325890000000 1.0
C      1  0.4548680000000  0.5487170000000  0.5396650000000 1.0
C      1  0.5292740000000  0.5337620000000  0.5080360000000 1.0
C      1  0.5393550000000  0.5021890000000  0.5580840000000 1.0
C      1  0.5243330000000  0.4999610000000  0.4642740000000 1.0
C      1  0.5419100000000  0.4713790000000  0.5217960000000 1.0
C      1  0.4644040000000  0.4820700000000  0.5063630000000 1.0
C      1  0.5422770000000  0.5237780000000  0.4377310000000 1.0
C      1  0.4290570000000  0.4489410000000  0.4771810000000 1.0
C      1  0.5480910000000  0.4489710000000  0.5034380000000 1.0
C      1  0.4639780000000  0.4537060000000  0.4582840000000 1.0
C      1  0.5496380000000  0.4994950000000  0.5094190000000 1.0
C      1  0.5628510000000  0.5359300000000  0.5006790000000 1.0
C      1  0.4457370000000  0.5178090000000  0.4759990000000 1.0
C      1  0.5333410000000  0.4740160000000  0.5511390000000 1.0
C      1  0.5125340000000  0.4534740000000  0.5527570000000 1.0
C      1  0.4928330000000  0.4698140000000  0.4663910000000 1.0
END
