TITL C-2778437-8639-96 0.0048449376888807 125000 -1026.86934109411 0 0 175 (C1) n - 1
REM
REM in /home/nfs/bkarasulu/CARBON/AIRSS/Generating-Clusters/REBO/Only-C1/SD-CG/HFTN-CG
REM
REM
REM
REM
REM
REM ./C.cell (11c1c37f851c82e70ff6c80c92926a4b)
REM
REM compiler GCC version 9.2.1 20190827 (Red Hat 9.2.1-1)
REM options -cpp -mtune=generic -march=x86-64 -g -O0 -fpre-include=/usr/include/finclude/math-vector-fortran.h
REM seed -797192167 -1772479737 -1328032244 -532391044 -766353093 719886204 1335468733 -1866951186 310363684 -1494733428 1062302358 2145294433 -1570950983 832094148 1012237720 -417964966 -653814072 1493094651 457767092 1622388556 -757261156 -1777302055 355445731 1214707917 -1451357938 -685887779 -1151580214 595154796 -1014388279 -785156588 136033602 -1944048080 -950554491
REM
CELL 1.54180   50.00000   50.00000   50.00000   90.00000   90.00000   90.00000
LATT -1
SFAC C  
C      1  0.4368980000000  0.4578590000000  0.4387650000000 1.0
C      1  0.3945190000000  0.5018160000000  0.4951330000000 1.0
C      1  0.5926900000000  0.4768040000000  0.5512530000000 1.0
C      1  0.5911980000000  0.4282100000000  0.4899700000000 1.0
C      1  0.4454990000000  0.5726690000000  0.5383490000000 1.0
C      1  0.5384890000000  0.5980660000000  0.5373690000000 1.0
C      1  0.5475520000000  0.4389770000000  0.5060960000000 1.0
C      1  0.4437680000000  0.5430930000000  0.5565960000000 1.0
C      1  0.5580200000000  0.4795700000000  0.5981860000000 1.0
C      1  0.4479180000000  0.4908990000000  0.5626550000000 1.0
C      1  0.4215620000000  0.4660480000000  0.4156760000000 1.0
C      1  0.5729230000000  0.4665200000000  0.4693760000000 1.0
C      1  0.5324910000000  0.5684970000000  0.5305420000000 1.0
C      1  0.4645910000000  0.4044410000000  0.4878730000000 1.0
C      1  0.4259420000000  0.4955950000000  0.4074020000000 1.0
C      1  0.5533480000000  0.4819080000000  0.5522790000000 1.0
C      1  0.4231960000000  0.5254770000000  0.4332680000000 1.0
C      1  0.5153590000000  0.5354480000000  0.4517790000000 1.0
C      1  0.5338700000000  0.4349680000000  0.4779360000000 1.0
C      1  0.5425930000000  0.5194240000000  0.5448830000000 1.0
C      1  0.5373970000000  0.4656120000000  0.4163340000000 1.0
C      1  0.5975950000000  0.4576520000000  0.4884300000000 1.0
C      1  0.5448070000000  0.5272820000000  0.4551090000000 1.0
C      1  0.4265950000000  0.5387610000000  0.5298230000000 1.0
C      1  0.4858410000000  0.5433400000000  0.5952670000000 1.0
C      1  0.4981590000000  0.6026590000000  0.4664360000000 1.0
C      1  0.4673000000000  0.4669700000000  0.5198820000000 1.0
C      1  0.5720660000000  0.4204400000000  0.5103120000000 1.0
C      1  0.5663510000000  0.4942320000000  0.5753030000000 1.0
C      1  0.4571620000000  0.4544410000000  0.4741110000000 1.0
C      1  0.5533820000000  0.5148890000000  0.4842950000000 1.0
C      1  0.4779100000000  0.5008890000000  0.4809760000000 1.0
C      1  0.5510310000000  0.4482200000000  0.5883000000000 1.0
C      1  0.4153540000000  0.5508670000000  0.4842070000000 1.0
C      1  0.5245860000000  0.5871280000000  0.4960900000000 1.0
C      1  0.4341200000000  0.4606480000000  0.5205850000000 1.0
C      1  0.5156170000000  0.5519080000000  0.5535780000000 1.0
C      1  0.4328950000000  0.5074120000000  0.4605800000000 1.0
C      1  0.4870960000000  0.4376110000000  0.4498030000000 1.0
C      1  0.5312640000000  0.4428510000000  0.5356870000000 1.0
C      1  0.4851570000000  0.5524620000000  0.5406510000000 1.0
C      1  0.4630800000000  0.5771510000000  0.5629380000000 1.0
C      1  0.3975230000000  0.4322750000000  0.4817710000000 1.0
C      1  0.4749470000000  0.5217700000000  0.4363350000000 1.0
C      1  0.5414500000000  0.4644190000000  0.4665710000000 1.0
C      1  0.4889960000000  0.3948340000000  0.4748700000000 1.0
C      1  0.5619780000000  0.5372050000000  0.5036430000000 1.0
C      1  0.4480380000000  0.5210970000000  0.4022410000000 1.0
C      1  0.5842870000000  0.5441170000000  0.4536500000000 1.0
C      1  0.4989340000000  0.4223420000000  0.5469420000000 1.0
C      1  0.4043750000000  0.4971560000000  0.4336930000000 1.0
C      1  0.5113970000000  0.5566250000000  0.5870860000000 1.0
C      1  0.4413980000000  0.5376370000000  0.4665110000000 1.0
C      1  0.5144100000000  0.4875680000000  0.4405760000000 1.0
C      1  0.5411940000000  0.5456290000000  0.5835330000000 1.0
C      1  0.4982540000000  0.4516510000000  0.5563970000000 1.0
C      1  0.4625170000000  0.5529110000000  0.5823260000000 1.0
C      1  0.5470210000000  0.4697690000000  0.5107420000000 1.0
C      1  0.4489870000000  0.5848610000000  0.5130130000000 1.0
C      1  0.4032410000000  0.4334540000000  0.4538290000000 1.0
C      1  0.5566760000000  0.4391390000000  0.5572810000000 1.0
C      1  0.5567430000000  0.5668420000000  0.5696970000000 1.0
C      1  0.5629750000000  0.5625460000000  0.4505220000000 1.0
C      1  0.5143650000000  0.4580450000000  0.4485490000000 1.0
C      1  0.5756010000000  0.4907900000000  0.4924930000000 1.0
C      1  0.4079140000000  0.4948340000000  0.5256990000000 1.0
C      1  0.4896230000000  0.5511340000000  0.5076040000000 1.0
C      1  0.4836780000000  0.5463010000000  0.4583590000000 1.0
C      1  0.5357500000000  0.5197870000000  0.5721850000000 1.0
C      1  0.5123460000000  0.6323380000000  0.5040070000000 1.0
C      1  0.4976930000000  0.5091630000000  0.4566590000000 1.0
C      1  0.5221320000000  0.5834110000000  0.4414220000000 1.0
C      1  0.3939730000000  0.5330070000000  0.5023280000000 1.0
C      1  0.5840940000000  0.5695010000000  0.4965370000000 1.0
C      1  0.5377340000000  0.6150100000000  0.5098670000000 1.0
C      1  0.5888780000000  0.5263220000000  0.4301930000000 1.0
C      1  0.4390520000000  0.4943150000000  0.5238540000000 1.0
C      1  0.4927580000000  0.5464420000000  0.4068690000000 1.0
C      1  0.5729230000000  0.4809950000000  0.5244610000000 1.0
C      1  0.4677530000000  0.5418030000000  0.4880870000000 1.0
C      1  0.5136510000000  0.4414110000000  0.4196710000000 1.0
C      1  0.4409700000000  0.4530110000000  0.5924070000000 1.0
C      1  0.4287090000000  0.4203500000000  0.4490690000000 1.0
C      1  0.5363740000000  0.4887350000000  0.4855770000000 1.0
C      1  0.5580060000000  0.5259060000000  0.4235980000000 1.0
C      1  0.4572870000000  0.4137420000000  0.5682070000000 1.0
C      1  0.4477390000000  0.4754610000000  0.6087800000000 1.0
C      1  0.3868980000000  0.5361650000000  0.5296030000000 1.0
C      1  0.5230200000000  0.5404780000000  0.4189010000000 1.0
C      1  0.4384430000000  0.5422510000000  0.5054530000000 1.0
C      1  0.4838840000000  0.5188570000000  0.5353630000000 1.0
C      1  0.3962630000000  0.5159770000000  0.5473720000000 1.0
C      1  0.5387040000000  0.5897700000000  0.5658560000000 1.0
C      1  0.4501350000000  0.5660630000000  0.4498900000000 1.0
C      1  0.4400400000000  0.5743340000000  0.4818500000000 1.0
C      1  0.5119980000000  0.5854100000000  0.5748330000000 1.0
C      1  0.4879130000000  0.4630660000000  0.4190020000000 1.0
C      1  0.5142040000000  0.5017180000000  0.5881500000000 1.0
C      1  0.3856720000000  0.4713550000000  0.5054480000000 1.0
C      1  0.4954770000000  0.5799410000000  0.4990890000000 1.0
C      1  0.5171280000000  0.5392750000000  0.5214500000000 1.0
C      1  0.4041010000000  0.4954870000000  0.4677040000000 1.0
C      1  0.5297870000000  0.4086960000000  0.5406580000000 1.0
C      1  0.4942950000000  0.4043970000000  0.4489300000000 1.0
C      1  0.4707280000000  0.5846640000000  0.4760150000000 1.0
C      1  0.4555850000000  0.4873390000000  0.4651720000000 1.0
C      1  0.5890820000000  0.5321230000000  0.5496960000000 1.0
C      1  0.4528270000000  0.4994340000000  0.4271540000000 1.0
C      1  0.5423250000000  0.4962940000000  0.4301290000000 1.0
C      1  0.5128910000000  0.3986880000000  0.4921670000000 1.0
C      1  0.5209340000000  0.5084790000000  0.5255710000000 1.0
C      1  0.4726770000000  0.6021720000000  0.5113930000000 1.0
C      1  0.4852760000000  0.4905170000000  0.5760480000000 1.0
C      1  0.6026230000000  0.5088990000000  0.4894600000000 1.0
C      1  0.4710110000000  0.4102530000000  0.5437840000000 1.0
C      1  0.4805650000000  0.5184670000000  0.3969770000000 1.0
C      1  0.4277880000000  0.4447120000000  0.5464620000000 1.0
C      1  0.4725210000000  0.4699560000000  0.5514910000000 1.0
C      1  0.5854180000000  0.4682120000000  0.4395340000000 1.0
C      1  0.4651410000000  0.4719910000000  0.4369880000000 1.0
C      1  0.4629240000000  0.4341510000000  0.5876780000000 1.0
C      1  0.4915090000000  0.4963150000000  0.4195360000000 1.0
C      1  0.5817060000000  0.5791590000000  0.5236930000000 1.0
C      1  0.4788560000000  0.5047760000000  0.6262020000000 1.0
C      1  0.5398740000000  0.5626160000000  0.4340030000000 1.0
C      1  0.5252620000000  0.4705050000000  0.5551180000000 1.0
C      1  0.5959370000000  0.4965990000000  0.4359250000000 1.0
C      1  0.5453850000000  0.5616760000000  0.5016480000000 1.0
C      1  0.5905160000000  0.5382110000000  0.4847520000000 1.0
C      1  0.5032260000000  0.4318350000000  0.4792720000000 1.0
C      1  0.5151560000000  0.5174460000000  0.3958470000000 1.0
C      1  0.4427790000000  0.5472670000000  0.4223090000000 1.0
C      1  0.5797330000000  0.4570220000000  0.5689620000000 1.0
C      1  0.5177330000000  0.4497180000000  0.5961130000000 1.0
C      1  0.4241500000000  0.4595810000000  0.5694830000000 1.0
C      1  0.5607670000000  0.4513090000000  0.4341140000000 1.0
C      1  0.4911350000000  0.5173990000000  0.6049420000000 1.0
C      1  0.3995640000000  0.4670990000000  0.4490130000000 1.0
C      1  0.5650980000000  0.5288470000000  0.5320070000000 1.0
C      1  0.5786660000000  0.5621630000000  0.5492980000000 1.0
C      1  0.4584180000000  0.4953020000000  0.5931820000000 1.0
C      1  0.5088260000000  0.4164980000000  0.5157700000000 1.0
C      1  0.4132670000000  0.4551090000000  0.4995310000000 1.0
C      1  0.4152210000000  0.4899270000000  0.5590030000000 1.0
C      1  0.5572160000000  0.4301950000000  0.4536340000000 1.0
C      1  0.5666660000000  0.5010380000000  0.4512540000000 1.0
C      1  0.4910370000000  0.5833230000000  0.5551880000000 1.0
C      1  0.4909360000000  0.4404820000000  0.5940640000000 1.0
C      1  0.4703360000000  0.4998580000000  0.5117910000000 1.0
C      1  0.4487000000000  0.4231190000000  0.4722550000000 1.0
C      1  0.5669590000000  0.6042780000000  0.5240040000000 1.0
C      1  0.5158980000000  0.4762120000000  0.5171000000000 1.0
C      1  0.5034560000000  0.4951930000000  0.5499660000000 1.0
C      1  0.5054120000000  0.4689720000000  0.3920210000000 1.0
C      1  0.4914800000000  0.5767530000000  0.4449780000000 1.0
C      1  0.5527710000000  0.3988700000000  0.5190480000000 1.0
C      1  0.4547810000000  0.5154450000000  0.5450910000000 1.0
C      1  0.4637580000000  0.4045490000000  0.5167950000000 1.0
C      1  0.5585840000000  0.5800580000000  0.4764130000000 1.0
C      1  0.4723350000000  0.5625270000000  0.4237430000000 1.0
C      1  0.4792690000000  0.4501480000000  0.4950000000000 1.0
C      1  0.5254070000000  0.4898790000000  0.3948510000000 1.0
C      1  0.4906840000000  0.6190620000000  0.4930640000000 1.0
C      1  0.4253660000000  0.4618110000000  0.4706470000000 1.0
C      1  0.5815780000000  0.4186520000000  0.4641320000000 1.0
C      1  0.5280870000000  0.4780930000000  0.6010330000000 1.0
C      1  0.4996640000000  0.4142140000000  0.4200970000000 1.0
C      1  0.5394920000000  0.3861900000000  0.4975730000000 1.0
C      1  0.5322310000000  0.5992630000000  0.4665970000000 1.0
C      1  0.4726000000000  0.4175230000000  0.4115680000000 1.0
C      1  0.5058140000000  0.4934870000000  0.4921170000000 1.0
C      1  0.4569920000000  0.4329350000000  0.4345860000000 1.0
C      1  0.5024710000000  0.4483040000000  0.5168050000000 1.0
C      1  0.5931770000000  0.5071450000000  0.5645830000000 1.0
C      1  0.6142510000000  0.4810790000000  0.4932110000000 1.0
END
