TITL C-2778436-5916-371 -0.00268815145319232 125000 -814.772592575236 0 0 140 (C1) n - 1
REM
REM in /home/nfs/bkarasulu/CARBON/AIRSS/Generating-Clusters/REBO/Only-C1/SD-CG/HFTN-CG
REM
REM
REM
REM
REM
REM ./C.cell (11c1c37f851c82e70ff6c80c92926a4b)
REM
REM compiler GCC version 9.2.1 20190827 (Red Hat 9.2.1-1)
REM options -cpp -mtune=generic -march=x86-64 -g -O0 -fpre-include=/usr/include/finclude/math-vector-fortran.h
REM seed -1459473036 -1528847870 1278031271 1446113809 840183328 551971221 -273847756 -1707379754 -1835722034 1313807621 -482895926 -1466407362 55755200 -994236605 1646361315 1967149525 -750153869 -1753292348 -830339978 671106027 724322555 -1627892807 -40234556 589686995 26465114 -2053966195 1571759331 1787089898 430250522 1506879344 -1564204353 -1910073540 -679895694
REM
CELL 1.54180   50.00000   50.00000   50.00000   90.00000   90.00000   90.00000
LATT -1
SFAC C  
C      1  0.5630860000000  0.5222360000000  0.5262840000000 1.0
C      1  0.5187240000000  0.5673470000000  0.4319270000000 1.0
C      1  0.3950580000000  0.5027500000000  0.4671050000000 1.0
C      1  0.4483040000000  0.5735530000000  0.4562740000000 1.0
C      1  0.4797960000000  0.4527350000000  0.5403740000000 1.0
C      1  0.4986650000000  0.5989840000000  0.4456380000000 1.0
C      1  0.5244010000000  0.5462820000000  0.5857360000000 1.0
C      1  0.4670300000000  0.4420940000000  0.4634750000000 1.0
C      1  0.4397170000000  0.5161800000000  0.4750200000000 1.0
C      1  0.5372000000000  0.4288760000000  0.5250300000000 1.0
C      1  0.5835560000000  0.4653710000000  0.4438640000000 1.0
C      1  0.4667210000000  0.4221610000000  0.5609430000000 1.0
C      1  0.5671040000000  0.5100520000000  0.4574800000000 1.0
C      1  0.4274120000000  0.5221800000000  0.5033080000000 1.0
C      1  0.4941950000000  0.5334470000000  0.4663360000000 1.0
C      1  0.4289100000000  0.4676080000000  0.4408370000000 1.0
C      1  0.5098460000000  0.4764280000000  0.4182180000000 1.0
C      1  0.5467000000000  0.4322490000000  0.4867490000000 1.0
C      1  0.5212920000000  0.5153160000000  0.4761390000000 1.0
C      1  0.5861430000000  0.5024200000000  0.5329480000000 1.0
C      1  0.4669200000000  0.4551330000000  0.5700370000000 1.0
C      1  0.5135550000000  0.4403390000000  0.4347490000000 1.0
C      1  0.4902350000000  0.4413980000000  0.4180210000000 1.0
C      1  0.5706710000000  0.5622430000000  0.4810790000000 1.0
C      1  0.4685100000000  0.6128470000000  0.4882970000000 1.0
C      1  0.5720500000000  0.4730910000000  0.4711330000000 1.0
C      1  0.5263790000000  0.5862990000000  0.4543710000000 1.0
C      1  0.4874330000000  0.6112820000000  0.5155380000000 1.0
C      1  0.4420970000000  0.4846440000000  0.4801970000000 1.0
C      1  0.4057080000000  0.4868010000000  0.5448790000000 1.0
C      1  0.5357960000000  0.4985950000000  0.4496840000000 1.0
C      1  0.4909490000000  0.5081340000000  0.5923570000000 1.0
C      1  0.4670710000000  0.4345850000000  0.4328060000000 1.0
C      1  0.4743580000000  0.5293820000000  0.5092180000000 1.0
C      1  0.4319340000000  0.5691910000000  0.4816110000000 1.0
C      1  0.5145040000000  0.4086300000000  0.5295270000000 1.0
C      1  0.4572560000000  0.5672730000000  0.5472500000000 1.0
C      1  0.4594960000000  0.4805120000000  0.4312300000000 1.0
C      1  0.4878050000000  0.5439720000000  0.5568410000000 1.0
C      1  0.5003570000000  0.4818790000000  0.5223050000000 1.0
C      1  0.5237430000000  0.5702250000000  0.5153470000000 1.0
C      1  0.5151640000000  0.3950710000000  0.4792810000000 1.0
C      1  0.5140120000000  0.4565150000000  0.4574090000000 1.0
C      1  0.4682480000000  0.5256970000000  0.4816660000000 1.0
C      1  0.5467010000000  0.5044870000000  0.5927310000000 1.0
C      1  0.4238730000000  0.4974870000000  0.4307680000000 1.0
C      1  0.4960960000000  0.4180610000000  0.5516380000000 1.0
C      1  0.4689750000000  0.3910120000000  0.4595510000000 1.0
C      1  0.4597620000000  0.4280120000000  0.5278500000000 1.0
C      1  0.5836160000000  0.5531550000000  0.5410830000000 1.0
C      1  0.5014560000000  0.5948430000000  0.5586360000000 1.0
C      1  0.4465730000000  0.4726810000000  0.5085480000000 1.0
C      1  0.4327760000000  0.4346290000000  0.4825180000000 1.0
C      1  0.4610480000000  0.5209020000000  0.5939190000000 1.0
C      1  0.5481090000000  0.4925660000000  0.5257340000000 1.0
C      1  0.4953110000000  0.5215740000000  0.4369730000000 1.0
C      1  0.4198920000000  0.5608190000000  0.5361150000000 1.0
C      1  0.5864200000000  0.5007480000000  0.4829440000000 1.0
C      1  0.5187730000000  0.5085370000000  0.5228500000000 1.0
C      1  0.4966690000000  0.5976660000000  0.4853440000000 1.0
C      1  0.4319210000000  0.5507960000000  0.5089390000000 1.0
C      1  0.5501590000000  0.4119560000000  0.4431690000000 1.0
C      1  0.4269270000000  0.4975330000000  0.5637320000000 1.0
C      1  0.5364540000000  0.5433510000000  0.4888470000000 1.0
C      1  0.5166650000000  0.4682940000000  0.5769730000000 1.0
C      1  0.4705180000000  0.4849870000000  0.3930730000000 1.0
C      1  0.4797160000000  0.5143170000000  0.4076290000000 1.0
C      1  0.3988220000000  0.4603880000000  0.5463960000000 1.0
C      1  0.4840310000000  0.4404250000000  0.4922470000000 1.0
C      1  0.5027580000000  0.3999070000000  0.5055290000000 1.0
C      1  0.4634110000000  0.5943030000000  0.5273950000000 1.0
C      1  0.4889390000000  0.4771140000000  0.5839580000000 1.0
C      1  0.4353900000000  0.4425780000000  0.5136630000000 1.0
C      1  0.4481460000000  0.5940490000000  0.4905320000000 1.0
C      1  0.4582950000000  0.4866910000000  0.5718610000000 1.0
C      1  0.4474570000000  0.5036670000000  0.4097950000000 1.0
C      1  0.5606910000000  0.4736970000000  0.5032570000000 1.0
C      1  0.4062470000000  0.4976650000000  0.5140200000000 1.0
C      1  0.5412170000000  0.5446970000000  0.5227670000000 1.0
C      1  0.4897020000000  0.4648150000000  0.3984760000000 1.0
C      1  0.4321880000000  0.5901110000000  0.5402070000000 1.0
C      1  0.5329960000000  0.5089910000000  0.4169630000000 1.0
C      1  0.4338780000000  0.5469900000000  0.5616400000000 1.0
C      1  0.5098530000000  0.4708730000000  0.4944050000000 1.0
C      1  0.5407900000000  0.4597450000000  0.4716850000000 1.0
C      1  0.5008580000000  0.5209380000000  0.5650920000000 1.0
C      1  0.5670520000000  0.4648370000000  0.5672880000000 1.0
C      1  0.5249600000000  0.5160590000000  0.5519310000000 1.0
C      1  0.5675580000000  0.4643670000000  0.4241780000000 1.0
C      1  0.4578720000000  0.4140790000000  0.4774040000000 1.0
C      1  0.4377500000000  0.4975500000000  0.5235950000000 1.0
C      1  0.4619190000000  0.5672040000000  0.5076200000000 1.0
C      1  0.4738490000000  0.4114640000000  0.5048280000000 1.0
C      1  0.5489420000000  0.5208430000000  0.5670460000000 1.0
C      1  0.5094610000000  0.6094480000000  0.5353390000000 1.0
C      1  0.5532500000000  0.4381250000000  0.5510410000000 1.0
C      1  0.5572390000000  0.5237840000000  0.4278740000000 1.0
C      1  0.5098960000000  0.4471740000000  0.5444610000000 1.0
C      1  0.5172620000000  0.4406410000000  0.4994490000000 1.0
C      1  0.5965660000000  0.4896020000000  0.5104720000000 1.0
C      1  0.4959800000000  0.3854190000000  0.4601590000000 1.0
C      1  0.5337960000000  0.5556010000000  0.5543420000000 1.0
C      1  0.6157540000000  0.4445190000000  0.5006680000000 1.0
C      1  0.4383190000000  0.5251790000000  0.5784900000000 1.0
C      1  0.5042590000000  0.5666060000000  0.5579650000000 1.0
C      1  0.5347570000000  0.4405110000000  0.5747800000000 1.0
C      1  0.4078700000000  0.4798000000000  0.4854350000000 1.0
C      1  0.4544370000000  0.5082910000000  0.5462370000000 1.0
C      1  0.4168340000000  0.5139390000000  0.4528850000000 1.0
C      1  0.5217780000000  0.5214470000000  0.5987950000000 1.0
C      1  0.4646290000000  0.5351940000000  0.5380660000000 1.0
C      1  0.5433520000000  0.5735940000000  0.4738470000000 1.0
C      1  0.4953600000000  0.5624020000000  0.5032770000000 1.0
C      1  0.5349000000000  0.4888070000000  0.4882270000000 1.0
C      1  0.5855330000000  0.4881920000000  0.5559130000000 1.0
C      1  0.4927610000000  0.4768410000000  0.4685830000000 1.0
C      1  0.5413720000000  0.4347190000000  0.4282850000000 1.0
C      1  0.5462650000000  0.4767610000000  0.5864870000000 1.0
C      1  0.5399740000000  0.4079190000000  0.4700750000000 1.0
C      1  0.4199620000000  0.4550250000000  0.4658090000000 1.0
C      1  0.5790000000000  0.5475200000000  0.5102240000000 1.0
C      1  0.5644360000000  0.4441170000000  0.5132570000000 1.0
C      1  0.5306390000000  0.5954920000000  0.5226560000000 1.0
C      1  0.4904090000000  0.4900650000000  0.4383650000000 1.0
C      1  0.5253120000000  0.4759570000000  0.5448330000000 1.0
C      1  0.4971580000000  0.6224370000000  0.4320480000000 1.0
C      1  0.5059930000000  0.5304070000000  0.5076970000000 1.0
C      1  0.4750520000000  0.5819870000000  0.4531030000000 1.0
C      1  0.4097850000000  0.4411150000000  0.5306770000000 1.0
C      1  0.5649710000000  0.5452740000000  0.5589020000000 1.0
C      1  0.5872080000000  0.5332020000000  0.4819530000000 1.0
C      1  0.5379390000000  0.4713190000000  0.4290220000000 1.0
C      1  0.5828920000000  0.4508950000000  0.5401630000000 1.0
C      1  0.4963260000000  0.5663220000000  0.4715180000000 1.0
C      1  0.4747960000000  0.4635210000000  0.5117950000000 1.0
C      1  0.6007730000000  0.4621130000000  0.5157450000000 1.0
C      1  0.5480170000000  0.5376560000000  0.4573820000000 1.0
C      1  0.5117190000000  0.5130640000000  0.4015880000000 1.0
C      1  0.5216360000000  0.5408030000000  0.4381950000000 1.0
C      1  0.4622790000000  0.4727290000000  0.4620580000000 1.0
END
