TITL C-2778434-4341-378 -0.16610058098379 125000 -808.545414896312 0 0 139 (C1) n - 1
REM
REM in /home/nfs/bkarasulu/CARBON/AIRSS/Generating-Clusters/REBO/Only-C1/SD-CG/HFTN-CG
REM
REM
REM
REM
REM
REM ./C.cell (11c1c37f851c82e70ff6c80c92926a4b)
REM
REM compiler GCC version 9.2.1 20190827 (Red Hat 9.2.1-1)
REM options -cpp -mtune=generic -march=x86-64 -g -O0 -fpre-include=/usr/include/finclude/math-vector-fortran.h
REM seed -1749014094 727382055 -335185929 1503045446 1592451240 -1456542256 1434503575 -1755836440 -1000821471 1418324986 1109572167 1687125441 652178943 166429138 -1656735631 -56679652 -90375172 824842661 -1749342121 34482682 -2073023333 1827664023 1015854891 -519784794 -1338281562 -51778853 1642768167 1862251938 1546400592 -752753441 89537842 -1926852118 -525779659
REM
CELL 1.54180   50.00000   50.00000   50.00000   90.00000   90.00000   90.00000
LATT -1
SFAC C  
C      1  0.4698590000000  0.5425700000000  0.4128070000000 1.0
C      1  0.4219120000000  0.4931800000000  0.4368220000000 1.0
C      1  0.4948460000000  0.4485640000000  0.5433270000000 1.0
C      1  0.4791910000000  0.4679460000000  0.5666520000000 1.0
C      1  0.5033430000000  0.5566340000000  0.5920650000000 1.0
C      1  0.4830580000000  0.4488890000000  0.4252020000000 1.0
C      1  0.5513510000000  0.5187520000000  0.5938020000000 1.0
C      1  0.5289740000000  0.4108960000000  0.4780630000000 1.0
C      1  0.5592930000000  0.4631910000000  0.5606220000000 1.0
C      1  0.5231960000000  0.5886740000000  0.5024270000000 1.0
C      1  0.4530370000000  0.4597620000000  0.4268040000000 1.0
C      1  0.4603900000000  0.4106620000000  0.5438700000000 1.0
C      1  0.5664770000000  0.4659230000000  0.4243210000000 1.0
C      1  0.5985380000000  0.5159600000000  0.4763880000000 1.0
C      1  0.4981060000000  0.5243140000000  0.4569540000000 1.0
C      1  0.5583520000000  0.4868190000000  0.4951060000000 1.0
C      1  0.5319610000000  0.4729600000000  0.5751790000000 1.0
C      1  0.5968530000000  0.4966900000000  0.5214760000000 1.0
C      1  0.5196410000000  0.5214330000000  0.5044400000000 1.0
C      1  0.4847280000000  0.4258140000000  0.4501390000000 1.0
C      1  0.4073250000000  0.5030070000000  0.5467920000000 1.0
C      1  0.4208490000000  0.4918080000000  0.5688490000000 1.0
C      1  0.5102720000000  0.5792800000000  0.5790410000000 1.0
C      1  0.4580670000000  0.5685450000000  0.4291850000000 1.0
C      1  0.5415740000000  0.5063450000000  0.5231950000000 1.0
C      1  0.5804590000000  0.5496880000000  0.5557570000000 1.0
C      1  0.5951980000000  0.5033020000000  0.5491880000000 1.0
C      1  0.5461160000000  0.5836620000000  0.4837850000000 1.0
C      1  0.4113190000000  0.5184180000000  0.4450520000000 1.0
C      1  0.4374100000000  0.5346160000000  0.4073590000000 1.0
C      1  0.5059860000000  0.4802370000000  0.4417610000000 1.0
C      1  0.5378640000000  0.5694800000000  0.4535570000000 1.0
C      1  0.4917700000000  0.5106350000000  0.6104420000000 1.0
C      1  0.5514530000000  0.4461120000000  0.4690550000000 1.0
C      1  0.4570590000000  0.5521150000000  0.5557670000000 1.0
C      1  0.4385040000000  0.5629210000000  0.5061480000000 1.0
C      1  0.4861900000000  0.4146880000000  0.4830150000000 1.0
C      1  0.5355660000000  0.4950330000000  0.5961720000000 1.0
C      1  0.5153770000000  0.4287850000000  0.4599710000000 1.0
C      1  0.5577330000000  0.4379680000000  0.5474120000000 1.0
C      1  0.4767580000000  0.4744750000000  0.4551470000000 1.0
C      1  0.5116100000000  0.4254960000000  0.5627110000000 1.0
C      1  0.5547470000000  0.4626300000000  0.5163210000000 1.0
C      1  0.5776610000000  0.5499560000000  0.4785480000000 1.0
C      1  0.4911860000000  0.5182690000000  0.5571650000000 1.0
C      1  0.4321460000000  0.4505550000000  0.5108990000000 1.0
C      1  0.4359130000000  0.5681620000000  0.4726190000000 1.0
C      1  0.5777610000000  0.4789060000000  0.4695290000000 1.0
C      1  0.4720400000000  0.4292270000000  0.5599050000000 1.0
C      1  0.5199470000000  0.5031360000000  0.4601570000000 1.0
C      1  0.5902720000000  0.4593190000000  0.4897650000000 1.0
C      1  0.5015670000000  0.5852210000000  0.5524500000000 1.0
C      1  0.4455600000000  0.4872280000000  0.4218360000000 1.0
C      1  0.4593560000000  0.5328160000000  0.5762620000000 1.0
C      1  0.5151110000000  0.5603120000000  0.4754980000000 1.0
C      1  0.5607960000000  0.4289450000000  0.5147520000000 1.0
C      1  0.5075170000000  0.4277520000000  0.5072930000000 1.0
C      1  0.4546150000000  0.4823240000000  0.5026880000000 1.0
C      1  0.4847200000000  0.4786360000000  0.4081480000000 1.0
C      1  0.5273830000000  0.4684440000000  0.4785380000000 1.0
C      1  0.4292130000000  0.5047130000000  0.5224730000000 1.0
C      1  0.4131080000000  0.5326520000000  0.5321340000000 1.0
C      1  0.4735900000000  0.5771270000000  0.5488880000000 1.0
C      1  0.5424450000000  0.5641230000000  0.5388350000000 1.0
C      1  0.4329280000000  0.5640560000000  0.4422190000000 1.0
C      1  0.5472140000000  0.4830170000000  0.4548530000000 1.0
C      1  0.5232040000000  0.4531040000000  0.5248840000000 1.0
C      1  0.4790820000000  0.4933740000000  0.4900050000000 1.0
C      1  0.4461120000000  0.5085030000000  0.5769140000000 1.0
C      1  0.5326000000000  0.4324030000000  0.4283500000000 1.0
C      1  0.5592570000000  0.5385900000000  0.5717830000000 1.0
C      1  0.5004530000000  0.4879140000000  0.5559850000000 1.0
C      1  0.4685510000000  0.5754690000000  0.4762960000000 1.0
C      1  0.5626230000000  0.5272750000000  0.4630680000000 1.0
C      1  0.4227580000000  0.4403340000000  0.4819810000000 1.0
C      1  0.4854650000000  0.4530400000000  0.5017040000000 1.0
C      1  0.5874010000000  0.5114170000000  0.4487910000000 1.0
C      1  0.5077760000000  0.4542460000000  0.5805680000000 1.0
C      1  0.4581740000000  0.4368840000000  0.5001740000000 1.0
C      1  0.4204710000000  0.5412740000000  0.4298640000000 1.0
C      1  0.4646750000000  0.5181330000000  0.5176160000000 1.0
C      1  0.5308260000000  0.5394930000000  0.5437110000000 1.0
C      1  0.4471870000000  0.4762470000000  0.4699670000000 1.0
C      1  0.5036140000000  0.5382270000000  0.5379330000000 1.0
C      1  0.5618150000000  0.5315110000000  0.5108190000000 1.0
C      1  0.4581260000000  0.4282730000000  0.4683590000000 1.0
C      1  0.3979370000000  0.4979030000000  0.4908820000000 1.0
C      1  0.5143500000000  0.4962500000000  0.6148200000000 1.0
C      1  0.5881130000000  0.4705930000000  0.5162510000000 1.0
C      1  0.3851340000000  0.5040040000000  0.5150800000000 1.0
C      1  0.4412190000000  0.4753260000000  0.5324440000000 1.0
C      1  0.4225500000000  0.4784220000000  0.4937410000000 1.0
C      1  0.5484840000000  0.5128770000000  0.5545290000000 1.0
C      1  0.5403970000000  0.4783270000000  0.4111870000000 1.0
C      1  0.4910410000000  0.4988010000000  0.5274820000000 1.0
C      1  0.3904210000000  0.4727880000000  0.4711330000000 1.0
C      1  0.5566680000000  0.4432060000000  0.4403610000000 1.0
C      1  0.5703730000000  0.5605260000000  0.5265900000000 1.0
C      1  0.4269570000000  0.5389680000000  0.4855880000000 1.0
C      1  0.5368360000000  0.4103400000000  0.5065010000000 1.0
C      1  0.5053280000000  0.5669820000000  0.4435160000000 1.0
C      1  0.4364910000000  0.4430660000000  0.4508020000000 1.0
C      1  0.4983090000000  0.4558570000000  0.4721710000000 1.0
C      1  0.5883100000000  0.5167980000000  0.5026210000000 1.0
C      1  0.5455870000000  0.5061600000000  0.4299060000000 1.0
C      1  0.3938110000000  0.5516290000000  0.5291820000000 1.0
C      1  0.5156250000000  0.4565740000000  0.4191460000000 1.0
C      1  0.4641560000000  0.5737300000000  0.5196140000000 1.0
C      1  0.4991800000000  0.5460350000000  0.4214180000000 1.0
C      1  0.5205350000000  0.5262160000000  0.4198650000000 1.0
C      1  0.6019240000000  0.5306870000000  0.5552370000000 1.0
C      1  0.5449280000000  0.5391180000000  0.4398170000000 1.0
C      1  0.4533680000000  0.5236440000000  0.4860050000000 1.0
C      1  0.4811390000000  0.4338320000000  0.5868860000000 1.0
C      1  0.4881820000000  0.5304460000000  0.5873740000000 1.0
C      1  0.4948430000000  0.5746960000000  0.4945000000000 1.0
C      1  0.4707500000000  0.5073820000000  0.4616560000000 1.0
C      1  0.5331270000000  0.4156450000000  0.5399700000000 1.0
C      1  0.5706260000000  0.4908520000000  0.5595810000000 1.0
C      1  0.4168370000000  0.4693310000000  0.4553000000000 1.0
C      1  0.5057560000000  0.4806350000000  0.5023950000000 1.0
C      1  0.5111770000000  0.4957350000000  0.4124920000000 1.0
C      1  0.5425890000000  0.5104180000000  0.4830110000000 1.0
C      1  0.4906970000000  0.5551560000000  0.5203660000000 1.0
C      1  0.5288390000000  0.4807400000000  0.5417720000000 1.0
C      1  0.5236220000000  0.5846650000000  0.5319680000000 1.0
C      1  0.5834020000000  0.4837180000000  0.4381350000000 1.0
C      1  0.4993060000000  0.4098380000000  0.5350940000000 1.0
C      1  0.4725550000000  0.4097340000000  0.5139850000000 1.0
C      1  0.4516870000000  0.4779030000000  0.5626690000000 1.0
C      1  0.4576260000000  0.5105120000000  0.4107230000000 1.0
C      1  0.5714220000000  0.4384550000000  0.4873760000000 1.0
C      1  0.5355960000000  0.5471430000000  0.4954690000000 1.0
C      1  0.5686810000000  0.5694480000000  0.4953350000000 1.0
C      1  0.4782640000000  0.5441220000000  0.4750730000000 1.0
C      1  0.4778260000000  0.5798000000000  0.4466920000000 1.0
C      1  0.4063660000000  0.5218040000000  0.4732060000000 1.0
C      1  0.4448700000000  0.5404790000000  0.5303060000000 1.0
C      1  0.4916530000000  0.5232040000000  0.4964000000000 1.0
END
