TITL C-2778422-5617-761 6.95928987701721e-05 125000 -310.547562594303 0 0 54 (C1) n - 1
REM
REM in /home/nfs/bkarasulu/CARBON/AIRSS/Generating-Clusters/REBO/Only-C1/SD-CG/HFTN-CG
REM
REM
REM
REM
REM
REM ./C.cell (11c1c37f851c82e70ff6c80c92926a4b)
REM
REM compiler GCC version 9.2.1 20190827 (Red Hat 9.2.1-1)
REM options -cpp -mtune=generic -march=x86-64 -g -O0 -fpre-include=/usr/include/finclude/math-vector-fortran.h
REM seed -843721258 1881495042 837256728 2096823559 1290716081 1278097985 1674124854 1768864697 1780910611 -1565040121 966201360 311322084 -81236547 512872482 -832085594 -1323080669 1549667277 2093820353 2012410244 61901 1387108604 287329758 -1493802501 1526833904 -1884375687 806216740 -1752568685 -980432923 -183053302 -2044406082 -1614968726 -1501667667 407142705
REM
CELL 1.54180   50.00000   50.00000   50.00000   90.00000   90.00000   90.00000
LATT -1
SFAC C  
C      1  0.4595600000000  0.5383720000000  0.5409450000000 1.0
C      1  0.4731510000000  0.5286220000000  0.4405770000000 1.0
C      1  0.4803580000000  0.5276790000000  0.5635150000000 1.0
C      1  0.4662560000000  0.4713840000000  0.5097080000000 1.0
C      1  0.5484110000000  0.4403250000000  0.4982920000000 1.0
C      1  0.5252480000000  0.4791720000000  0.4491170000000 1.0
C      1  0.5524100000000  0.5126660000000  0.5231310000000 1.0
C      1  0.5317520000000  0.4731660000000  0.5568120000000 1.0
C      1  0.5002560000000  0.4518250000000  0.5019830000000 1.0
C      1  0.5102280000000  0.5630210000000  0.4489710000000 1.0
C      1  0.4379530000000  0.5145380000000  0.5354830000000 1.0
C      1  0.5096550000000  0.4333790000000  0.4763770000000 1.0
C      1  0.5271620000000  0.4974480000000  0.4916100000000 1.0
C      1  0.4799180000000  0.5640330000000  0.4920450000000 1.0
C      1  0.5496000000000  0.4717660000000  0.4919710000000 1.0
C      1  0.5068470000000  0.4895160000000  0.5398830000000 1.0
C      1  0.5378490000000  0.5496920000000  0.4931480000000 1.0
C      1  0.4822860000000  0.5580740000000  0.4438420000000 1.0
C      1  0.5546540000000  0.5258350000000  0.4976830000000 1.0
C      1  0.5132990000000  0.5038570000000  0.4387770000000 1.0
C      1  0.5211260000000  0.5571760000000  0.5162060000000 1.0
C      1  0.5155200000000  0.4465420000000  0.5509260000000 1.0
C      1  0.4868190000000  0.4481240000000  0.5511510000000 1.0
C      1  0.4866730000000  0.5063650000000  0.4287850000000 1.0
C      1  0.4639560000000  0.5218010000000  0.4716080000000 1.0
C      1  0.5351140000000  0.4242280000000  0.4805470000000 1.0
C      1  0.4972540000000  0.5747990000000  0.5161310000000 1.0
C      1  0.5254480000000  0.5037670000000  0.5655660000000 1.0
C      1  0.4769030000000  0.4790660000000  0.5411370000000 1.0
C      1  0.5166030000000  0.5173660000000  0.4665230000000 1.0
C      1  0.5242970000000  0.5467950000000  0.4676310000000 1.0
C      1  0.5489550000000  0.4827190000000  0.5220090000000 1.0
C      1  0.4722610000000  0.4816270000000  0.4294900000000 1.0
C      1  0.5608270000000  0.5096300000000  0.4740590000000 1.0
C      1  0.5033690000000  0.4620000000000  0.4635020000000 1.0
C      1  0.5076610000000  0.5289940000000  0.5579280000000 1.0
C      1  0.4737120000000  0.4663810000000  0.4534370000000 1.0
C      1  0.5281080000000  0.4554220000000  0.5211910000000 1.0
C      1  0.4543730000000  0.4656030000000  0.4721120000000 1.0
C      1  0.4391930000000  0.5091650000000  0.4747750000000 1.0
C      1  0.4168030000000  0.4777660000000  0.4755490000000 1.0
C      1  0.4663990000000  0.5541350000000  0.4702520000000 1.0
C      1  0.4623330000000  0.5032900000000  0.5525070000000 1.0
C      1  0.5084510000000  0.5078400000000  0.5147670000000 1.0
C      1  0.4881620000000  0.4795840000000  0.4883140000000 1.0
C      1  0.4763980000000  0.4434620000000  0.5231240000000 1.0
C      1  0.4255060000000  0.4983200000000  0.5185280000000 1.0
C      1  0.5138380000000  0.5337530000000  0.5305570000000 1.0
C      1  0.5473540000000  0.5218450000000  0.5487460000000 1.0
C      1  0.5629700000000  0.4685140000000  0.5490440000000 1.0
C      1  0.5501070000000  0.4835990000000  0.4624340000000 1.0
C      1  0.4367360000000  0.4773750000000  0.4987500000000 1.0
C      1  0.4900570000000  0.5100630000000  0.4856940000000 1.0
C      1  0.4698610000000  0.5585130000000  0.5231530000000 1.0
END
