TITL C-2778429-3646-251 -0.00106202643540271 125000 -1077.17771559185 0 0 183 (C1) n - 1
REM
REM in /home/nfs/bkarasulu/CARBON/AIRSS/Generating-Clusters/REBO/Only-C1/SD-CG/HFTN-CG
REM
REM
REM
REM
REM
REM ./C.cell (11c1c37f851c82e70ff6c80c92926a4b)
REM
REM compiler GCC version 9.2.1 20190827 (Red Hat 9.2.1-1)
REM options -cpp -mtune=generic -march=x86-64 -g -O0 -fpre-include=/usr/include/finclude/math-vector-fortran.h
REM seed 1304330985 -517439811 1712370922 -920557178 -1920747434 -2118722353 1508360675 -1574494469 -689295313 2130313911 -1472473215 -1939008573 -342632390 -2146031651 -1394653651 -1950174811 -183520462 1965684936 651390163 82441417 1909458471 -794754406 -209726065 1156497584 1074711991 -1262757263 67403375 1710376493 1510691738 -1435881803 -1321084757 1404469663 -797866152
REM
CELL 1.54180   50.00000   50.00000   50.00000   90.00000   90.00000   90.00000
LATT -1
SFAC C  
C      1  0.5409170000000  0.5822060000000  0.5036310000000 1.0
C      1  0.4606640000000  0.4731940000000  0.4810820000000 1.0
C      1  0.5229510000000  0.4981450000000  0.5267570000000 1.0
C      1  0.4400370000000  0.4821810000000  0.5749390000000 1.0
C      1  0.4175500000000  0.5075560000000  0.4132670000000 1.0
C      1  0.4563320000000  0.4249800000000  0.4268560000000 1.0
C      1  0.5834280000000  0.5165290000000  0.4429030000000 1.0
C      1  0.4698930000000  0.5285710000000  0.6009970000000 1.0
C      1  0.3962770000000  0.4247400000000  0.4715700000000 1.0
C      1  0.4110600000000  0.5053870000000  0.4892040000000 1.0
C      1  0.5712180000000  0.5569900000000  0.5616790000000 1.0
C      1  0.4648640000000  0.4429290000000  0.5121250000000 1.0
C      1  0.5273040000000  0.4600270000000  0.5376210000000 1.0
C      1  0.5271790000000  0.4378700000000  0.4205930000000 1.0
C      1  0.5098860000000  0.5257030000000  0.6110480000000 1.0
C      1  0.5723440000000  0.6217320000000  0.5025160000000 1.0
C      1  0.5364340000000  0.4843860000000  0.5955120000000 1.0
C      1  0.6110850000000  0.5044940000000  0.5242980000000 1.0
C      1  0.4008760000000  0.5001940000000  0.4333780000000 1.0
C      1  0.5211620000000  0.6219430000000  0.4520010000000 1.0
C      1  0.6004040000000  0.4585260000000  0.5116490000000 1.0
C      1  0.5691360000000  0.5038990000000  0.5011600000000 1.0
C      1  0.5181170000000  0.4691460000000  0.4126120000000 1.0
C      1  0.4946440000000  0.5158470000000  0.4384860000000 1.0
C      1  0.5981650000000  0.4915840000000  0.5534120000000 1.0
C      1  0.4983890000000  0.5197550000000  0.3896100000000 1.0
C      1  0.6136260000000  0.4740840000000  0.5305240000000 1.0
C      1  0.4161740000000  0.5469620000000  0.4558040000000 1.0
C      1  0.5448690000000  0.5100090000000  0.4156800000000 1.0
C      1  0.5281100000000  0.5836780000000  0.5491350000000 1.0
C      1  0.5515910000000  0.4626360000000  0.4187150000000 1.0
C      1  0.4019850000000  0.5181140000000  0.5202130000000 1.0
C      1  0.5151780000000  0.5244880000000  0.4130430000000 1.0
C      1  0.4236920000000  0.5763990000000  0.4696020000000 1.0
C      1  0.5250250000000  0.5236200000000  0.5630320000000 1.0
C      1  0.5466870000000  0.4757670000000  0.4824760000000 1.0
C      1  0.5807390000000  0.5729390000000  0.5143590000000 1.0
C      1  0.5204740000000  0.5301810000000  0.4942800000000 1.0
C      1  0.4912410000000  0.5250340000000  0.4929550000000 1.0
C      1  0.5437090000000  0.6070710000000  0.4642630000000 1.0
C      1  0.5507240000000  0.5411070000000  0.4206980000000 1.0
C      1  0.5225280000000  0.4712600000000  0.5059190000000 1.0
C      1  0.4089330000000  0.5375880000000  0.4939350000000 1.0
C      1  0.5139680000000  0.5302720000000  0.5334970000000 1.0
C      1  0.4739880000000  0.5138660000000  0.4657330000000 1.0
C      1  0.4782910000000  0.5493790000000  0.5442520000000 1.0
C      1  0.4588280000000  0.3863870000000  0.4946110000000 1.0
C      1  0.4798520000000  0.4081380000000  0.4390320000000 1.0
C      1  0.4623970000000  0.5482620000000  0.5832760000000 1.0
C      1  0.4639870000000  0.5740690000000  0.4200180000000 1.0
C      1  0.4996340000000  0.5919770000000  0.5338850000000 1.0
C      1  0.5973420000000  0.5144470000000  0.4748590000000 1.0
C      1  0.5025830000000  0.3988130000000  0.5271530000000 1.0
C      1  0.4630010000000  0.5969120000000  0.4852740000000 1.0
C      1  0.4841020000000  0.5911350000000  0.4322590000000 1.0
C      1  0.5940900000000  0.5429120000000  0.5495100000000 1.0
C      1  0.4201670000000  0.5834030000000  0.4977060000000 1.0
C      1  0.4426010000000  0.5515490000000  0.4348580000000 1.0
C      1  0.5567400000000  0.4121690000000  0.5392480000000 1.0
C      1  0.5712370000000  0.5436300000000  0.4399110000000 1.0
C      1  0.5277870000000  0.5827780000000  0.4565190000000 1.0
C      1  0.5200790000000  0.5117230000000  0.5910800000000 1.0
C      1  0.4026320000000  0.4857290000000  0.5238980000000 1.0
C      1  0.4336920000000  0.4883090000000  0.4704920000000 1.0
C      1  0.4263890000000  0.5126610000000  0.5728390000000 1.0
C      1  0.4665180000000  0.5207780000000  0.3969090000000 1.0
C      1  0.5281260000000  0.5499590000000  0.5832770000000 1.0
C      1  0.5031890000000  0.4885360000000  0.4756720000000 1.0
C      1  0.5666410000000  0.5283180000000  0.4784740000000 1.0
C      1  0.5101800000000  0.4035980000000  0.5542220000000 1.0
C      1  0.4950250000000  0.4861590000000  0.4461420000000 1.0
C      1  0.5129120000000  0.5806750000000  0.4322960000000 1.0
C      1  0.4575730000000  0.4770080000000  0.5990620000000 1.0
C      1  0.4893910000000  0.4981130000000  0.5672720000000 1.0
C      1  0.6042450000000  0.5248380000000  0.5065000000000 1.0
C      1  0.4349610000000  0.4318400000000  0.5036440000000 1.0
C      1  0.3970130000000  0.5229920000000  0.4540740000000 1.0
C      1  0.5070110000000  0.5849410000000  0.5031460000000 1.0
C      1  0.5368560000000  0.3896030000000  0.4908870000000 1.0
C      1  0.4523490000000  0.4055320000000  0.5164500000000 1.0
C      1  0.4358110000000  0.4845020000000  0.5281770000000 1.0
C      1  0.4576370000000  0.5576140000000  0.5111070000000 1.0
C      1  0.5700240000000  0.4377510000000  0.5423650000000 1.0
C      1  0.5508430000000  0.5205440000000  0.5443350000000 1.0
C      1  0.4686800000000  0.5577110000000  0.4558400000000 1.0
C      1  0.5409090000000  0.5236460000000  0.4603500000000 1.0
C      1  0.4871980000000  0.4725210000000  0.4072550000000 1.0
C      1  0.5104210000000  0.3794230000000  0.5049170000000 1.0
C      1  0.5772360000000  0.5633520000000  0.4606300000000 1.0
C      1  0.4412380000000  0.5639600000000  0.5413380000000 1.0
C      1  0.5067320000000  0.4792650000000  0.6099970000000 1.0
C      1  0.4102580000000  0.4497560000000  0.5391890000000 1.0
C      1  0.3938400000000  0.4635740000000  0.4805190000000 1.0
C      1  0.4874590000000  0.4160120000000  0.5670970000000 1.0
C      1  0.5708990000000  0.4560090000000  0.5184960000000 1.0
C      1  0.4699250000000  0.5825260000000  0.5392810000000 1.0
C      1  0.5421210000000  0.4968590000000  0.4448300000000 1.0
C      1  0.4761370000000  0.4259520000000  0.4746290000000 1.0
C      1  0.5229560000000  0.5569200000000  0.4153350000000 1.0
C      1  0.4507770000000  0.5828560000000  0.4639780000000 1.0
C      1  0.4961930000000  0.6086190000000  0.4554170000000 1.0
C      1  0.5210350000000  0.5444930000000  0.4471600000000 1.0
C      1  0.4610420000000  0.4415850000000  0.5518850000000 1.0
C      1  0.5654570000000  0.4286410000000  0.4743800000000 1.0
C      1  0.5213680000000  0.4537470000000  0.5920890000000 1.0
C      1  0.4698950000000  0.4941230000000  0.4159190000000 1.0
C      1  0.4088250000000  0.5331510000000  0.5454750000000 1.0
C      1  0.4650270000000  0.4130850000000  0.5422370000000 1.0
C      1  0.4968550000000  0.5556270000000  0.5179530000000 1.0
C      1  0.4736650000000  0.5194580000000  0.5468330000000 1.0
C      1  0.5483740000000  0.5260830000000  0.5138930000000 1.0
C      1  0.5363610000000  0.4128620000000  0.5608140000000 1.0
C      1  0.5584490000000  0.3988140000000  0.5149490000000 1.0
C      1  0.5527130000000  0.5528490000000  0.4946260000000 1.0
C      1  0.3952470000000  0.4705290000000  0.4470020000000 1.0
C      1  0.4184800000000  0.5589390000000  0.5170340000000 1.0
C      1  0.5550090000000  0.4857340000000  0.5233990000000 1.0
C      1  0.5464460000000  0.4822250000000  0.5548960000000 1.0
C      1  0.4629630000000  0.4700770000000  0.5240240000000 1.0
C      1  0.5792370000000  0.5168250000000  0.5584950000000 1.0
C      1  0.5421170000000  0.4359700000000  0.5782210000000 1.0
C      1  0.5127660000000  0.5713990000000  0.5742620000000 1.0
C      1  0.4497590000000  0.5905550000000  0.5129650000000 1.0
C      1  0.5218440000000  0.4390310000000  0.5116140000000 1.0
C      1  0.4903280000000  0.5996180000000  0.4820790000000 1.0
C      1  0.5285010000000  0.5600380000000  0.5255220000000 1.0
C      1  0.4394760000000  0.5313790000000  0.5187070000000 1.0
C      1  0.5906080000000  0.4856770000000  0.4480110000000 1.0
C      1  0.5147750000000  0.4795460000000  0.5623630000000 1.0
C      1  0.5265690000000  0.5575850000000  0.4757740000000 1.0
C      1  0.4850830000000  0.5649390000000  0.5717730000000 1.0
C      1  0.5563370000000  0.5410100000000  0.5805820000000 1.0
C      1  0.5966010000000  0.5483000000000  0.5212150000000 1.0
C      1  0.4360680000000  0.4353810000000  0.4457620000000 1.0
C      1  0.3921030000000  0.4579220000000  0.5123850000000 1.0
C      1  0.4876540000000  0.4558390000000  0.4432420000000 1.0
C      1  0.5010490000000  0.4069190000000  0.4882800000000 1.0
C      1  0.5622140000000  0.4431540000000  0.4447980000000 1.0
C      1  0.4426220000000  0.5122080000000  0.5428610000000 1.0
C      1  0.4686640000000  0.3955720000000  0.4685120000000 1.0
C      1  0.5606820000000  0.5766300000000  0.5416270000000 1.0
C      1  0.4437790000000  0.5232370000000  0.4211240000000 1.0
C      1  0.4825490000000  0.4599550000000  0.6006190000000 1.0
C      1  0.4842920000000  0.4788320000000  0.4914210000000 1.0
C      1  0.4345110000000  0.4502090000000  0.5505710000000 1.0
C      1  0.5290430000000  0.5022050000000  0.4820230000000 1.0
C      1  0.5022000000000  0.4374880000000  0.4627750000000 1.0
C      1  0.4821240000000  0.4997890000000  0.5986170000000 1.0
C      1  0.4719290000000  0.5484960000000  0.4855090000000 1.0
C      1  0.4532960000000  0.5140100000000  0.4929870000000 1.0
C      1  0.4773890000000  0.5495930000000  0.4058630000000 1.0
C      1  0.5274660000000  0.4164100000000  0.4721310000000 1.0
C      1  0.4389810000000  0.5409970000000  0.4799140000000 1.0
C      1  0.4638270000000  0.4811660000000  0.5562850000000 1.0
C      1  0.4142090000000  0.4862800000000  0.5550040000000 1.0
C      1  0.5822940000000  0.5773790000000  0.4846520000000 1.0
C      1  0.5514250000000  0.4460460000000  0.4957830000000 1.0
C      1  0.5668980000000  0.4021840000000  0.4839850000000 1.0
C      1  0.5332620000000  0.4462320000000  0.4591110000000 1.0
C      1  0.5720980000000  0.4901320000000  0.4204160000000 1.0
C      1  0.4910600000000  0.4272030000000  0.5123960000000 1.0
C      1  0.5625280000000  0.4738370000000  0.4555060000000 1.0
C      1  0.6106850000000  0.4612750000000  0.4858960000000 1.0
C      1  0.4079500000000  0.4402440000000  0.4500660000000 1.0
C      1  0.4743730000000  0.4466440000000  0.4175640000000 1.0
C      1  0.4888280000000  0.4596610000000  0.5526020000000 1.0
C      1  0.3872730000000  0.4945840000000  0.4701740000000 1.0
C      1  0.5738010000000  0.4795370000000  0.5713010000000 1.0
C      1  0.4898480000000  0.5479910000000  0.4358450000000 1.0
C      1  0.4023690000000  0.4288540000000  0.4983990000000 1.0
C      1  0.4931630000000  0.4843000000000  0.5293210000000 1.0
C      1  0.4540270000000  0.4437200000000  0.4707750000000 1.0
C      1  0.4924400000000  0.4368390000000  0.5853430000000 1.0
C      1  0.5591630000000  0.5073360000000  0.5845320000000 1.0
C      1  0.5238540000000  0.4723980000000  0.4455040000000 1.0
C      1  0.4764800000000  0.5085860000000  0.5168380000000 1.0
C      1  0.4351650000000  0.5444180000000  0.5651230000000 1.0
C      1  0.5075940000000  0.4188780000000  0.4279330000000 1.0
C      1  0.6103400000000  0.4835000000000  0.4709430000000 1.0
C      1  0.4250400000000  0.4569780000000  0.4820960000000 1.0
C      1  0.5541040000000  0.6051510000000  0.4903850000000 1.0
C      1  0.5650370000000  0.4493070000000  0.5677300000000 1.0
C      1  0.4527610000000  0.5003610000000  0.4447630000000 1.0
END
