TITL C-2778434-4341-363 -0.0031753309160871 125000 -555.63930371382 0 0 97 (C1) n - 1
REM
REM in /home/nfs/bkarasulu/CARBON/AIRSS/Generating-Clusters/REBO/Only-C1/SD-CG/HFTN-CG
REM
REM
REM
REM
REM
REM ./C.cell (11c1c37f851c82e70ff6c80c92926a4b)
REM
REM compiler GCC version 9.2.1 20190827 (Red Hat 9.2.1-1)
REM options -cpp -mtune=generic -march=x86-64 -g -O0 -fpre-include=/usr/include/finclude/math-vector-fortran.h
REM seed 1296775079 563138722 -1220395932 1198744311 690090592 1358636701 1188245043 775876025 968699888 592016450 411666935 618941567 -4880368 -1694710989 -760841924 491068273 -116401854 218009928 -1481928669 1142068888 337719961 -821389304 394112286 259951378 -1070613889 1653198928 -1281407520 -996195908 -964199580 1743045221 -423380016 -307449783 279911406
REM
CELL 1.54180   50.00000   50.00000   50.00000   90.00000   90.00000   90.00000
LATT -1
SFAC C  
C      1  0.4655520000000  0.4726460000000  0.5075070000000 1.0
C      1  0.4848450000000  0.5111960000000  0.6080130000000 1.0
C      1  0.4626030000000  0.5045350000000  0.5918610000000 1.0
C      1  0.5485910000000  0.4590520000000  0.4212320000000 1.0
C      1  0.4773750000000  0.4084280000000  0.4803840000000 1.0
C      1  0.5884820000000  0.4667830000000  0.4636620000000 1.0
C      1  0.5612810000000  0.5001440000000  0.4851110000000 1.0
C      1  0.5155960000000  0.4806190000000  0.5838760000000 1.0
C      1  0.5687000000000  0.4745300000000  0.4408720000000 1.0
C      1  0.5417150000000  0.4755100000000  0.5706020000000 1.0
C      1  0.5316130000000  0.4600610000000  0.5471050000000 1.0
C      1  0.4956080000000  0.5732980000000  0.5379930000000 1.0
C      1  0.4819470000000  0.5248810000000  0.6313850000000 1.0
C      1  0.4808950000000  0.5121220000000  0.4573680000000 1.0
C      1  0.4944040000000  0.4698150000000  0.5667700000000 1.0
C      1  0.4511100000000  0.5073050000000  0.5636580000000 1.0
C      1  0.5053830000000  0.5696080000000  0.4545850000000 1.0
C      1  0.4964180000000  0.4509540000000  0.4682380000000 1.0
C      1  0.4636760000000  0.5536950000000  0.5450690000000 1.0
C      1  0.4809700000000  0.6124580000000  0.4941160000000 1.0
C      1  0.4476620000000  0.4606840000000  0.5410260000000 1.0
C      1  0.5053280000000  0.5400680000000  0.4946930000000 1.0
C      1  0.4830910000000  0.4935630000000  0.5237290000000 1.0
C      1  0.5606960000000  0.5067480000000  0.4380580000000 1.0
C      1  0.5102100000000  0.4914640000000  0.4237970000000 1.0
C      1  0.5591340000000  0.4861140000000  0.5346880000000 1.0
C      1  0.5024250000000  0.4125860000000  0.4395050000000 1.0
C      1  0.4528180000000  0.4882480000000  0.4732260000000 1.0
C      1  0.5122680000000  0.4850330000000  0.4978840000000 1.0
C      1  0.5227820000000  0.5449110000000  0.5311340000000 1.0
C      1  0.4162050000000  0.5282250000000  0.5029620000000 1.0
C      1  0.4810110000000  0.5288460000000  0.4110400000000 1.0
C      1  0.4753500000000  0.4555870000000  0.5464160000000 1.0
C      1  0.5165890000000  0.5245290000000  0.4287740000000 1.0
C      1  0.4771340000000  0.4382650000000  0.4221770000000 1.0
C      1  0.5204310000000  0.5726580000000  0.5140970000000 1.0
C      1  0.5326160000000  0.4927770000000  0.5242050000000 1.0
C      1  0.5652500000000  0.5585450000000  0.5189740000000 1.0
C      1  0.4468690000000  0.4576890000000  0.4592800000000 1.0
C      1  0.5455580000000  0.5718520000000  0.4952360000000 1.0
C      1  0.4923050000000  0.5107520000000  0.4961540000000 1.0
C      1  0.5691300000000  0.4609130000000  0.5227540000000 1.0
C      1  0.5339900000000  0.5169540000000  0.4791060000000 1.0
C      1  0.5629500000000  0.4997940000000  0.5644560000000 1.0
C      1  0.5865670000000  0.4964500000000  0.5076030000000 1.0
C      1  0.4925100000000  0.4237340000000  0.4622980000000 1.0
C      1  0.4675110000000  0.5653480000000  0.4449940000000 1.0
C      1  0.5036610000000  0.4714020000000  0.4506830000000 1.0
C      1  0.4199580000000  0.5031520000000  0.5261010000000 1.0
C      1  0.5111420000000  0.5055570000000  0.5974410000000 1.0
C      1  0.4318090000000  0.4854150000000  0.5506330000000 1.0
C      1  0.4914790000000  0.4439590000000  0.5244020000000 1.0
C      1  0.5437340000000  0.4388840000000  0.5254580000000 1.0
C      1  0.4413380000000  0.5365840000000  0.5541150000000 1.0
C      1  0.4602740000000  0.5100140000000  0.4915040000000 1.0
C      1  0.5201900000000  0.5593330000000  0.4763990000000 1.0
C      1  0.5500120000000  0.5465460000000  0.5473720000000 1.0
C      1  0.3911660000000  0.5319090000000  0.4914370000000 1.0
C      1  0.5020650000000  0.4436940000000  0.4131120000000 1.0
C      1  0.4384090000000  0.4765310000000  0.4250310000000 1.0
C      1  0.4845410000000  0.5554810000000  0.5106720000000 1.0
C      1  0.5518200000000  0.4517150000000  0.4957250000000 1.0
C      1  0.4910100000000  0.5888010000000  0.5078860000000 1.0
C      1  0.5110420000000  0.5025230000000  0.4619570000000 1.0
C      1  0.4372070000000  0.4467640000000  0.5182590000000 1.0
C      1  0.4933850000000  0.4605290000000  0.4971050000000 1.0
C      1  0.4942910000000  0.5501270000000  0.4308470000000 1.0
C      1  0.5221100000000  0.4631390000000  0.4162380000000 1.0
C      1  0.4443610000000  0.5629420000000  0.4663430000000 1.0
C      1  0.5436080000000  0.5301590000000  0.4384990000000 1.0
C      1  0.4110970000000  0.4778150000000  0.5685960000000 1.0
C      1  0.4414340000000  0.4190600000000  0.5152570000000 1.0
C      1  0.4733790000000  0.5151280000000  0.5435170000000 1.0
C      1  0.4950700000000  0.5406440000000  0.5476790000000 1.0
C      1  0.5821500000000  0.4666640000000  0.4916280000000 1.0
C      1  0.5401790000000  0.4863430000000  0.4541210000000 1.0
C      1  0.4663960000000  0.5371280000000  0.4631560000000 1.0
C      1  0.4646910000000  0.5322540000000  0.5168700000000 1.0
C      1  0.4585980000000  0.4052140000000  0.4994220000000 1.0
C      1  0.4395340000000  0.4627020000000  0.4912870000000 1.0
C      1  0.5812180000000  0.5376750000000  0.5385020000000 1.0
C      1  0.5060510000000  0.4790600000000  0.5368000000000 1.0
C      1  0.5462000000000  0.5444560000000  0.4663350000000 1.0
C      1  0.5837480000000  0.5074970000000  0.5382820000000 1.0
C      1  0.4605110000000  0.4908120000000  0.4403790000000 1.0
C      1  0.5493230000000  0.5267350000000  0.5718760000000 1.0
C      1  0.5386130000000  0.4772290000000  0.4843440000000 1.0
C      1  0.4572480000000  0.4442730000000  0.4393230000000 1.0
C      1  0.5849900000000  0.5233060000000  0.4868830000000 1.0
C      1  0.5137840000000  0.4289190000000  0.5294560000000 1.0
C      1  0.5709900000000  0.5504970000000  0.4867730000000 1.0
C      1  0.4198940000000  0.4645680000000  0.4121730000000 1.0
C      1  0.4208560000000  0.5334610000000  0.5352700000000 1.0
C      1  0.5279090000000  0.5204320000000  0.5109960000000 1.0
C      1  0.4401690000000  0.5352450000000  0.4856750000000 1.0
C      1  0.4814770000000  0.5023600000000  0.4188010000000 1.0
C      1  0.5307270000000  0.5253870000000  0.5917060000000 1.0
END
