TITL C-2778424-3986-748 -0.00601464924058407 125000 -782.092157893218 0 0 136 (C1) n - 1
REM
REM in /home/nfs/bkarasulu/CARBON/AIRSS/Generating-Clusters/REBO/Only-C1/SD-CG/HFTN-CG
REM
REM
REM
REM
REM
REM ./C.cell (11c1c37f851c82e70ff6c80c92926a4b)
REM
REM compiler GCC version 9.2.1 20190827 (Red Hat 9.2.1-1)
REM options -cpp -mtune=generic -march=x86-64 -g -O0 -fpre-include=/usr/include/finclude/math-vector-fortran.h
REM seed 294451302 2091231596 -1791498621 489890296 772159100 -349885346 792089994 609224896 718604967 2127587572 -288841228 536725764 1220905316 2121362658 832840632 1571546562 -138579775 974077242 358215631 -687545076 559753621 1078976888 -530686531 1267678330 -922763091 -794640229 1976563501 -992706951 -1968892296 -357796672 1504346383 512705489 -1042072222
REM
CELL 1.54180   50.00000   50.00000   50.00000   90.00000   90.00000   90.00000
LATT -1
SFAC C  
C      1  0.4815050000000  0.4849580000000  0.5305160000000 1.0
C      1  0.4966410000000  0.4558420000000  0.5720890000000 1.0
C      1  0.5302080000000  0.4528020000000  0.4706760000000 1.0
C      1  0.4570760000000  0.5555360000000  0.5344580000000 1.0
C      1  0.4795780000000  0.4170070000000  0.5018870000000 1.0
C      1  0.5359830000000  0.5054570000000  0.4054870000000 1.0
C      1  0.4631960000000  0.4850290000000  0.4165520000000 1.0
C      1  0.5306260000000  0.5519150000000  0.4660970000000 1.0
C      1  0.4242160000000  0.5605180000000  0.5278490000000 1.0
C      1  0.5598870000000  0.5541800000000  0.5639570000000 1.0
C      1  0.4774230000000  0.5925520000000  0.4946070000000 1.0
C      1  0.4328890000000  0.4915020000000  0.5669130000000 1.0
C      1  0.4962550000000  0.5629180000000  0.5137230000000 1.0
C      1  0.5312530000000  0.4766980000000  0.4219210000000 1.0
C      1  0.4388830000000  0.4529260000000  0.5332360000000 1.0
C      1  0.5337460000000  0.5508770000000  0.4263370000000 1.0
C      1  0.5459840000000  0.5816570000000  0.5191530000000 1.0
C      1  0.5451820000000  0.4736420000000  0.4592610000000 1.0
C      1  0.4874540000000  0.5282640000000  0.4118600000000 1.0
C      1  0.4731610000000  0.5372880000000  0.5879670000000 1.0
C      1  0.5259030000000  0.4289310000000  0.4508710000000 1.0
C      1  0.3969080000000  0.4839960000000  0.5129240000000 1.0
C      1  0.5353090000000  0.5578070000000  0.5796570000000 1.0
C      1  0.5838690000000  0.4995100000000  0.4687390000000 1.0
C      1  0.4552890000000  0.5145510000000  0.5249110000000 1.0
C      1  0.4087040000000  0.4899380000000  0.4854560000000 1.0
C      1  0.4776200000000  0.4794760000000  0.5875350000000 1.0
C      1  0.4991540000000  0.4123710000000  0.4391160000000 1.0
C      1  0.5984120000000  0.4417420000000  0.4606080000000 1.0
C      1  0.5597500000000  0.5729020000000  0.4828760000000 1.0
C      1  0.4335460000000  0.4291380000000  0.5189230000000 1.0
C      1  0.5450180000000  0.5008550000000  0.4772410000000 1.0
C      1  0.5114900000000  0.5732540000000  0.5802360000000 1.0
C      1  0.4158080000000  0.4807930000000  0.4534740000000 1.0
C      1  0.4039150000000  0.5339480000000  0.5293020000000 1.0
C      1  0.5759010000000  0.4759810000000  0.4845080000000 1.0
C      1  0.4553970000000  0.4160360000000  0.4538400000000 1.0
C      1  0.5463430000000  0.4416610000000  0.5122920000000 1.0
C      1  0.5741500000000  0.5432880000000  0.5284180000000 1.0
C      1  0.5331780000000  0.5584000000000  0.4992310000000 1.0
C      1  0.5299400000000  0.5306620000000  0.5908250000000 1.0
C      1  0.3937680000000  0.5084210000000  0.5337420000000 1.0
C      1  0.4991370000000  0.4681080000000  0.4127600000000 1.0
C      1  0.5477170000000  0.4838870000000  0.5790640000000 1.0
C      1  0.5776990000000  0.4645940000000  0.5483140000000 1.0
C      1  0.5330490000000  0.4134800000000  0.5372310000000 1.0
C      1  0.5825360000000  0.4493930000000  0.4389770000000 1.0
C      1  0.4792180000000  0.4347770000000  0.5535750000000 1.0
C      1  0.4828660000000  0.5851670000000  0.5270500000000 1.0
C      1  0.5604670000000  0.5125400000000  0.4491740000000 1.0
C      1  0.4758570000000  0.5046060000000  0.4301500000000 1.0
C      1  0.5330090000000  0.4869120000000  0.5219070000000 1.0
C      1  0.4557560000000  0.4072060000000  0.4847930000000 1.0
C      1  0.4665960000000  0.5221460000000  0.4950540000000 1.0
C      1  0.4385100000000  0.4799870000000  0.4863840000000 1.0
C      1  0.5959780000000  0.4530840000000  0.4868190000000 1.0
C      1  0.4973240000000  0.4579760000000  0.5386770000000 1.0
C      1  0.4346460000000  0.4318250000000  0.4744390000000 1.0
C      1  0.4612560000000  0.5074270000000  0.5759280000000 1.0
C      1  0.5109610000000  0.5304820000000  0.4341580000000 1.0
C      1  0.4904920000000  0.5787630000000  0.4406940000000 1.0
C      1  0.5829410000000  0.4986570000000  0.5499200000000 1.0
C      1  0.5047690000000  0.4644200000000  0.4888220000000 1.0
C      1  0.5578900000000  0.5430820000000  0.4562880000000 1.0
C      1  0.4973100000000  0.5325930000000  0.5648880000000 1.0
C      1  0.5196370000000  0.5092480000000  0.5663920000000 1.0
C      1  0.5330520000000  0.5913950000000  0.4718660000000 1.0
C      1  0.5796960000000  0.5518760000000  0.4745570000000 1.0
C      1  0.4640840000000  0.4728960000000  0.4569050000000 1.0
C      1  0.5104630000000  0.4052730000000  0.5240360000000 1.0
C      1  0.4682310000000  0.5278290000000  0.5495110000000 1.0
C      1  0.5076150000000  0.4033590000000  0.4935530000000 1.0
C      1  0.4325950000000  0.5323970000000  0.5129180000000 1.0
C      1  0.5549030000000  0.5130840000000  0.5850950000000 1.0
C      1  0.4484960000000  0.4063620000000  0.5244440000000 1.0
C      1  0.5503590000000  0.5223660000000  0.5266630000000 1.0
C      1  0.4502210000000  0.4690190000000  0.5763200000000 1.0
C      1  0.4543850000000  0.5690560000000  0.5032660000000 1.0
C      1  0.5055000000000  0.4517400000000  0.4394090000000 1.0
C      1  0.5657600000000  0.5099590000000  0.5025990000000 1.0
C      1  0.5136310000000  0.4028750000000  0.4668500000000 1.0
C      1  0.4833580000000  0.5678380000000  0.5769630000000 1.0
C      1  0.4582440000000  0.5004340000000  0.4730690000000 1.0
C      1  0.4484250000000  0.5232340000000  0.4525040000000 1.0
C      1  0.4473160000000  0.5570510000000  0.4156870000000 1.0
C      1  0.5225200000000  0.5748610000000  0.4439420000000 1.0
C      1  0.5556020000000  0.4358610000000  0.5420840000000 1.0
C      1  0.5639350000000  0.5700850000000  0.5379030000000 1.0
C      1  0.5592830000000  0.4645320000000  0.4343000000000 1.0
C      1  0.4664400000000  0.5614470000000  0.4721960000000 1.0
C      1  0.4962790000000  0.4938730000000  0.5561160000000 1.0
C      1  0.4923620000000  0.5004330000000  0.4524770000000 1.0
C      1  0.5482850000000  0.4208570000000  0.4940740000000 1.0
C      1  0.4795100000000  0.4109290000000  0.5352210000000 1.0
C      1  0.5242460000000  0.4526750000000  0.5845340000000 1.0
C      1  0.5070780000000  0.5043630000000  0.5191890000000 1.0
C      1  0.5924700000000  0.4617430000000  0.5176790000000 1.0
C      1  0.4253750000000  0.5827200000000  0.5036880000000 1.0
C      1  0.4999190000000  0.4924820000000  0.6041730000000 1.0
C      1  0.5841070000000  0.4916410000000  0.5203580000000 1.0
C      1  0.5079660000000  0.5297760000000  0.4738520000000 1.0
C      1  0.5721870000000  0.5234230000000  0.5640790000000 1.0
C      1  0.4514390000000  0.4473180000000  0.5585800000000 1.0
C      1  0.5007530000000  0.5216760000000  0.5993270000000 1.0
C      1  0.4740590000000  0.4240510000000  0.4350230000000 1.0
C      1  0.5542050000000  0.4717120000000  0.5028190000000 1.0
C      1  0.5225640000000  0.5012030000000  0.4426630000000 1.0
C      1  0.4902580000000  0.5303800000000  0.5125480000000 1.0
C      1  0.4495030000000  0.4544320000000  0.4903310000000 1.0
C      1  0.4343280000000  0.5350140000000  0.4251990000000 1.0
C      1  0.4764630000000  0.4475150000000  0.4974360000000 1.0
C      1  0.4677820000000  0.5931530000000  0.4615950000000 1.0
C      1  0.5486120000000  0.5246150000000  0.4220930000000 1.0
C      1  0.4958450000000  0.5580070000000  0.4845230000000 1.0
C      1  0.4175040000000  0.4859610000000  0.5399730000000 1.0
C      1  0.5118190000000  0.4967940000000  0.4803060000000 1.0
C      1  0.5051850000000  0.5003450000000  0.4034690000000 1.0
C      1  0.4830940000000  0.5392510000000  0.4523140000000 1.0
C      1  0.4374770000000  0.5336060000000  0.4810420000000 1.0
C      1  0.4889050000000  0.4613110000000  0.4599550000000 1.0
C      1  0.4224530000000  0.5073290000000  0.4381240000000 1.0
C      1  0.4094540000000  0.5215240000000  0.4822360000000 1.0
C      1  0.5418620000000  0.6032110000000  0.5012670000000 1.0
C      1  0.4491140000000  0.4835630000000  0.5281530000000 1.0
C      1  0.5006240000000  0.5949040000000  0.4699400000000 1.0
C      1  0.5192440000000  0.4587250000000  0.5172580000000 1.0
C      1  0.5531290000000  0.4535340000000  0.5683510000000 1.0
C      1  0.4716790000000  0.5771250000000  0.5532530000000 1.0
C      1  0.4765240000000  0.5575900000000  0.4208650000000 1.0
C      1  0.5245680000000  0.4780890000000  0.6024100000000 1.0
C      1  0.4694740000000  0.4530540000000  0.4225630000000 1.0
C      1  0.5432600000000  0.5002010000000  0.5491580000000 1.0
C      1  0.5887490000000  0.5265920000000  0.4854840000000 1.0
C      1  0.4154640000000  0.4468270000000  0.4549600000000 1.0
C      1  0.4406120000000  0.4618390000000  0.4390980000000 1.0
C      1  0.5239610000000  0.5342180000000  0.5148750000000 1.0
END
