TITL C-2778437-8639-1425 -0.00620572703658565 125000 -381.87270704122 0 0 66 (C1) n - 1
REM
REM in /home/nfs/bkarasulu/CARBON/AIRSS/Generating-Clusters/REBO/Only-C1/SD-CG/HFTN-CG
REM
REM
REM
REM
REM
REM ./C.cell (11c1c37f851c82e70ff6c80c92926a4b)
REM
REM compiler GCC version 9.2.1 20190827 (Red Hat 9.2.1-1)
REM options -cpp -mtune=generic -march=x86-64 -g -O0 -fpre-include=/usr/include/finclude/math-vector-fortran.h
REM seed -2083855529 914087654 -916121139 904804930 1811285532 -1868825325 2130836683 984531990 -642034840 281492964 1558748834 1473798663 -321834542 2040275833 28180080 -1894770971 -975512573 676064284 -1108833268 -301638850 -1298949973 -24501292 -447567562 -866467202 1661541013 1248628562 1598564930 -1351106690 -16401465 -1305545577 187118378 1526524261 1125585624
REM
CELL 1.54180   50.00000   50.00000   50.00000   90.00000   90.00000   90.00000
LATT -1
SFAC C  
C      1  0.4332150000000  0.4673420000000  0.5029620000000 1.0
C      1  0.4618150000000  0.4906490000000  0.4604230000000 1.0
C      1  0.4974510000000  0.5241890000000  0.4722060000000 1.0
C      1  0.5990720000000  0.5515360000000  0.5630840000000 1.0
C      1  0.4649590000000  0.5603700000000  0.4938370000000 1.0
C      1  0.5561640000000  0.5264610000000  0.4831700000000 1.0
C      1  0.4557040000000  0.4552170000000  0.4918560000000 1.0
C      1  0.5090090000000  0.4124250000000  0.5401300000000 1.0
C      1  0.5266820000000  0.4301060000000  0.4815550000000 1.0
C      1  0.5859060000000  0.5415580000000  0.5406940000000 1.0
C      1  0.5767010000000  0.5150090000000  0.5385680000000 1.0
C      1  0.4659680000000  0.5383060000000  0.4467250000000 1.0
C      1  0.5363280000000  0.4260460000000  0.5291330000000 1.0
C      1  0.4542210000000  0.4882300000000  0.5440230000000 1.0
C      1  0.5574700000000  0.5002140000000  0.4958000000000 1.0
C      1  0.5804100000000  0.5571470000000  0.5176930000000 1.0
C      1  0.5390020000000  0.5241150000000  0.4604090000000 1.0
C      1  0.4404180000000  0.5322130000000  0.4609090000000 1.0
C      1  0.4285360000000  0.4974040000000  0.4981530000000 1.0
C      1  0.4662620000000  0.4638440000000  0.4674490000000 1.0
C      1  0.4494240000000  0.4621630000000  0.5541090000000 1.0
C      1  0.4904310000000  0.4184590000000  0.4920450000000 1.0
C      1  0.5409240000000  0.4535450000000  0.4901840000000 1.0
C      1  0.5281720000000  0.4897460000000  0.4064630000000 1.0
C      1  0.5506290000000  0.4731160000000  0.5344860000000 1.0
C      1  0.4838800000000  0.4967960000000  0.5467230000000 1.0
C      1  0.4738230000000  0.5207230000000  0.5321710000000 1.0
C      1  0.5107490000000  0.4940820000000  0.4312760000000 1.0
C      1  0.5324500000000  0.4955600000000  0.4564600000000 1.0
C      1  0.5051220000000  0.5972390000000  0.5122670000000 1.0
C      1  0.4927450000000  0.4546900000000  0.5280390000000 1.0
C      1  0.5000090000000  0.4298800000000  0.4656120000000 1.0
C      1  0.5153320000000  0.6202060000000  0.5166800000000 1.0
C      1  0.5027560000000  0.4767740000000  0.5415950000000 1.0
C      1  0.4861600000000  0.4503850000000  0.4525590000000 1.0
C      1  0.4811250000000  0.5343880000000  0.4210300000000 1.0
C      1  0.5174290000000  0.4094200000000  0.5072780000000 1.0
C      1  0.5216580000000  0.5417340000000  0.4456410000000 1.0
C      1  0.5075960000000  0.5274380000000  0.4248610000000 1.0
C      1  0.5207500000000  0.5832800000000  0.4719030000000 1.0
C      1  0.4973400000000  0.4646240000000  0.4313150000000 1.0
C      1  0.4996560000000  0.5404880000000  0.4929870000000 1.0
C      1  0.4934230000000  0.5709230000000  0.5072120000000 1.0
C      1  0.4008060000000  0.5037720000000  0.4992420000000 1.0
C      1  0.4879090000000  0.5413140000000  0.5221220000000 1.0
C      1  0.5634420000000  0.4955730000000  0.5232330000000 1.0
C      1  0.4178030000000  0.5536310000000  0.5054540000000 1.0
C      1  0.4349150000000  0.5535200000000  0.4791820000000 1.0
C      1  0.5336000000000  0.5029390000000  0.5686690000000 1.0
C      1  0.5468460000000  0.4502640000000  0.5186220000000 1.0
C      1  0.4546620000000  0.4196650000000  0.5248020000000 1.0
C      1  0.5678850000000  0.5488980000000  0.4949950000000 1.0
C      1  0.4626760000000  0.4381550000000  0.5592670000000 1.0
C      1  0.4871440000000  0.4302040000000  0.5456210000000 1.0
C      1  0.5298320000000  0.4774810000000  0.5564210000000 1.0
C      1  0.4792250000000  0.5587820000000  0.4639740000000 1.0
C      1  0.5072270000000  0.5629710000000  0.4598190000000 1.0
C      1  0.5433240000000  0.4801840000000  0.4789260000000 1.0
C      1  0.4405060000000  0.5057560000000  0.4708670000000 1.0
C      1  0.4440480000000  0.5113360000000  0.5211340000000 1.0
C      1  0.5310610000000  0.4563700000000  0.5755290000000 1.0
C      1  0.4451730000000  0.5432220000000  0.5157640000000 1.0
C      1  0.4718850000000  0.4359800000000  0.5091140000000 1.0
C      1  0.4165660000000  0.4542880000000  0.5208470000000 1.0
C      1  0.4851170000000  0.5067210000000  0.4505480000000 1.0
C      1  0.6114730000000  0.5609340000000  0.5841730000000 1.0
END
