TITL C-2778432-5617-147 0.0691355699515802 125000 -254.314823841793 0 0 45 (C1) n - 1
REM
REM in /home/nfs/bkarasulu/CARBON/AIRSS/Generating-Clusters/REBO/Only-C1/SD-CG/HFTN-CG
REM
REM
REM
REM
REM
REM ./C.cell (11c1c37f851c82e70ff6c80c92926a4b)
REM
REM compiler GCC version 9.2.1 20190827 (Red Hat 9.2.1-1)
REM options -cpp -mtune=generic -march=x86-64 -g -O0 -fpre-include=/usr/include/finclude/math-vector-fortran.h
REM seed -2110902077 779066362 -208133396 1353135865 -1926732518 -197773144 -942409783 -1735502995 -1323207692 -825446490 1695678589 956029909 -1010411241 -1431532459 235216840 1572639676 -1742696136 -639927210 -28579709 -1619970111 -1511214878 -463870897 -57120903 -374775656 -1047313322 1210074516 -2046975186 596329851 87489419 903614485 -964940642 2110085993 -1515261180
REM
CELL 1.54180   50.00000   50.00000   50.00000   90.00000   90.00000   90.00000
LATT -1
SFAC C  
C      1  0.4972100000000  0.5262320000000  0.5554960000000 1.0
C      1  0.4834900000000  0.5457940000000  0.5402800000000 1.0
C      1  0.4721790000000  0.5559630000000  0.4952670000000 1.0
C      1  0.5226530000000  0.5553560000000  0.5076650000000 1.0
C      1  0.4809280000000  0.5066200000000  0.5674690000000 1.0
C      1  0.4743620000000  0.4414150000000  0.4854720000000 1.0
C      1  0.4811250000000  0.4808900000000  0.5522710000000 1.0
C      1  0.4952650000000  0.5622350000000  0.5150380000000 1.0
C      1  0.5066010000000  0.4644110000000  0.5607100000000 1.0
C      1  0.4660200000000  0.5353280000000  0.5169930000000 1.0
C      1  0.5122660000000  0.5010280000000  0.5140760000000 1.0
C      1  0.5038690000000  0.4634960000000  0.4554470000000 1.0
C      1  0.5377470000000  0.4894750000000  0.5327580000000 1.0
C      1  0.5088660000000  0.5023170000000  0.4290550000000 1.0
C      1  0.4691070000000  0.4862330000000  0.4810310000000 1.0
C      1  0.4962140000000  0.5245960000000  0.4608490000000 1.0
C      1  0.6200390000000  0.4800050000000  0.5251840000000 1.0
C      1  0.5266890000000  0.4624940000000  0.5417690000000 1.0
C      1  0.5773930000000  0.5019780000000  0.4951050000000 1.0
C      1  0.5136040000000  0.5100510000000  0.4851760000000 1.0
C      1  0.5428490000000  0.5259360000000  0.4630150000000 1.0
C      1  0.4856530000000  0.4884590000000  0.4300840000000 1.0
C      1  0.4641840000000  0.5105940000000  0.5890020000000 1.0
C      1  0.5194440000000  0.4470240000000  0.5199980000000 1.0
C      1  0.5228060000000  0.5182030000000  0.5408010000000 1.0
C      1  0.4250800000000  0.4832850000000  0.4793820000000 1.0
C      1  0.4937440000000  0.4565510000000  0.5068730000000 1.0
C      1  0.5369210000000  0.5438620000000  0.5299470000000 1.0
C      1  0.4566990000000  0.4638660000000  0.5382480000000 1.0
C      1  0.4622960000000  0.4514400000000  0.5146690000000 1.0
C      1  0.4669970000000  0.4781020000000  0.4474880000000 1.0
C      1  0.4847760000000  0.4861640000000  0.5193690000000 1.0
C      1  0.4867970000000  0.4418070000000  0.4600770000000 1.0
C      1  0.5665470000000  0.5147440000000  0.4734190000000 1.0
C      1  0.5647780000000  0.4905800000000  0.5221500000000 1.0
C      1  0.4614250000000  0.5063420000000  0.5069190000000 1.0
C      1  0.4453600000000  0.4656890000000  0.4671250000000 1.0
C      1  0.5294130000000  0.5155430000000  0.4404880000000 1.0
C      1  0.5961650000000  0.4879120000000  0.5171780000000 1.0
C      1  0.4990200000000  0.4863940000000  0.4698480000000 1.0
C      1  0.4702380000000  0.5451300000000  0.4686520000000 1.0
C      1  0.4363680000000  0.5085210000000  0.4860690000000 1.0
C      1  0.5260400000000  0.5407920000000  0.4833080000000 1.0
C      1  0.4679720000000  0.5213800000000  0.4442930000000 1.0
C      1  0.4427990000000  0.5257620000000  0.4644860000000 1.0
END
