TITL C-2778430-5657-312 0.00215888004927434 125000 -504.172986068111 0 0 87 (C1) n - 1
REM
REM in /home/nfs/bkarasulu/CARBON/AIRSS/Generating-Clusters/REBO/Only-C1/SD-CG/HFTN-CG
REM
REM
REM
REM
REM
REM ./C.cell (11c1c37f851c82e70ff6c80c92926a4b)
REM
REM compiler GCC version 9.2.1 20190827 (Red Hat 9.2.1-1)
REM options -cpp -mtune=generic -march=x86-64 -g -O0 -fpre-include=/usr/include/finclude/math-vector-fortran.h
REM seed -501090043 2077440493 2005327340 -1329441862 -1781205935 -1387398473 2046232568 -1889807134 682729446 -1057177027 1043432906 1785115536 1548249893 -1355140923 -353910698 305674556 -1328920599 -128292037 -1216254707 -1520894510 503445919 987571650 -756810547 1947188030 1165625917 -1630912451 -1986123933 -112596605 -965548319 1871849372 2061570672 -360501872 878731269
REM
CELL 1.54180   50.00000   50.00000   50.00000   90.00000   90.00000   90.00000
LATT -1
SFAC C  
C      1  0.5319220000000  0.5165400000000  0.4634460000000 1.0
C      1  0.5842630000000  0.4654960000000  0.4670900000000 1.0
C      1  0.4839200000000  0.5267160000000  0.4945200000000 1.0
C      1  0.4736930000000  0.5769870000000  0.4462330000000 1.0
C      1  0.4468970000000  0.5620260000000  0.4519440000000 1.0
C      1  0.4856710000000  0.5041700000000  0.5199200000000 1.0
C      1  0.4885490000000  0.5275430000000  0.4261970000000 1.0
C      1  0.4917780000000  0.4424280000000  0.5616160000000 1.0
C      1  0.4359940000000  0.4847590000000  0.4878840000000 1.0
C      1  0.5473960000000  0.5118070000000  0.5732740000000 1.0
C      1  0.5357000000000  0.5015580000000  0.4921180000000 1.0
C      1  0.5681910000000  0.5401090000000  0.5054160000000 1.0
C      1  0.5004210000000  0.4327460000000  0.5239220000000 1.0
C      1  0.4581330000000  0.4398570000000  0.4653180000000 1.0
C      1  0.4231320000000  0.5163800000000  0.4670490000000 1.0
C      1  0.5460750000000  0.4449360000000  0.4805290000000 1.0
C      1  0.5251180000000  0.4599610000000  0.5740610000000 1.0
C      1  0.5584930000000  0.4958700000000  0.4337760000000 1.0
C      1  0.4856690000000  0.5464920000000  0.5291560000000 1.0
C      1  0.5129140000000  0.4902530000000  0.4615680000000 1.0
C      1  0.4665170000000  0.5154550000000  0.4678240000000 1.0
C      1  0.4411670000000  0.5027200000000  0.5561910000000 1.0
C      1  0.5120060000000  0.5405560000000  0.5192090000000 1.0
C      1  0.4554350000000  0.5680000000000  0.4805720000000 1.0
C      1  0.5539760000000  0.5065580000000  0.5412840000000 1.0
C      1  0.5351750000000  0.4165000000000  0.4828760000000 1.0
C      1  0.5086620000000  0.5695090000000  0.5677060000000 1.0
C      1  0.5360060000000  0.5620440000000  0.5652810000000 1.0
C      1  0.4431900000000  0.5336610000000  0.5486180000000 1.0
C      1  0.4639590000000  0.4599810000000  0.4397560000000 1.0
C      1  0.4868240000000  0.5625970000000  0.5526740000000 1.0
C      1  0.4554990000000  0.5392500000000  0.5194680000000 1.0
C      1  0.4438200000000  0.5634380000000  0.5045110000000 1.0
C      1  0.5248260000000  0.4699030000000  0.4858860000000 1.0
C      1  0.5112560000000  0.4535650000000  0.4461090000000 1.0
C      1  0.5450910000000  0.5391040000000  0.5799020000000 1.0
C      1  0.5262540000000  0.5126020000000  0.5224410000000 1.0
C      1  0.5392550000000  0.4560130000000  0.4512900000000 1.0
C      1  0.4275800000000  0.4881390000000  0.4572880000000 1.0
C      1  0.4837520000000  0.5541100000000  0.4773900000000 1.0
C      1  0.4555760000000  0.4636490000000  0.5320920000000 1.0
C      1  0.5754940000000  0.5290670000000  0.5508190000000 1.0
C      1  0.4324860000000  0.4833550000000  0.5371400000000 1.0
C      1  0.5017700000000  0.4560660000000  0.5033710000000 1.0
C      1  0.5729500000000  0.4532470000000  0.4909680000000 1.0
C      1  0.5291370000000  0.4889550000000  0.5667580000000 1.0
C      1  0.5700530000000  0.4610320000000  0.5182210000000 1.0
C      1  0.4678370000000  0.4323670000000  0.5295820000000 1.0
C      1  0.5721290000000  0.5507050000000  0.5324970000000 1.0
C      1  0.4902560000000  0.4940760000000  0.4194910000000 1.0
C      1  0.4807330000000  0.4116940000000  0.5015520000000 1.0
C      1  0.4468540000000  0.4826620000000  0.4378450000000 1.0
C      1  0.4906680000000  0.4660590000000  0.4309190000000 1.0
C      1  0.4728930000000  0.5122480000000  0.5865040000000 1.0
C      1  0.5274270000000  0.4906410000000  0.4333340000000 1.0
C      1  0.5108800000000  0.4147670000000  0.4755730000000 1.0
C      1  0.4736760000000  0.4670720000000  0.4778370000000 1.0
C      1  0.5033770000000  0.5780080000000  0.4629690000000 1.0
C      1  0.4206700000000  0.4944960000000  0.5142190000000 1.0
C      1  0.4716150000000  0.4571440000000  0.5604440000000 1.0
C      1  0.5723010000000  0.4887670000000  0.5225390000000 1.0
C      1  0.5645320000000  0.4707440000000  0.4464140000000 1.0
C      1  0.5312340000000  0.5615670000000  0.5156960000000 1.0
C      1  0.4454350000000  0.5318140000000  0.4486310000000 1.0
C      1  0.4700180000000  0.5141470000000  0.5467140000000 1.0
C      1  0.4700210000000  0.4143760000000  0.4785460000000 1.0
C      1  0.5227550000000  0.4398170000000  0.5477320000000 1.0
C      1  0.5005160000000  0.4710900000000  0.5880010000000 1.0
C      1  0.4370420000000  0.4534730000000  0.4857690000000 1.0
C      1  0.5512170000000  0.4460830000000  0.5341320000000 1.0
C      1  0.4609850000000  0.5091540000000  0.4285800000000 1.0
C      1  0.5443860000000  0.5463360000000  0.4590250000000 1.0
C      1  0.5644280000000  0.5115290000000  0.5031400000000 1.0
C      1  0.5066210000000  0.4994430000000  0.5459580000000 1.0
C      1  0.4972810000000  0.4429070000000  0.4722130000000 1.0
C      1  0.5485380000000  0.5588720000000  0.4891420000000 1.0
C      1  0.5480850000000  0.5663050000000  0.5391150000000 1.0
C      1  0.4134190000000  0.5170690000000  0.4942220000000 1.0
C      1  0.4902700000000  0.5487060000000  0.4443530000000 1.0
C      1  0.4528520000000  0.5123380000000  0.4987910000000 1.0
C      1  0.5435960000000  0.5265570000000  0.4327860000000 1.0
C      1  0.4562500000000  0.5291140000000  0.5977020000000 1.0
C      1  0.4762520000000  0.4757910000000  0.5102440000000 1.0
C      1  0.5316260000000  0.5757310000000  0.4657570000000 1.0
C      1  0.5165630000000  0.5154870000000  0.4152490000000 1.0
C      1  0.4826600000000  0.4906790000000  0.4613960000000 1.0
C      1  0.4904550000000  0.4944530000000  0.5747040000000 1.0
END
