TITL C-2778431-5191-1179 -0.0625597447866671 125000 -407.148132180765 0 0 70 (C1) n - 1
REM
REM in /home/nfs/bkarasulu/CARBON/AIRSS/Generating-Clusters/REBO/Only-C1/SD-CG/HFTN-CG
REM
REM
REM
REM
REM
REM ./C.cell (11c1c37f851c82e70ff6c80c92926a4b)
REM
REM compiler GCC version 9.2.1 20190827 (Red Hat 9.2.1-1)
REM options -cpp -mtune=generic -march=x86-64 -g -O0 -fpre-include=/usr/include/finclude/math-vector-fortran.h
REM seed -2147452186 102459834 -1963971680 -407175995 -1087452867 -1294966006 -875930138 -177446078 -211893681 2123411118 1509180455 800811434 -1170397566 1208610513 -1110971131 -233430070 1302404924 -653876487 1813429439 -553977449 1622220380 1865007323 -181681483 -34339890 15062561 1215559014 -740051597 295748656 1247694968 866914319 778664987 606628483 1041198344
REM
CELL 1.54180   50.00000   50.00000   50.00000   90.00000   90.00000   90.00000
LATT -1
SFAC C  
C      1  0.4907580000000  0.4430900000000  0.5247190000000 1.0
C      1  0.5191820000000  0.5659950000000  0.5451760000000 1.0
C      1  0.5622950000000  0.4933110000000  0.4515420000000 1.0
C      1  0.5411220000000  0.4653280000000  0.5298780000000 1.0
C      1  0.4848200000000  0.5186360000000  0.5298500000000 1.0
C      1  0.4334380000000  0.4514750000000  0.4995080000000 1.0
C      1  0.5096210000000  0.4782830000000  0.4654500000000 1.0
C      1  0.4750140000000  0.4821270000000  0.4975560000000 1.0
C      1  0.4907380000000  0.4945540000000  0.4231280000000 1.0
C      1  0.5026450000000  0.4716060000000  0.5802270000000 1.0
C      1  0.4325280000000  0.5200090000000  0.5285190000000 1.0
C      1  0.4981890000000  0.5406640000000  0.5679090000000 1.0
C      1  0.5012340000000  0.4232270000000  0.4686130000000 1.0
C      1  0.4258540000000  0.4920660000000  0.4678840000000 1.0
C      1  0.5577780000000  0.4769440000000  0.5051360000000 1.0
C      1  0.4392670000000  0.5425440000000  0.5112490000000 1.0
C      1  0.5153740000000  0.5086300000000  0.4740750000000 1.0
C      1  0.4874880000000  0.5536040000000  0.4164960000000 1.0
C      1  0.5125550000000  0.5639630000000  0.5157270000000 1.0
C      1  0.5335180000000  0.4209830000000  0.4793020000000 1.0
C      1  0.5366950000000  0.5727140000000  0.4976700000000 1.0
C      1  0.5290030000000  0.4640710000000  0.5773420000000 1.0
C      1  0.5429770000000  0.4765760000000  0.5561090000000 1.0
C      1  0.5045900000000  0.5542240000000  0.4704800000000 1.0
C      1  0.5151130000000  0.4583130000000  0.5205500000000 1.0
C      1  0.4650350000000  0.4921820000000  0.5524010000000 1.0
C      1  0.5582160000000  0.5206720000000  0.4604260000000 1.0
C      1  0.4651030000000  0.4827190000000  0.4295130000000 1.0
C      1  0.5615780000000  0.5194720000000  0.5384790000000 1.0
C      1  0.4554750000000  0.4363700000000  0.4820280000000 1.0
C      1  0.4731640000000  0.4518500000000  0.5016320000000 1.0
C      1  0.5065620000000  0.4790860000000  0.4994000000000 1.0
C      1  0.4271590000000  0.5406760000000  0.4855890000000 1.0
C      1  0.4627340000000  0.5561280000000  0.5213450000000 1.0
C      1  0.5122380000000  0.5051690000000  0.5414180000000 1.0
C      1  0.5243720000000  0.5727020000000  0.4718990000000 1.0
C      1  0.5751950000000  0.5385010000000  0.5194690000000 1.0
C      1  0.4820660000000  0.5716320000000  0.5084320000000 1.0
C      1  0.4216480000000  0.4966640000000  0.5160640000000 1.0
C      1  0.5522900000000  0.5076510000000  0.5090280000000 1.0
C      1  0.4507430000000  0.5187130000000  0.5508130000000 1.0
C      1  0.5301520000000  0.5257710000000  0.4587930000000 1.0
C      1  0.4237980000000  0.4783400000000  0.4938660000000 1.0
C      1  0.4391700000000  0.4444530000000  0.5272420000000 1.0
C      1  0.4697940000000  0.4987480000000  0.4737960000000 1.0
C      1  0.4774520000000  0.5900690000000  0.4883900000000 1.0
C      1  0.5672550000000  0.5281590000000  0.4878180000000 1.0
C      1  0.5186570000000  0.5096850000000  0.5082130000000 1.0
C      1  0.4917020000000  0.4892420000000  0.5611810000000 1.0
C      1  0.5203000000000  0.5300240000000  0.5715640000000 1.0
C      1  0.4651860000000  0.4965960000000  0.5210340000000 1.0
C      1  0.5492940000000  0.4504790000000  0.4852760000000 1.0
C      1  0.5257510000000  0.5695980000000  0.5695820000000 1.0
C      1  0.4745030000000  0.4216540000000  0.4663440000000 1.0
C      1  0.4898820000000  0.5224070000000  0.4202590000000 1.0
C      1  0.5607190000000  0.5592210000000  0.5002340000000 1.0
C      1  0.4640660000000  0.4384240000000  0.5381730000000 1.0
C      1  0.5142800000000  0.4835120000000  0.4356720000000 1.0
C      1  0.4863920000000  0.5412910000000  0.4481280000000 1.0
C      1  0.5426940000000  0.4855300000000  0.4312290000000 1.0
C      1  0.4726620000000  0.5424170000000  0.5488570000000 1.0
C      1  0.5186810000000  0.4508880000000  0.4737680000000 1.0
C      1  0.5673490000000  0.4748040000000  0.4725110000000 1.0
C      1  0.5582830000000  0.3724510000000  0.4871500000000 1.0
C      1  0.4186530000000  0.5200020000000  0.4694960000000 1.0
C      1  0.4994970000000  0.5367810000000  0.4997070000000 1.0
C      1  0.4517230000000  0.4879400000000  0.4540800000000 1.0
C      1  0.5468020000000  0.3949500000000  0.4835120000000 1.0
C      1  0.5408750000000  0.5083910000000  0.5569880000000 1.0
C      1  0.4790530000000  0.5250480000000  0.4751060000000 1.0
END
