TITL C-2778425-5191-698 0.145295382583907 125000 -131.694398914944 0 0 25 (C1) n - 1
REM
REM in /home/nfs/bkarasulu/CARBON/AIRSS/Generating-Clusters/REBO/Only-C1/SD-CG/HFTN-CG
REM
REM
REM
REM
REM
REM ./C.cell (11c1c37f851c82e70ff6c80c92926a4b)
REM
REM compiler GCC version 9.2.1 20190827 (Red Hat 9.2.1-1)
REM options -cpp -mtune=generic -march=x86-64 -g -O0 -fpre-include=/usr/include/finclude/math-vector-fortran.h
REM seed 2029194200 -70108445 715486624 1265865816 1136669144 -807133876 1326315674 -1979963051 1483121334 -1103543708 838196777 -827685245 -298187849 1600937738 1872775708 -835222748 -644691869 -1105736507 875036670 -1417514831 -1015849871 -263731546 410447799 -1032599410 -1547547248 1514564839 255029248 -200528423 1412821661 -1656428264 -1780090728 1935997227 -334022398
REM
CELL 1.54180   50.00000   50.00000   50.00000   90.00000   90.00000   90.00000
LATT -1
SFAC C  
C      1  0.4391760000000  0.5685340000000  0.5052750000000 1.0
C      1  0.4699210000000  0.5613120000000  0.5128440000000 1.0
C      1  0.5017560000000  0.4858430000000  0.4678980000000 1.0
C      1  0.4890880000000  0.4682680000000  0.5133570000000 1.0
C      1  0.4711300000000  0.4994600000000  0.4663690000000 1.0
C      1  0.5662820000000  0.4982500000000  0.4865900000000 1.0
C      1  0.5105320000000  0.4339580000000  0.4792210000000 1.0
C      1  0.5498280000000  0.5113410000000  0.4690470000000 1.0
C      1  0.5385530000000  0.4260680000000  0.4870170000000 1.0
C      1  0.4749430000000  0.4456940000000  0.5214390000000 1.0
C      1  0.4577990000000  0.5190690000000  0.4792700000000 1.0
C      1  0.5247840000000  0.5047700000000  0.4614990000000 1.0
C      1  0.4956460000000  0.5639140000000  0.5226030000000 1.0
C      1  0.5067570000000  0.4655930000000  0.4892480000000 1.0
C      1  0.5005210000000  0.5154970000000  0.5217500000000 1.0
C      1  0.4860470000000  0.4922350000000  0.5275420000000 1.0
C      1  0.5388770000000  0.4563160000000  0.4955860000000 1.0
C      1  0.4786870000000  0.4787420000000  0.4438670000000 1.0
C      1  0.4527570000000  0.5412990000000  0.4940620000000 1.0
C      1  0.4682600000000  0.4928480000000  0.5483230000000 1.0
C      1  0.5395070000000  0.5436000000000  0.5253450000000 1.0
C      1  0.4616260000000  0.4244440000000  0.5290480000000 1.0
C      1  0.5598180000000  0.4744010000000  0.4982670000000 1.0
C      1  0.5051840000000  0.5877120000000  0.5318380000000 1.0
C      1  0.5125220000000  0.5408320000000  0.5226960000000 1.0
END
