TITL C-2778423-5760-390 0.00147189852765703 125000 -1131.43813555489 0 0 194 (C1) n - 1
REM
REM in /home/nfs/bkarasulu/CARBON/AIRSS/Generating-Clusters/REBO/Only-C1/SD-CG/HFTN-CG
REM
REM
REM
REM
REM
REM ./C.cell (11c1c37f851c82e70ff6c80c92926a4b)
REM
REM compiler GCC version 9.2.1 20190827 (Red Hat 9.2.1-1)
REM options -cpp -mtune=generic -march=x86-64 -g -O0 -fpre-include=/usr/include/finclude/math-vector-fortran.h
REM seed 1117062274 -1908965873 -227886383 1868724277 1339342911 1791382462 -1300093485 241765550 -976550668 1338695013 1657637288 1008940291 -1857721349 1358264410 122975858 -1782037423 -536158372 -1762095895 -736592924 490000 -597837419 748049865 -2020195661 -299308611 1345809368 -288892609 -1823107155 -1753966041 26656377 728395443 -1846015220 7224661 1451384968
REM
CELL 1.54180   50.00000   50.00000   50.00000   90.00000   90.00000   90.00000
LATT -1
SFAC C  
C      1  0.3826260000000  0.5173010000000  0.5298900000000 1.0
C      1  0.4525950000000  0.5097570000000  0.5001430000000 1.0
C      1  0.3967080000000  0.4538160000000  0.5433920000000 1.0
C      1  0.4330720000000  0.4077500000000  0.4663290000000 1.0
C      1  0.6199170000000  0.4858200000000  0.5296360000000 1.0
C      1  0.3914220000000  0.4996180000000  0.4794870000000 1.0
C      1  0.3977390000000  0.4570890000000  0.5140680000000 1.0
C      1  0.4879560000000  0.4911340000000  0.3847360000000 1.0
C      1  0.4481690000000  0.6094360000000  0.4305760000000 1.0
C      1  0.4712230000000  0.4640010000000  0.4979700000000 1.0
C      1  0.3968890000000  0.5194480000000  0.5607130000000 1.0
C      1  0.5024430000000  0.4657410000000  0.5464200000000 1.0
C      1  0.5676080000000  0.4146640000000  0.5155360000000 1.0
C      1  0.5302620000000  0.4912670000000  0.6073750000000 1.0
C      1  0.4464480000000  0.4623160000000  0.5468270000000 1.0
C      1  0.4945940000000  0.4618440000000  0.6137190000000 1.0
C      1  0.4579850000000  0.4123470000000  0.4574220000000 1.0
C      1  0.4586210000000  0.5030220000000  0.5885160000000 1.0
C      1  0.5136140000000  0.4754640000000  0.5748300000000 1.0
C      1  0.5291610000000  0.3902580000000  0.5153430000000 1.0
C      1  0.6120910000000  0.4946920000000  0.5614050000000 1.0
C      1  0.4739170000000  0.3906800000000  0.5086480000000 1.0
C      1  0.5821440000000  0.4317470000000  0.5509980000000 1.0
C      1  0.4116080000000  0.5508070000000  0.4877300000000 1.0
C      1  0.5618580000000  0.5696450000000  0.5819960000000 1.0
C      1  0.4571060000000  0.4936590000000  0.4751920000000 1.0
C      1  0.5835110000000  0.4200370000000  0.4859230000000 1.0
C      1  0.5206940000000  0.4617350000000  0.4874950000000 1.0
C      1  0.4449560000000  0.5882670000000  0.4133430000000 1.0
C      1  0.4491150000000  0.5078830000000  0.4253960000000 1.0
C      1  0.4913590000000  0.4935160000000  0.5902700000000 1.0
C      1  0.4847590000000  0.4247370000000  0.4651560000000 1.0
C      1  0.5907680000000  0.5157880000000  0.4746220000000 1.0
C      1  0.3940730000000  0.4077410000000  0.4968380000000 1.0
C      1  0.5343870000000  0.5369050000000  0.5583500000000 1.0
C      1  0.6038720000000  0.5193580000000  0.5053040000000 1.0
C      1  0.3927640000000  0.4864960000000  0.5403700000000 1.0
C      1  0.5351910000000  0.4229160000000  0.4480760000000 1.0
C      1  0.5176760000000  0.4466150000000  0.4310710000000 1.0
C      1  0.4871290000000  0.4472650000000  0.5839170000000 1.0
C      1  0.5545370000000  0.4963000000000  0.4688620000000 1.0
C      1  0.4365510000000  0.4717600000000  0.4695140000000 1.0
C      1  0.4035450000000  0.5515510000000  0.4551370000000 1.0
C      1  0.4380900000000  0.4800650000000  0.5816790000000 1.0
C      1  0.5470910000000  0.5806710000000  0.5206130000000 1.0
C      1  0.4494070000000  0.4543740000000  0.4481630000000 1.0
C      1  0.4373830000000  0.4619480000000  0.4994500000000 1.0
C      1  0.4333560000000  0.5303260000000  0.4710240000000 1.0
C      1  0.4585860000000  0.4505460000000  0.3980070000000 1.0
C      1  0.4643320000000  0.5872370000000  0.4998400000000 1.0
C      1  0.4419660000000  0.5934810000000  0.5322710000000 1.0
C      1  0.4392790000000  0.4710400000000  0.4133660000000 1.0
C      1  0.5864560000000  0.4891160000000  0.5245740000000 1.0
C      1  0.5312460000000  0.4019260000000  0.4852900000000 1.0
C      1  0.5597690000000  0.5415930000000  0.4396180000000 1.0
C      1  0.5249440000000  0.4432890000000  0.5148430000000 1.0
C      1  0.4454540000000  0.6104140000000  0.4623230000000 1.0
C      1  0.6040560000000  0.4614560000000  0.5135480000000 1.0
C      1  0.5202370000000  0.4942650000000  0.4240270000000 1.0
C      1  0.5571200000000  0.5120220000000  0.6094760000000 1.0
C      1  0.6017710000000  0.4627110000000  0.4659410000000 1.0
C      1  0.4988200000000  0.5476890000000  0.5455260000000 1.0
C      1  0.4138740000000  0.4655380000000  0.4339010000000 1.0
C      1  0.5070670000000  0.5416700000000  0.5781670000000 1.0
C      1  0.5323590000000  0.4549500000000  0.3846450000000 1.0
C      1  0.5127280000000  0.4981260000000  0.5419140000000 1.0
C      1  0.4644720000000  0.5590160000000  0.5931210000000 1.0
C      1  0.5089940000000  0.6131170000000  0.5146100000000 1.0
C      1  0.5468140000000  0.5251380000000  0.4129090000000 1.0
C      1  0.5819280000000  0.4486710000000  0.5297380000000 1.0
C      1  0.4676740000000  0.5260480000000  0.5642510000000 1.0
C      1  0.5465170000000  0.4307830000000  0.4948450000000 1.0
C      1  0.4666520000000  0.5364920000000  0.4962980000000 1.0
C      1  0.5800440000000  0.5476260000000  0.5810210000000 1.0
C      1  0.5204050000000  0.5366010000000  0.5205230000000 1.0
C      1  0.5531690000000  0.4619980000000  0.5538500000000 1.0
C      1  0.5014060000000  0.3877400000000  0.5247510000000 1.0
C      1  0.5227040000000  0.4951310000000  0.4926280000000 1.0
C      1  0.5086670000000  0.4423690000000  0.4014670000000 1.0
C      1  0.5691160000000  0.4887360000000  0.4324140000000 1.0
C      1  0.5094410000000  0.4307960000000  0.5642420000000 1.0
C      1  0.4200740000000  0.4141390000000  0.4903090000000 1.0
C      1  0.5543910000000  0.4693560000000  0.4881400000000 1.0
C      1  0.5535850000000  0.5296720000000  0.4701370000000 1.0
C      1  0.4683270000000  0.4705040000000  0.5676690000000 1.0
C      1  0.5491500000000  0.4841280000000  0.5729080000000 1.0
C      1  0.3917940000000  0.5263060000000  0.5011590000000 1.0
C      1  0.5562960000000  0.4961470000000  0.4046640000000 1.0
C      1  0.5232840000000  0.5705470000000  0.4262090000000 1.0
C      1  0.5056160000000  0.5900160000000  0.4162750000000 1.0
C      1  0.4778540000000  0.5571910000000  0.4426150000000 1.0
C      1  0.5162780000000  0.4349060000000  0.4690610000000 1.0
C      1  0.5730200000000  0.4857020000000  0.5941530000000 1.0
C      1  0.4815410000000  0.5877140000000  0.4294490000000 1.0
C      1  0.4117200000000  0.5176440000000  0.4167370000000 1.0
C      1  0.5225330000000  0.5058140000000  0.4621780000000 1.0
C      1  0.5657230000000  0.4453870000000  0.4711250000000 1.0
C      1  0.5366040000000  0.5634100000000  0.5939410000000 1.0
C      1  0.5634060000000  0.4501750000000  0.4409210000000 1.0
C      1  0.5045360000000  0.4214580000000  0.5198150000000 1.0
C      1  0.5037840000000  0.5264160000000  0.6085070000000 1.0
C      1  0.4585640000000  0.5586050000000  0.5148260000000 1.0
C      1  0.4882740000000  0.5006340000000  0.4235660000000 1.0
C      1  0.5644030000000  0.5828230000000  0.5565030000000 1.0
C      1  0.4935190000000  0.5975200000000  0.5589620000000 1.0
C      1  0.5644720000000  0.4154870000000  0.4343260000000 1.0
C      1  0.6108300000000  0.5182720000000  0.5367120000000 1.0
C      1  0.5419970000000  0.5103240000000  0.5411390000000 1.0
C      1  0.4640090000000  0.5124810000000  0.4525330000000 1.0
C      1  0.4879500000000  0.4381680000000  0.5391920000000 1.0
C      1  0.4604630000000  0.4315750000000  0.5765720000000 1.0
C      1  0.5087040000000  0.5754840000000  0.5799500000000 1.0
C      1  0.5319620000000  0.6173240000000  0.4970290000000 1.0
C      1  0.5281620000000  0.6063320000000  0.4694670000000 1.0
C      1  0.4678020000000  0.5525120000000  0.5428960000000 1.0
C      1  0.5077120000000  0.5489370000000  0.4367010000000 1.0
C      1  0.4623810000000  0.5986770000000  0.5453130000000 1.0
C      1  0.4271860000000  0.5627660000000  0.4151910000000 1.0
C      1  0.4117500000000  0.5603100000000  0.5333860000000 1.0
C      1  0.5736190000000  0.5077620000000  0.5468970000000 1.0
C      1  0.4593220000000  0.4142000000000  0.5535130000000 1.0
C      1  0.4898990000000  0.4682930000000  0.4752440000000 1.0
C      1  0.4977220000000  0.6079080000000  0.4702570000000 1.0
C      1  0.4876640000000  0.6035430000000  0.4974540000000 1.0
C      1  0.4782240000000  0.5312410000000  0.4116530000000 1.0
C      1  0.5315710000000  0.4598320000000  0.5991420000000 1.0
C      1  0.5431660000000  0.5138720000000  0.5092600000000 1.0
C      1  0.5592560000000  0.4063060000000  0.4662210000000 1.0
C      1  0.4765030000000  0.5704620000000  0.5696700000000 1.0
C      1  0.4851620000000  0.4642240000000  0.3901440000000 1.0
C      1  0.6031910000000  0.4464100000000  0.4873750000000 1.0
C      1  0.5720000000000  0.5087760000000  0.5022740000000 1.0
C      1  0.4892730000000  0.4526950000000  0.4461170000000 1.0
C      1  0.4223560000000  0.5143310000000  0.4991280000000 1.0
C      1  0.5284120000000  0.5627500000000  0.5373600000000 1.0
C      1  0.5512540000000  0.5929480000000  0.4573100000000 1.0
C      1  0.4374290000000  0.4466940000000  0.5823630000000 1.0
C      1  0.4621180000000  0.3684620000000  0.4965610000000 1.0
C      1  0.5482070000000  0.4389780000000  0.5950000000000 1.0
C      1  0.4279980000000  0.5730530000000  0.5080150000000 1.0
C      1  0.5827520000000  0.4365530000000  0.4186130000000 1.0
C      1  0.5148740000000  0.6094900000000  0.5418720000000 1.0
C      1  0.4097780000000  0.5454730000000  0.4279640000000 1.0
C      1  0.5010250000000  0.5028110000000  0.5120870000000 1.0
C      1  0.5689160000000  0.5641140000000  0.5097360000000 1.0
C      1  0.4820720000000  0.4807990000000  0.5235320000000 1.0
C      1  0.4977210000000  0.4067920000000  0.4899800000000 1.0
C      1  0.5025740000000  0.5440710000000  0.3973650000000 1.0
C      1  0.5150950000000  0.5009060000000  0.3829930000000 1.0
C      1  0.4276480000000  0.5060260000000  0.5393910000000 1.0
C      1  0.5345260000000  0.5376910000000  0.6080900000000 1.0
C      1  0.4291660000000  0.4384200000000  0.4341810000000 1.0
C      1  0.4736890000000  0.5314970000000  0.5976750000000 1.0
C      1  0.5485860000000  0.5710150000000  0.4388710000000 1.0
C      1  0.4479320000000  0.4853170000000  0.5224340000000 1.0
C      1  0.4105160000000  0.4875050000000  0.4576650000000 1.0
C      1  0.4377710000000  0.4293180000000  0.5092550000000 1.0
C      1  0.4641810000000  0.5418800000000  0.4644090000000 1.0
C      1  0.4940520000000  0.5316110000000  0.5043800000000 1.0
C      1  0.5236890000000  0.5245970000000  0.4371160000000 1.0
C      1  0.4781630000000  0.4271520000000  0.4016370000000 1.0
C      1  0.5532210000000  0.4602740000000  0.5209910000000 1.0
C      1  0.4385770000000  0.5940890000000  0.4831560000000 1.0
C      1  0.4193610000000  0.4481250000000  0.5576630000000 1.0
C      1  0.4023130000000  0.4885150000000  0.5080310000000 1.0
C      1  0.5313900000000  0.4166320000000  0.5557640000000 1.0
C      1  0.4170200000000  0.5342920000000  0.5409080000000 1.0
C      1  0.5014200000000  0.4945120000000  0.6206850000000 1.0
C      1  0.5621760000000  0.5455680000000  0.4901420000000 1.0
C      1  0.5397360000000  0.4712400000000  0.4310940000000 1.0
C      1  0.4849190000000  0.4990570000000  0.5589170000000 1.0
C      1  0.4242630000000  0.5134890000000  0.4474110000000 1.0
C      1  0.4927090000000  0.4948310000000  0.4570230000000 1.0
C      1  0.5415120000000  0.5997360000000  0.5447820000000 1.0
C      1  0.5827700000000  0.4796760000000  0.4596830000000 1.0
C      1  0.4625030000000  0.4461620000000  0.5257130000000 1.0
C      1  0.4762680000000  0.6098920000000  0.4502320000000 1.0
C      1  0.5228510000000  0.5271730000000  0.3919180000000 1.0
C      1  0.5794070000000  0.5648910000000  0.5379270000000 1.0
C      1  0.5317160000000  0.5106090000000  0.5793660000000 1.0
C      1  0.4552190000000  0.4072660000000  0.5269980000000 1.0
C      1  0.5650990000000  0.5205210000000  0.5772660000000 1.0
C      1  0.5762390000000  0.5997470000000  0.4661310000000 1.0
C      1  0.5616880000000  0.4382110000000  0.5702950000000 1.0
C      1  0.4698000000000  0.4729570000000  0.4289530000000 1.0
C      1  0.5979890000000  0.4875990000000  0.5828570000000 1.0
C      1  0.5464440000000  0.4043800000000  0.5338490000000 1.0
C      1  0.4632640000000  0.5081830000000  0.3937820000000 1.0
C      1  0.4595730000000  0.5574870000000  0.4159340000000 1.0
C      1  0.4151490000000  0.4910290000000  0.5658860000000 1.0
C      1  0.5895360000000  0.5378420000000  0.5509010000000 1.0
C      1  0.4313110000000  0.4987950000000  0.3978640000000 1.0
C      1  0.5822270000000  0.5168570000000  0.4463870000000 1.0
C      1  0.5375430000000  0.4828180000000  0.3876350000000 1.0
END
