TITL C-2778432-5617-485 0.00122514570990124 125000 -244.750145952567 0 0 43 (C1) n - 1
REM
REM in /home/nfs/bkarasulu/CARBON/AIRSS/Generating-Clusters/REBO/Only-C1/SD-CG/HFTN-CG
REM
REM
REM
REM
REM
REM ./C.cell (11c1c37f851c82e70ff6c80c92926a4b)
REM
REM compiler GCC version 9.2.1 20190827 (Red Hat 9.2.1-1)
REM options -cpp -mtune=generic -march=x86-64 -g -O0 -fpre-include=/usr/include/finclude/math-vector-fortran.h
REM seed 1480895469 986255910 -555927609 79338196 19715394 -1401608657 -2073923664 -1041685757 1592579063 1381727117 1549477863 1523135694 42542400 1960381906 -546697668 -605061230 1611596814 -1950332437 -1802581206 -267987920 -104043912 -831347253 16232926 -321959796 2054884074 1434397620 -160267530 1664409762 720683211 -1017064549 1907792793 -1594173347 165220116
REM
CELL 1.54180   50.00000   50.00000   50.00000   90.00000   90.00000   90.00000
LATT -1
SFAC C  
C      1  0.5611410000000  0.5275060000000  0.4745040000000 1.0
C      1  0.5576230000000  0.4736680000000  0.5321230000000 1.0
C      1  0.5091910000000  0.4942520000000  0.5816560000000 1.0
C      1  0.5655120000000  0.4942320000000  0.5169520000000 1.0
C      1  0.4892630000000  0.5145210000000  0.5236240000000 1.0
C      1  0.5664290000000  0.5128750000000  0.4978160000000 1.0
C      1  0.4628430000000  0.4573840000000  0.5163860000000 1.0
C      1  0.5145710000000  0.5416230000000  0.4875390000000 1.0
C      1  0.5110150000000  0.4788880000000  0.4298740000000 1.0
C      1  0.5039120000000  0.4235920000000  0.5223070000000 1.0
C      1  0.5222900000000  0.5245190000000  0.4435730000000 1.0
C      1  0.4831270000000  0.4652680000000  0.4694750000000 1.0
C      1  0.5182690000000  0.4402290000000  0.5446430000000 1.0
C      1  0.4775180000000  0.4968630000000  0.5441970000000 1.0
C      1  0.4918750000000  0.4522210000000  0.5609280000000 1.0
C      1  0.4738140000000  0.4777450000000  0.4926310000000 1.0
C      1  0.5516870000000  0.4655310000000  0.3969630000000 1.0
C      1  0.4973450000000  0.4608320000000  0.4468660000000 1.0
C      1  0.4673590000000  0.5287110000000  0.4816170000000 1.0
C      1  0.5419380000000  0.4542960000000  0.5419400000000 1.0
C      1  0.4402160000000  0.4950970000000  0.4788330000000 1.0
C      1  0.4446480000000  0.5350350000000  0.5175670000000 1.0
C      1  0.5026000000000  0.5060670000000  0.4347970000000 1.0
C      1  0.4358080000000  0.4734750000000  0.5041120000000 1.0
C      1  0.4525350000000  0.4850310000000  0.5320040000000 1.0
C      1  0.4752950000000  0.5059950000000  0.4977450000000 1.0
C      1  0.4926190000000  0.5491340000000  0.5357130000000 1.0
C      1  0.5813880000000  0.5336810000000  0.4562840000000 1.0
C      1  0.4374610000000  0.5068170000000  0.5106910000000 1.0
C      1  0.4753170000000  0.5081280000000  0.4424720000000 1.0
C      1  0.5132720000000  0.5353450000000  0.5152130000000 1.0
C      1  0.5017000000000  0.5653680000000  0.5580020000000 1.0
C      1  0.4923090000000  0.4823650000000  0.5632530000000 1.0
C      1  0.4420110000000  0.5347180000000  0.4737860000000 1.0
C      1  0.5319470000000  0.4720130000000  0.4129360000000 1.0
C      1  0.4886310000000  0.5469520000000  0.4767060000000 1.0
C      1  0.4537210000000  0.5004460000000  0.4568500000000 1.0
C      1  0.6003870000000  0.5394760000000  0.4391880000000 1.0
C      1  0.4634170000000  0.5480870000000  0.5268710000000 1.0
C      1  0.5097020000000  0.5796720000000  0.5776410000000 1.0
C      1  0.5337490000000  0.5333130000000  0.4681030000000 1.0
C      1  0.4809000000000  0.4405110000000  0.5317670000000 1.0
C      1  0.4836460000000  0.4385190000000  0.5838500000000 1.0
END
