TITL C-2778425-5191-598 -0.00128040576343459 125000 -815.571824457145 0 0 140 (C1) n - 1
REM
REM in /home/nfs/bkarasulu/CARBON/AIRSS/Generating-Clusters/REBO/Only-C1/SD-CG/HFTN-CG
REM
REM
REM
REM
REM
REM ./C.cell (11c1c37f851c82e70ff6c80c92926a4b)
REM
REM compiler GCC version 9.2.1 20190827 (Red Hat 9.2.1-1)
REM options -cpp -mtune=generic -march=x86-64 -g -O0 -fpre-include=/usr/include/finclude/math-vector-fortran.h
REM seed 1382739416 539195919 831644 1627359364 -119060603 1608597306 -226073242 -70169681 -1902852770 -1750850400 -564931299 1043596027 1088891004 -425584042 -1768749984 -548721074 -1895596874 -2103885974 -483491796 -849442437 -1954478650 2057723647 84964024 -386704466 1821288584 -1188447325 -1014457544 800414293 -2093767229 283335348 288133910 -998765487 1282134267
REM
CELL 1.54180   50.00000   50.00000   50.00000   90.00000   90.00000   90.00000
LATT -1
SFAC C  
C      1  0.5900100000000  0.5319710000000  0.4805230000000 1.0
C      1  0.5320090000000  0.5335930000000  0.5148750000000 1.0
C      1  0.5653480000000  0.5284720000000  0.4328330000000 1.0
C      1  0.5081430000000  0.5598610000000  0.5740130000000 1.0
C      1  0.5578980000000  0.4984800000000  0.4175620000000 1.0
C      1  0.5568520000000  0.5222440000000  0.5328850000000 1.0
C      1  0.4534480000000  0.4948360000000  0.6019150000000 1.0
C      1  0.5092770000000  0.4838030000000  0.5609370000000 1.0
C      1  0.5047670000000  0.5319070000000  0.5305620000000 1.0
C      1  0.4482570000000  0.4692600000000  0.5890090000000 1.0
C      1  0.5097800000000  0.5067490000000  0.4041070000000 1.0
C      1  0.5738120000000  0.4766410000000  0.4505120000000 1.0
C      1  0.4687990000000  0.5853530000000  0.5600530000000 1.0
C      1  0.5882180000000  0.5221360000000  0.4545990000000 1.0
C      1  0.4117590000000  0.4216630000000  0.5328040000000 1.0
C      1  0.5686860000000  0.5023350000000  0.5631320000000 1.0
C      1  0.4678680000000  0.5100750000000  0.4258690000000 1.0
C      1  0.4752250000000  0.4318330000000  0.5618160000000 1.0
C      1  0.5033280000000  0.4073990000000  0.5143180000000 1.0
C      1  0.4572480000000  0.5545550000000  0.5374260000000 1.0
C      1  0.4504300000000  0.4902460000000  0.4047120000000 1.0
C      1  0.5773340000000  0.4933310000000  0.4865260000000 1.0
C      1  0.5134590000000  0.4543860000000  0.5161730000000 1.0
C      1  0.4424660000000  0.5712460000000  0.5115000000000 1.0
C      1  0.5051790000000  0.5900500000000  0.4909910000000 1.0
C      1  0.4148220000000  0.4668780000000  0.5113480000000 1.0
C      1  0.5397650000000  0.4639540000000  0.5834360000000 1.0
C      1  0.5566020000000  0.5337730000000  0.5711440000000 1.0
C      1  0.4067050000000  0.4738920000000  0.5394790000000 1.0
C      1  0.5113120000000  0.4154860000000  0.4490960000000 1.0
C      1  0.4302570000000  0.5063000000000  0.5629070000000 1.0
C      1  0.4931050000000  0.5883180000000  0.4625440000000 1.0
C      1  0.4695170000000  0.4509890000000  0.5875310000000 1.0
C      1  0.4295220000000  0.4731450000000  0.5628660000000 1.0
C      1  0.4246810000000  0.5508820000000  0.5325870000000 1.0
C      1  0.4554000000000  0.4625290000000  0.4837600000000 1.0
C      1  0.4283930000000  0.5083900000000  0.4240530000000 1.0
C      1  0.4348990000000  0.4757390000000  0.4311140000000 1.0
C      1  0.5070610000000  0.6038810000000  0.5207490000000 1.0
C      1  0.4441770000000  0.4383850000000  0.5015930000000 1.0
C      1  0.5255660000000  0.4298310000000  0.4297830000000 1.0
C      1  0.5764500000000  0.4453930000000  0.5148390000000 1.0
C      1  0.4655700000000  0.5765880000000  0.4622420000000 1.0
C      1  0.5948950000000  0.4952600000000  0.4490500000000 1.0
C      1  0.4797580000000  0.5680130000000  0.5780520000000 1.0
C      1  0.5301510000000  0.4630540000000  0.5446230000000 1.0
C      1  0.5361920000000  0.5575240000000  0.5620220000000 1.0
C      1  0.5328780000000  0.5769680000000  0.4656440000000 1.0
C      1  0.4832270000000  0.4985420000000  0.3997890000000 1.0
C      1  0.4836270000000  0.4847420000000  0.5446000000000 1.0
C      1  0.4472360000000  0.4481920000000  0.5516590000000 1.0
C      1  0.4753630000000  0.5810430000000  0.5282970000000 1.0
C      1  0.4775780000000  0.4191310000000  0.5335760000000 1.0
C      1  0.5267340000000  0.4307880000000  0.5454450000000 1.0
C      1  0.4831150000000  0.4337790000000  0.4838680000000 1.0
C      1  0.4734120000000  0.5303540000000  0.5408830000000 1.0
C      1  0.5401260000000  0.5468930000000  0.4190980000000 1.0
C      1  0.5085720000000  0.4281990000000  0.5673770000000 1.0
C      1  0.4750340000000  0.4456990000000  0.4144940000000 1.0
C      1  0.4782260000000  0.5342360000000  0.5804000000000 1.0
C      1  0.5173230000000  0.5005480000000  0.4386230000000 1.0
C      1  0.4506710000000  0.5591610000000  0.4467710000000 1.0
C      1  0.5369160000000  0.5164530000000  0.4076890000000 1.0
C      1  0.6013180000000  0.5070830000000  0.5590880000000 1.0
C      1  0.5061220000000  0.5715540000000  0.5262930000000 1.0
C      1  0.5238440000000  0.5033130000000  0.4853820000000 1.0
C      1  0.3937970000000  0.4760550000000  0.4579590000000 1.0
C      1  0.5069030000000  0.5884260000000  0.4377040000000 1.0
C      1  0.4687150000000  0.4874060000000  0.4969610000000 1.0
C      1  0.5713410000000  0.5538800000000  0.5330070000000 1.0
C      1  0.5860760000000  0.5352800000000  0.5567330000000 1.0
C      1  0.4076120000000  0.4643530000000  0.4402800000000 1.0
C      1  0.5418640000000  0.4892640000000  0.4528130000000 1.0
C      1  0.5131980000000  0.5670820000000  0.4220180000000 1.0
C      1  0.5417960000000  0.4637740000000  0.4730250000000 1.0
C      1  0.4584810000000  0.4690410000000  0.4525380000000 1.0
C      1  0.4057220000000  0.5004090000000  0.4733160000000 1.0
C      1  0.5866500000000  0.5553700000000  0.5050680000000 1.0
C      1  0.4919650000000  0.5511130000000  0.4779680000000 1.0
C      1  0.4941950000000  0.4589970000000  0.5992550000000 1.0
C      1  0.5216300000000  0.4930500000000  0.5131840000000 1.0
C      1  0.4917100000000  0.4804960000000  0.5157170000000 1.0
C      1  0.4377640000000  0.5398570000000  0.4877030000000 1.0
C      1  0.4153610000000  0.5399820000000  0.5041300000000 1.0
C      1  0.4946970000000  0.4658760000000  0.4195300000000 1.0
C      1  0.3995520000000  0.5164270000000  0.5018960000000 1.0
C      1  0.4271860000000  0.5184740000000  0.5355460000000 1.0
C      1  0.4857190000000  0.4883120000000  0.4440220000000 1.0
C      1  0.5387780000000  0.5637990000000  0.5286480000000 1.0
C      1  0.5799210000000  0.4535040000000  0.4669160000000 1.0
C      1  0.4783870000000  0.5065420000000  0.4720290000000 1.0
C      1  0.5641630000000  0.5538670000000  0.4555490000000 1.0
C      1  0.5585060000000  0.4725200000000  0.5579730000000 1.0
C      1  0.5481890000000  0.4473750000000  0.4436670000000 1.0
C      1  0.5014610000000  0.4881840000000  0.5938610000000 1.0
C      1  0.5197320000000  0.5476560000000  0.4651090000000 1.0
C      1  0.4178090000000  0.5193700000000  0.4514260000000 1.0
C      1  0.5302130000000  0.5028600000000  0.5413540000000 1.0
C      1  0.5082940000000  0.4269880000000  0.4746180000000 1.0
C      1  0.4656180000000  0.5272360000000  0.4959360000000 1.0
C      1  0.5287310000000  0.4158560000000  0.5215050000000 1.0
C      1  0.5324180000000  0.4919470000000  0.5923600000000 1.0
C      1  0.4810390000000  0.5343540000000  0.4546200000000 1.0
C      1  0.4012530000000  0.5010310000000  0.5270800000000 1.0
C      1  0.5965300000000  0.4825340000000  0.5424900000000 1.0
C      1  0.5841170000000  0.5222760000000  0.5126500000000 1.0
C      1  0.5174380000000  0.4452710000000  0.5886920000000 1.0
C      1  0.5178320000000  0.5317370000000  0.4393170000000 1.0
C      1  0.5375250000000  0.5794730000000  0.4979120000000 1.0
C      1  0.4482330000000  0.5180710000000  0.5818910000000 1.0
C      1  0.5795600000000  0.4566190000000  0.5403060000000 1.0
C      1  0.5772230000000  0.4906280000000  0.5194110000000 1.0
C      1  0.4449090000000  0.5066250000000  0.5119140000000 1.0
C      1  0.4726560000000  0.3988660000000  0.5064750000000 1.0
C      1  0.5873920000000  0.4616240000000  0.4939450000000 1.0
C      1  0.5499870000000  0.4786010000000  0.5025370000000 1.0
C      1  0.4256100000000  0.4869330000000  0.4957100000000 1.0
C      1  0.5319570000000  0.5146270000000  0.5721020000000 1.0
C      1  0.5542480000000  0.4251740000000  0.5023990000000 1.0
C      1  0.5615180000000  0.4294640000000  0.4694510000000 1.0
C      1  0.4577940000000  0.4311560000000  0.4649480000000 1.0
C      1  0.4322430000000  0.5412520000000  0.4607210000000 1.0
C      1  0.4703320000000  0.5404370000000  0.4000410000000 1.0
C      1  0.4672830000000  0.5055300000000  0.5490360000000 1.0
C      1  0.5641460000000  0.5622890000000  0.4848420000000 1.0
C      1  0.4343660000000  0.4365380000000  0.5285090000000 1.0
C      1  0.4584360000000  0.4411000000000  0.4356100000000 1.0
C      1  0.5216170000000  0.4574370000000  0.4160220000000 1.0
C      1  0.5420050000000  0.5385350000000  0.4850940000000 1.0
C      1  0.4877710000000  0.5486480000000  0.5085000000000 1.0
C      1  0.4810730000000  0.5079100000000  0.6006750000000 1.0
C      1  0.4696850000000  0.5828090000000  0.4946170000000 1.0
C      1  0.5289320000000  0.4423150000000  0.4915610000000 1.0
C      1  0.4481840000000  0.5363380000000  0.4244410000000 1.0
C      1  0.4839280000000  0.4419370000000  0.5110170000000 1.0
C      1  0.5533840000000  0.5102900000000  0.4747180000000 1.0
C      1  0.4908170000000  0.5427920000000  0.4243720000000 1.0
C      1  0.4517140000000  0.4102250000000  0.4903910000000 1.0
C      1  0.5504950000000  0.4708350000000  0.4187270000000 1.0
C      1  0.5068960000000  0.5297800000000  0.5624850000000 1.0
END
