TITL C-2778434-4341-499 0.361157887172826 125000 -847.756300337048 0 0 146 (C1) n - 1
REM
REM in /home/nfs/bkarasulu/CARBON/AIRSS/Generating-Clusters/REBO/Only-C1/SD-CG/HFTN-CG
REM
REM
REM
REM
REM
REM ./C.cell (11c1c37f851c82e70ff6c80c92926a4b)
REM
REM compiler GCC version 9.2.1 20190827 (Red Hat 9.2.1-1)
REM options -cpp -mtune=generic -march=x86-64 -g -O0 -fpre-include=/usr/include/finclude/math-vector-fortran.h
REM seed 1846333479 -734498048 2059118770 -902366676 983371412 -76656170 356647199 603563216 -406897914 1882928020 -1384802037 1836950315 1687068234 -1582650924 -179065442 60356687 -249403658 -1658590920 2110719993 -575196507 -191298120 -928140722 708679484 -1156491206 255986619 -1205363876 -2063116319 -379468051 -1007981735 -1639516731 -1489688867 762394079 -254826857
REM
CELL 1.54180   50.00000   50.00000   50.00000   90.00000   90.00000   90.00000
LATT -1
SFAC C  
C      1  0.5315740000000  0.5998730000000  0.4995660000000 1.0
C      1  0.5015140000000  0.5007910000000  0.5666580000000 1.0
C      1  0.5615720000000  0.4607230000000  0.4267280000000 1.0
C      1  0.4550990000000  0.4095520000000  0.4829480000000 1.0
C      1  0.4744760000000  0.4903930000000  0.4580800000000 1.0
C      1  0.5191680000000  0.5412250000000  0.5910320000000 1.0
C      1  0.4427890000000  0.5130700000000  0.4385360000000 1.0
C      1  0.5308330000000  0.4854750000000  0.5586800000000 1.0
C      1  0.4174140000000  0.4609480000000  0.5355240000000 1.0
C      1  0.5193540000000  0.5222060000000  0.5492790000000 1.0
C      1  0.5237350000000  0.4862560000000  0.4431410000000 1.0
C      1  0.5313080000000  0.5488450000000  0.4581810000000 1.0
C      1  0.4948520000000  0.5348740000000  0.4388860000000 1.0
C      1  0.4489930000000  0.4743200000000  0.5686280000000 1.0
C      1  0.5756130000000  0.5241120000000  0.4272300000000 1.0
C      1  0.3985180000000  0.5038400000000  0.4593990000000 1.0
C      1  0.4384370000000  0.4928910000000  0.4112740000000 1.0
C      1  0.4571820000000  0.5617660000000  0.4591800000000 1.0
C      1  0.4434940000000  0.4951200000000  0.4850760000000 1.0
C      1  0.4175450000000  0.4876950000000  0.5060390000000 1.0
C      1  0.5875800000000  0.4527870000000  0.5074150000000 1.0
C      1  0.5522450000000  0.5396340000000  0.5300490000000 1.0
C      1  0.5051230000000  0.5491070000000  0.5406900000000 1.0
C      1  0.4889350000000  0.4737200000000  0.5389190000000 1.0
C      1  0.4615070000000  0.4032710000000  0.4503400000000 1.0
C      1  0.5086250000000  0.5058800000000  0.4761180000000 1.0
C      1  0.5079580000000  0.5702240000000  0.5659050000000 1.0
C      1  0.4499090000000  0.5375970000000  0.5031950000000 1.0
C      1  0.4270190000000  0.5579130000000  0.4605470000000 1.0
C      1  0.4388110000000  0.4361480000000  0.5382760000000 1.0
C      1  0.5877940000000  0.5283380000000  0.5648800000000 1.0
C      1  0.5452800000000  0.5350900000000  0.5617010000000 1.0
C      1  0.5033730000000  0.5888580000000  0.5380250000000 1.0
C      1  0.4353370000000  0.5443340000000  0.4312850000000 1.0
C      1  0.5857000000000  0.5189340000000  0.5248110000000 1.0
C      1  0.4794340000000  0.5460800000000  0.4886770000000 1.0
C      1  0.5371230000000  0.4735420000000  0.4906000000000 1.0
C      1  0.3876070000000  0.4750260000000  0.5104400000000 1.0
C      1  0.5596500000000  0.5538570000000  0.4693520000000 1.0
C      1  0.4696120000000  0.5145100000000  0.4799530000000 1.0
C      1  0.5247780000000  0.5443340000000  0.5132900000000 1.0
C      1  0.4376680000000  0.4420570000000  0.4426350000000 1.0
C      1  0.4647690000000  0.5093850000000  0.4055690000000 1.0
C      1  0.4095020000000  0.4558550000000  0.4832630000000 1.0
C      1  0.5400680000000  0.4210620000000  0.4772960000000 1.0
C      1  0.5625330000000  0.4454450000000  0.5247480000000 1.0
C      1  0.5521240000000  0.5020850000000  0.4670010000000 1.0
C      1  0.4737430000000  0.5845600000000  0.5546590000000 1.0
C      1  0.4999520000000  0.5131740000000  0.5059260000000 1.0
C      1  0.5612550000000  0.4337130000000  0.5559630000000 1.0
C      1  0.4875780000000  0.5677640000000  0.4341890000000 1.0
C      1  0.4536260000000  0.5658940000000  0.5404620000000 1.0
C      1  0.4808440000000  0.5727730000000  0.5842210000000 1.0
C      1  0.4856450000000  0.5046930000000  0.4322220000000 1.0
C      1  0.4382090000000  0.5837400000000  0.5207450000000 1.0
C      1  0.5518510000000  0.5160760000000  0.4076870000000 1.0
C      1  0.5118750000000  0.4750320000000  0.5136940000000 1.0
C      1  0.4845490000000  0.4089450000000  0.5340520000000 1.0
C      1  0.5355470000000  0.5219790000000  0.4898990000000 1.0
C      1  0.5849040000000  0.4761960000000  0.5601890000000 1.0
C      1  0.5106490000000  0.4073820000000  0.5232470000000 1.0
C      1  0.5367880000000  0.5810220000000  0.5422240000000 1.0
C      1  0.4471530000000  0.4629110000000  0.4188810000000 1.0
C      1  0.4761890000000  0.5796000000000  0.4895160000000 1.0
C      1  0.3924680000000  0.5260440000000  0.5282410000000 1.0
C      1  0.5244610000000  0.5056310000000  0.5245560000000 1.0
C      1  0.5288310000000  0.4677000000000  0.4637560000000 1.0
C      1  0.5800620000000  0.4511920000000  0.4745790000000 1.0
C      1  0.4996500000000  0.5934130000000  0.5077380000000 1.0
C      1  0.4139460000000  0.5408230000000  0.5196280000000 1.0
C      1  0.5100640000000  0.4417500000000  0.5029390000000 1.0
C      1  0.4900630000000  0.4798700000000  0.4866090000000 1.0
C      1  0.4536830000000  0.4629320000000  0.4892390000000 1.0
C      1  0.4371220000000  0.4200800000000  0.5080630000000 1.0
C      1  0.4947630000000  0.4547510000000  0.5599130000000 1.0
C      1  0.4260710000000  0.4893240000000  0.5522210000000 1.0
C      1  0.5643090000000  0.4555010000000  0.5763080000000 1.0
C      1  0.4454760000000  0.4385060000000  0.4736040000000 1.0
C      1  0.4665400000000  0.4301250000000  0.4304450000000 1.0
C      1  0.4156960000000  0.4443080000000  0.5068840000000 1.0
C      1  0.5810160000000  0.5333110000000  0.4531480000000 1.0
C      1  0.4484150000000  0.5889770000000  0.4986690000000 1.0
C      1  0.5143270000000  0.5523330000000  0.4087930000000 1.0
C      1  0.4190540000000  0.4647300000000  0.4599020000000 1.0
C      1  0.5354830000000  0.4622570000000  0.5355640000000 1.0
C      1  0.5377540000000  0.5635410000000  0.5719030000000 1.0
C      1  0.5697770000000  0.4756060000000  0.4549550000000 1.0
C      1  0.4876370000000  0.4859890000000  0.4043220000000 1.0
C      1  0.5687100000000  0.5295480000000  0.4904100000000 1.0
C      1  0.5338530000000  0.4226630000000  0.5407200000000 1.0
C      1  0.4490970000000  0.5143400000000  0.5524740000000 1.0
C      1  0.5236220000000  0.4881320000000  0.6003160000000 1.0
C      1  0.4872940000000  0.4049490000000  0.4728930000000 1.0
C      1  0.5107330000000  0.5529430000000  0.4849820000000 1.0
C      1  0.5298650000000  0.5304380000000  0.3991620000000 1.0
C      1  0.4724710000000  0.5185430000000  0.5194240000000 1.0
C      1  0.5580080000000  0.4888210000000  0.5734560000000 1.0
C      1  0.4732070000000  0.4855360000000  0.5737320000000 1.0
C      1  0.5670000000000  0.5680670000000  0.4995240000000 1.0
C      1  0.5343440000000  0.4622700000000  0.5908780000000 1.0
C      1  0.4785000000000  0.5864850000000  0.4592750000000 1.0
C      1  0.4950370000000  0.4239110000000  0.4483130000000 1.0
C      1  0.5107270000000  0.4097290000000  0.4910020000000 1.0
C      1  0.5008180000000  0.4864990000000  0.6156460000000 1.0
C      1  0.4822280000000  0.5543950000000  0.4065860000000 1.0
C      1  0.5867210000000  0.4792490000000  0.5273250000000 1.0
C      1  0.5268700000000  0.5182170000000  0.4511700000000 1.0
C      1  0.5102120000000  0.5888870000000  0.4473740000000 1.0
C      1  0.5240570000000  0.4466050000000  0.5629960000000 1.0
C      1  0.5689180000000  0.4921970000000  0.4249090000000 1.0
C      1  0.4221520000000  0.5405390000000  0.4868980000000 1.0
C      1  0.4362220000000  0.5394500000000  0.5390090000000 1.0
C      1  0.5327400000000  0.5155000000000  0.5941590000000 1.0
C      1  0.4441310000000  0.4738040000000  0.5186660000000 1.0
C      1  0.4179520000000  0.5121320000000  0.4749140000000 1.0
C      1  0.5870450000000  0.5467880000000  0.5115110000000 1.0
C      1  0.4807710000000  0.4097270000000  0.5621500000000 1.0
C      1  0.5623200000000  0.4831980000000  0.5033560000000 1.0
C      1  0.5233900000000  0.4371810000000  0.4559320000000 1.0
C      1  0.5495610000000  0.5842530000000  0.5156900000000 1.0
C      1  0.4664700000000  0.4289770000000  0.5202480000000 1.0
C      1  0.4803110000000  0.4523830000000  0.5043380000000 1.0
C      1  0.6001570000000  0.5028980000000  0.5483350000000 1.0
C      1  0.5040030000000  0.4393640000000  0.4211250000000 1.0
C      1  0.4900260000000  0.5437850000000  0.5895480000000 1.0
C      1  0.5395160000000  0.4305760000000  0.5085810000000 1.0
C      1  0.5269460000000  0.5658570000000  0.4316240000000 1.0
C      1  0.4664410000000  0.5326730000000  0.4533370000000 1.0
C      1  0.5120940000000  0.4721770000000  0.4171270000000 1.0
C      1  0.5852060000000  0.5069490000000  0.4742190000000 1.0
C      1  0.5793180000000  0.5504860000000  0.5481480000000 1.0
C      1  0.4637920000000  0.4904920000000  0.5330570000000 1.0
C      1  0.4768210000000  0.4550490000000  0.4093950000000 1.0
C      1  0.5139800000000  0.5842380000000  0.4775870000000 1.0
C      1  0.4759240000000  0.5411700000000  0.5402300000000 1.0
C      1  0.5628720000000  0.5174670000000  0.5812080000000 1.0
C      1  0.5350610000000  0.4497110000000  0.4267470000000 1.0
C      1  0.4755950000000  0.4364340000000  0.5705780000000 1.0
C      1  0.5676900000000  0.4259490000000  0.4690190000000 1.0
C      1  0.5923500000000  0.4803490000000  0.4875780000000 1.0
C      1  0.4583710000000  0.5390950000000  0.4081580000000 1.0
C      1  0.4772310000000  0.5245720000000  0.5687340000000 1.0
C      1  0.5560010000000  0.5072910000000  0.5208810000000 1.0
C      1  0.3998210000000  0.4967570000000  0.5331090000000 1.0
C      1  0.4495560000000  0.4463790000000  0.5654750000000 1.0
C      1  0.4453090000000  0.4807290000000  0.4479600000000 1.0
END
