TITL C-2778427-5640-225 -0.000155763679015691 125000 -491.394605056508 0 0 86 (C1) n - 1
REM
REM in /home/nfs/bkarasulu/CARBON/AIRSS/Generating-Clusters/REBO/Only-C1/SD-CG/HFTN-CG
REM
REM
REM
REM
REM
REM ./C.cell (11c1c37f851c82e70ff6c80c92926a4b)
REM
REM compiler GCC version 9.2.1 20190827 (Red Hat 9.2.1-1)
REM options -cpp -mtune=generic -march=x86-64 -g -O0 -fpre-include=/usr/include/finclude/math-vector-fortran.h
REM seed 428917263 696367973 -1582641234 532207006 -1420195259 -402417987 810815090 -855690988 -387950038 -947436552 413349035 -125707719 -2058267421 1807853270 -1584570500 1575377016 -762692329 -1354240779 722642211 -1484706170 1326968128 -1469817271 -688589057 1540733124 -1600159257 -341027743 1603351592 569052073 -1855756346 -1617871832 -1196257183 1463199784 -2100800025
REM
CELL 1.54180   50.00000   50.00000   50.00000   90.00000   90.00000   90.00000
LATT -1
SFAC C  
C      1  0.4668360000000  0.4964690000000  0.4221050000000 1.0
C      1  0.5553070000000  0.4591560000000  0.5464570000000 1.0
C      1  0.5573410000000  0.4689110000000  0.4658470000000 1.0
C      1  0.5467100000000  0.4330940000000  0.5442930000000 1.0
C      1  0.5223980000000  0.4082820000000  0.4999290000000 1.0
C      1  0.5604010000000  0.4459140000000  0.5091580000000 1.0
C      1  0.4268820000000  0.4920680000000  0.4543520000000 1.0
C      1  0.5439870000000  0.5308690000000  0.4859840000000 1.0
C      1  0.5739740000000  0.5167660000000  0.4827170000000 1.0
C      1  0.5683180000000  0.5616170000000  0.5096230000000 1.0
C      1  0.5750470000000  0.4858230000000  0.4852290000000 1.0
C      1  0.5579060000000  0.5274760000000  0.5432330000000 1.0
C      1  0.5107160000000  0.4727470000000  0.4105610000000 1.0
C      1  0.4637680000000  0.4447950000000  0.5455820000000 1.0
C      1  0.5303480000000  0.4890030000000  0.5758170000000 1.0
C      1  0.4897830000000  0.4816630000000  0.4617030000000 1.0
C      1  0.5395760000000  0.5363060000000  0.4467560000000 1.0
C      1  0.4557360000000  0.4702950000000  0.5644910000000 1.0
C      1  0.5157910000000  0.4954220000000  0.4574300000000 1.0
C      1  0.4770660000000  0.5563440000000  0.5412250000000 1.0
C      1  0.4523630000000  0.4498590000000  0.4485550000000 1.0
C      1  0.4660180000000  0.4270220000000  0.4629120000000 1.0
C      1  0.5737510000000  0.5310910000000  0.5126730000000 1.0
C      1  0.4931020000000  0.4669210000000  0.5107310000000 1.0
C      1  0.4958400000000  0.5204040000000  0.4948230000000 1.0
C      1  0.4897830000000  0.4501470000000  0.4623070000000 1.0
C      1  0.4655780000000  0.4949380000000  0.4640450000000 1.0
C      1  0.5189120000000  0.5210790000000  0.5150030000000 1.0
C      1  0.5430200000000  0.4262050000000  0.4938510000000 1.0
C      1  0.4362260000000  0.5178810000000  0.5431060000000 1.0
C      1  0.5365830000000  0.4514670000000  0.4776450000000 1.0
C      1  0.5587320000000  0.5154970000000  0.4522260000000 1.0
C      1  0.4944270000000  0.5641290000000  0.4910960000000 1.0
C      1  0.5313770000000  0.5009690000000  0.5294950000000 1.0
C      1  0.4391930000000  0.5065430000000  0.4339230000000 1.0
C      1  0.5362120000000  0.5345090000000  0.5599340000000 1.0
C      1  0.4403080000000  0.5430700000000  0.4789100000000 1.0
C      1  0.4874200000000  0.5643520000000  0.4636250000000 1.0
C      1  0.5183290000000  0.4720730000000  0.4969750000000 1.0
C      1  0.4590500000000  0.5268970000000  0.4619450000000 1.0
C      1  0.4924730000000  0.4440340000000  0.5332970000000 1.0
C      1  0.4711820000000  0.4548250000000  0.4911600000000 1.0
C      1  0.5112130000000  0.5244980000000  0.4441470000000 1.0
C      1  0.4798800000000  0.5356250000000  0.5670990000000 1.0
C      1  0.5219180000000  0.5160040000000  0.5778050000000 1.0
C      1  0.4842100000000  0.4893770000000  0.5328120000000 1.0
C      1  0.4463830000000  0.5604320000000  0.5219800000000 1.0
C      1  0.4782450000000  0.5228200000000  0.5377510000000 1.0
C      1  0.4952710000000  0.4068130000000  0.5008360000000 1.0
C      1  0.4289870000000  0.5377750000000  0.5256440000000 1.0
C      1  0.4449420000000  0.5075190000000  0.5049540000000 1.0
C      1  0.4190330000000  0.5262840000000  0.4961110000000 1.0
C      1  0.5347690000000  0.4996010000000  0.4854300000000 1.0
C      1  0.5257610000000  0.5597220000000  0.5573680000000 1.0
C      1  0.5205390000000  0.5514070000000  0.4995350000000 1.0
C      1  0.4933110000000  0.5174060000000  0.5839170000000 1.0
C      1  0.4410030000000  0.4641170000000  0.5325920000000 1.0
C      1  0.4483870000000  0.5653050000000  0.4930040000000 1.0
C      1  0.5416110000000  0.5586710000000  0.4663950000000 1.0
C      1  0.5077260000000  0.4694410000000  0.5871270000000 1.0
C      1  0.4525780000000  0.4928560000000  0.5318170000000 1.0
C      1  0.5202760000000  0.4277910000000  0.5442350000000 1.0
C      1  0.4798830000000  0.6024990000000  0.5182370000000 1.0
C      1  0.4813450000000  0.5505640000000  0.4389310000000 1.0
C      1  0.4800170000000  0.5750020000000  0.5150580000000 1.0
C      1  0.6021790000000  0.4930030000000  0.5453230000000 1.0
C      1  0.4893720000000  0.5223110000000  0.4214600000000 1.0
C      1  0.5463310000000  0.4893010000000  0.4486840000000 1.0
C      1  0.5839800000000  0.5109940000000  0.5370990000000 1.0
C      1  0.5512450000000  0.4763620000000  0.5050220000000 1.0
C      1  0.4692300000000  0.4653090000000  0.4315550000000 1.0
C      1  0.4942890000000  0.4763350000000  0.5567700000000 1.0
C      1  0.4981710000000  0.4567470000000  0.4303180000000 1.0
C      1  0.4958890000000  0.4951020000000  0.4042770000000 1.0
C      1  0.4913170000000  0.5250120000000  0.4684010000000 1.0
C      1  0.4353190000000  0.4646410000000  0.4648270000000 1.0
C      1  0.4216890000000  0.4938120000000  0.4873440000000 1.0
C      1  0.5027630000000  0.4445530000000  0.5658360000000 1.0
C      1  0.4402050000000  0.4669290000000  0.4985860000000 1.0
C      1  0.4722780000000  0.5187210000000  0.5086650000000 1.0
C      1  0.4782890000000  0.4868960000000  0.5841210000000 1.0
C      1  0.4728620000000  0.4208300000000  0.4920050000000 1.0
C      1  0.5450970000000  0.5703990000000  0.5058780000000 1.0
C      1  0.4531200000000  0.5352530000000  0.4312200000000 1.0
C      1  0.5399290000000  0.5854950000000  0.4692000000000 1.0
C      1  0.5413950000000  0.4835300000000  0.5498940000000 1.0
END
