TITL C-2778425-5191-991 0.012311379688051 125000 -1016.48589480288 0 0 174 (C1) n - 1
REM
REM in /home/nfs/bkarasulu/CARBON/AIRSS/Generating-Clusters/REBO/Only-C1/SD-CG/HFTN-CG
REM
REM
REM
REM
REM
REM ./C.cell (11c1c37f851c82e70ff6c80c92926a4b)
REM
REM compiler GCC version 9.2.1 20190827 (Red Hat 9.2.1-1)
REM options -cpp -mtune=generic -march=x86-64 -g -O0 -fpre-include=/usr/include/finclude/math-vector-fortran.h
REM seed -48909901 799917696 128927926 -327971616 1602634028 -1212656172 1683644544 -1455930892 1244660926 -1688052327 -542216187 -1285161308 2051729574 -1231666237 -1470517675 368984708 -1242894009 877519187 834870938 492177995 -1786196943 1233597085 -1331124125 -1821836370 -2025216337 -1776053690 -2066652180 533327339 1105240817 100041075 2138213432 -1210441206 -417106086
REM
CELL 1.54180   50.00000   50.00000   50.00000   90.00000   90.00000   90.00000
LATT -1
SFAC C  
C      1  0.4357250000000  0.4327100000000  0.5229520000000 1.0
C      1  0.4493450000000  0.5695110000000  0.5077960000000 1.0
C      1  0.4647410000000  0.3457240000000  0.4829870000000 1.0
C      1  0.5141210000000  0.5918120000000  0.5543310000000 1.0
C      1  0.5602520000000  0.4558980000000  0.4908550000000 1.0
C      1  0.5840140000000  0.4564990000000  0.5478220000000 1.0
C      1  0.3801210000000  0.5213650000000  0.4643060000000 1.0
C      1  0.5411080000000  0.5654830000000  0.4215530000000 1.0
C      1  0.4667430000000  0.4343650000000  0.4376600000000 1.0
C      1  0.4998640000000  0.4402030000000  0.5843390000000 1.0
C      1  0.4995290000000  0.5562940000000  0.5021920000000 1.0
C      1  0.4162010000000  0.5208970000000  0.4807970000000 1.0
C      1  0.4660700000000  0.5932830000000  0.5175780000000 1.0
C      1  0.5216620000000  0.3798550000000  0.4360400000000 1.0
C      1  0.4857440000000  0.4861440000000  0.4607900000000 1.0
C      1  0.4542280000000  0.5104860000000  0.4575550000000 1.0
C      1  0.5571720000000  0.4120020000000  0.5419590000000 1.0
C      1  0.4071040000000  0.5663050000000  0.4573640000000 1.0
C      1  0.5395180000000  0.5463170000000  0.4718860000000 1.0
C      1  0.4192970000000  0.4237610000000  0.5514570000000 1.0
C      1  0.4517100000000  0.4576830000000  0.4569610000000 1.0
C      1  0.5868420000000  0.4296340000000  0.5050230000000 1.0
C      1  0.4704730000000  0.5391040000000  0.4348190000000 1.0
C      1  0.5206140000000  0.3914690000000  0.5118220000000 1.0
C      1  0.4568670000000  0.4664290000000  0.5192150000000 1.0
C      1  0.4258140000000  0.5454060000000  0.5831340000000 1.0
C      1  0.5088110000000  0.3996310000000  0.5427680000000 1.0
C      1  0.5285550000000  0.5963890000000  0.4760840000000 1.0
C      1  0.4730980000000  0.4921830000000  0.5925290000000 1.0
C      1  0.4836420000000  0.5972990000000  0.4530480000000 1.0
C      1  0.5687830000000  0.5702880000000  0.4889300000000 1.0
C      1  0.4874490000000  0.5030190000000  0.4343840000000 1.0
C      1  0.4244020000000  0.4959680000000  0.4233400000000 1.0
C      1  0.5126070000000  0.4688140000000  0.4941660000000 1.0
C      1  0.4721620000000  0.4635340000000  0.4817650000000 1.0
C      1  0.4535610000000  0.6081330000000  0.4588280000000 1.0
C      1  0.4829490000000  0.4382270000000  0.4911940000000 1.0
C      1  0.4322410000000  0.6007140000000  0.4743620000000 1.0
C      1  0.3967750000000  0.5473120000000  0.4791180000000 1.0
C      1  0.5289230000000  0.5686450000000  0.4908620000000 1.0
C      1  0.5024470000000  0.6060550000000  0.4772130000000 1.0
C      1  0.6087070000000  0.5294590000000  0.4806420000000 1.0
C      1  0.4394150000000  0.4844180000000  0.4738490000000 1.0
C      1  0.5118040000000  0.4838060000000  0.5249350000000 1.0
C      1  0.4324010000000  0.4550800000000  0.5486560000000 1.0
C      1  0.5242460000000  0.5475650000000  0.5242920000000 1.0
C      1  0.4350880000000  0.5581510000000  0.5345740000000 1.0
C      1  0.4124470000000  0.5542140000000  0.5089290000000 1.0
C      1  0.5876020000000  0.5534970000000  0.5564660000000 1.0
C      1  0.4916770000000  0.5798580000000  0.5335310000000 1.0
C      1  0.4621420000000  0.6003910000000  0.5506110000000 1.0
C      1  0.6055450000000  0.5004770000000  0.4371400000000 1.0
C      1  0.5423780000000  0.4892760000000  0.5108860000000 1.0
C      1  0.5704260000000  0.4615140000000  0.4417860000000 1.0
C      1  0.5608600000000  0.4160770000000  0.4934020000000 1.0
C      1  0.4311450000000  0.5684750000000  0.4507800000000 1.0
C      1  0.4826930000000  0.5706780000000  0.4311410000000 1.0
C      1  0.5732120000000  0.5030720000000  0.5130100000000 1.0
C      1  0.6070350000000  0.4989180000000  0.4687140000000 1.0
C      1  0.5118000000000  0.5519440000000  0.5948300000000 1.0
C      1  0.4984600000000  0.4262250000000  0.4403390000000 1.0
C      1  0.4075590000000  0.5274250000000  0.5293800000000 1.0
C      1  0.4899560000000  0.5390050000000  0.5596610000000 1.0
C      1  0.4936840000000  0.4592720000000  0.5406460000000 1.0
C      1  0.4991950000000  0.4677330000000  0.4046480000000 1.0
C      1  0.5834890000000  0.4307680000000  0.5346380000000 1.0
C      1  0.5885500000000  0.5466690000000  0.4865360000000 1.0
C      1  0.5524860000000  0.4344550000000  0.4486780000000 1.0
C      1  0.5620070000000  0.5236870000000  0.4403160000000 1.0
C      1  0.5765120000000  0.5026370000000  0.4796280000000 1.0
C      1  0.4587650000000  0.5686190000000  0.4557050000000 1.0
C      1  0.5581190000000  0.5159670000000  0.5474640000000 1.0
C      1  0.4638640000000  0.4540420000000  0.5564060000000 1.0
C      1  0.3994050000000  0.5068860000000  0.4442370000000 1.0
C      1  0.4764700000000  0.3682690000000  0.4861160000000 1.0
C      1  0.4784230000000  0.4643370000000  0.4283810000000 1.0
C      1  0.5025190000000  0.4173890000000  0.5079220000000 1.0
C      1  0.5323100000000  0.5036970000000  0.4817500000000 1.0
C      1  0.5465090000000  0.4432310000000  0.5418340000000 1.0
C      1  0.6060400000000  0.4687830000000  0.4790870000000 1.0
C      1  0.5307890000000  0.4854230000000  0.4214920000000 1.0
C      1  0.5890850000000  0.5066250000000  0.5414160000000 1.0
C      1  0.3829760000000  0.4889530000000  0.4985530000000 1.0
C      1  0.4563260000000  0.5177360000000  0.5101920000000 1.0
C      1  0.5612980000000  0.5837970000000  0.4391150000000 1.0
C      1  0.4888250000000  0.5688630000000  0.4718820000000 1.0
C      1  0.4672810000000  0.5464980000000  0.4969960000000 1.0
C      1  0.4594690000000  0.5817150000000  0.5712380000000 1.0
C      1  0.5819140000000  0.5086340000000  0.4238770000000 1.0
C      1  0.5504030000000  0.5682860000000  0.5158610000000 1.0
C      1  0.5299510000000  0.5266980000000  0.5863850000000 1.0
C      1  0.5574270000000  0.4749480000000  0.5364060000000 1.0
C      1  0.4757270000000  0.5280380000000  0.5313830000000 1.0
C      1  0.4365370000000  0.4649950000000  0.4993840000000 1.0
C      1  0.5040540000000  0.3872460000000  0.4821390000000 1.0
C      1  0.5101900000000  0.4307790000000  0.4717630000000 1.0
C      1  0.4342730000000  0.5085150000000  0.5300940000000 1.0
C      1  0.5558920000000  0.5517790000000  0.4468360000000 1.0
C      1  0.5492380000000  0.5278820000000  0.5180060000000 1.0
C      1  0.4825680000000  0.5717410000000  0.5883190000000 1.0
C      1  0.4977360000000  0.4725060000000  0.5951970000000 1.0
C      1  0.3661700000000  0.5033290000000  0.4801990000000 1.0
C      1  0.5088790000000  0.5419880000000  0.4661560000000 1.0
C      1  0.5543060000000  0.5459410000000  0.5611990000000 1.0
C      1  0.4947070000000  0.4951340000000  0.4906540000000 1.0
C      1  0.4570420000000  0.4879020000000  0.5368150000000 1.0
C      1  0.5145070000000  0.6043900000000  0.5251560000000 1.0
C      1  0.5809540000000  0.4548250000000  0.4718190000000 1.0
C      1  0.6038960000000  0.5327840000000  0.5495720000000 1.0
C      1  0.5101840000000  0.5046250000000  0.5597850000000 1.0
C      1  0.4049850000000  0.5070540000000  0.5036290000000 1.0
C      1  0.5336390000000  0.5199970000000  0.4016550000000 1.0
C      1  0.4036270000000  0.4740650000000  0.4356390000000 1.0
C      1  0.4804640000000  0.4310780000000  0.5656820000000 1.0
C      1  0.5087100000000  0.4709840000000  0.4433020000000 1.0
C      1  0.5630740000000  0.5214980000000  0.5891110000000 1.0
C      1  0.4926550000000  0.6062490000000  0.5036670000000 1.0
C      1  0.6351930000000  0.4404510000000  0.5077030000000 1.0
C      1  0.5238100000000  0.4945530000000  0.5963050000000 1.0
C      1  0.5300620000000  0.4110540000000  0.5588090000000 1.0
C      1  0.4200840000000  0.5177870000000  0.5817530000000 1.0
C      1  0.5258470000000  0.4332900000000  0.5758770000000 1.0
C      1  0.5086030000000  0.4984080000000  0.3984580000000 1.0
C      1  0.4551610000000  0.4816990000000  0.5679440000000 1.0
C      1  0.5578370000000  0.5020290000000  0.4070820000000 1.0
C      1  0.4759440000000  0.5315040000000  0.4681550000000 1.0
C      1  0.5257080000000  0.5475980000000  0.4068690000000 1.0
C      1  0.5145590000000  0.4430200000000  0.4158170000000 1.0
C      1  0.6107680000000  0.4449470000000  0.4965170000000 1.0
C      1  0.5716920000000  0.4938970000000  0.5863490000000 1.0
C      1  0.4688840000000  0.5578730000000  0.5406290000000 1.0
C      1  0.3884640000000  0.4611770000000  0.5016100000000 1.0
C      1  0.4269380000000  0.5257350000000  0.4493590000000 1.0
C      1  0.4255980000000  0.5797200000000  0.4901710000000 1.0
C      1  0.5028970000000  0.5280600000000  0.4391090000000 1.0
C      1  0.5294710000000  0.4724440000000  0.4677270000000 1.0
C      1  0.4525290000000  0.4839610000000  0.4363410000000 1.0
C      1  0.5499310000000  0.3993390000000  0.5140590000000 1.0
C      1  0.5599030000000  0.4861340000000  0.4596080000000 1.0
C      1  0.5370570000000  0.5061370000000  0.4479640000000 1.0
C      1  0.5426350000000  0.4594410000000  0.5699280000000 1.0
C      1  0.4885230000000  0.5168090000000  0.5830600000000 1.0
C      1  0.4640580000000  0.4954440000000  0.4930270000000 1.0
C      1  0.4337040000000  0.4316520000000  0.4327930000000 1.0
C      1  0.4755640000000  0.3994820000000  0.4968500000000 1.0
C      1  0.4189910000000  0.4822830000000  0.5465780000000 1.0
C      1  0.5077690000000  0.4737040000000  0.5642820000000 1.0
C      1  0.5434470000000  0.4490220000000  0.5097310000000 1.0
C      1  0.4123220000000  0.4485730000000  0.4352550000000 1.0
C      1  0.5404510000000  0.4260990000000  0.4727940000000 1.0
C      1  0.4063470000000  0.5091280000000  0.5580590000000 1.0
C      1  0.5026080000000  0.5140000000000  0.5311560000000 1.0
C      1  0.4716760000000  0.5074870000000  0.4106880000000 1.0
C      1  0.5120170000000  0.4447810000000  0.5175910000000 1.0
C      1  0.5404330000000  0.4924860000000  0.5581700000000 1.0
C      1  0.4131520000000  0.4481540000000  0.5040120000000 1.0
C      1  0.5209790000000  0.5428910000000  0.5571020000000 1.0
C      1  0.5489010000000  0.4780490000000  0.5941900000000 1.0
C      1  0.5651070000000  0.5704600000000  0.5415360000000 1.0
C      1  0.5858030000000  0.4841580000000  0.5626720000000 1.0
C      1  0.5601410000000  0.5313150000000  0.4884590000000 1.0
C      1  0.4399710000000  0.4997130000000  0.5905870000000 1.0
C      1  0.4385060000000  0.5633930000000  0.5659630000000 1.0
C      1  0.5129790000000  0.5811160000000  0.5794510000000 1.0
C      1  0.5440150000000  0.4535560000000  0.4220500000000 1.0
C      1  0.4883570000000  0.5256170000000  0.3942630000000 1.0
C      1  0.5566570000000  0.5872300000000  0.4689100000000 1.0
C      1  0.5088970000000  0.3962430000000  0.4526220000000 1.0
C      1  0.5119420000000  0.5203310000000  0.5006790000000 1.0
C      1  0.4967290000000  0.5509770000000  0.4070260000000 1.0
C      1  0.4449910000000  0.5218420000000  0.4205540000000 1.0
C      1  0.4837610000000  0.4139080000000  0.5430750000000 1.0
C      1  0.4644000000000  0.4235030000000  0.5165990000000 1.0
C      1  0.4812440000000  0.5420220000000  0.6021690000000 1.0
END
