TITL C-2778430-5657-1010 -0.00143206352371851 125000 -776.87430686302 0 0 136 (C1) n - 1
REM
REM in /home/nfs/bkarasulu/CARBON/AIRSS/Generating-Clusters/REBO/Only-C1/SD-CG/HFTN-CG
REM
REM
REM
REM
REM
REM ./C.cell (11c1c37f851c82e70ff6c80c92926a4b)
REM
REM compiler GCC version 9.2.1 20190827 (Red Hat 9.2.1-1)
REM options -cpp -mtune=generic -march=x86-64 -g -O0 -fpre-include=/usr/include/finclude/math-vector-fortran.h
REM seed 155511883 -1852906120 -557779718 1491117134 827576454 -441524830 -753724888 -438956846 171708676 -978160336 -636071146 1768401752 939146993 -219019609 -1885748725 -1349299225 -2078225636 191950767 204701796 479013473 1973436879 896582627 -1636903943 -1039045275 -1425213397 990692631 1840323924 1534372740 601806186 -132550202 349737146 352169624 -105581256
REM
CELL 1.54180   50.00000   50.00000   50.00000   90.00000   90.00000   90.00000
LATT -1
SFAC C  
C      1  0.4780370000000  0.4751530000000  0.4570010000000 1.0
C      1  0.5203450000000  0.4917930000000  0.3974100000000 1.0
C      1  0.4917290000000  0.5397490000000  0.4809750000000 1.0
C      1  0.4435300000000  0.5152610000000  0.5803590000000 1.0
C      1  0.4962480000000  0.4566560000000  0.5694800000000 1.0
C      1  0.5420370000000  0.5212250000000  0.5347120000000 1.0
C      1  0.5137460000000  0.5185910000000  0.3835060000000 1.0
C      1  0.5601180000000  0.5631820000000  0.4543950000000 1.0
C      1  0.5561690000000  0.4497080000000  0.4943990000000 1.0
C      1  0.4732250000000  0.5721700000000  0.4670590000000 1.0
C      1  0.5842270000000  0.5427200000000  0.4676010000000 1.0
C      1  0.4848860000000  0.5033590000000  0.4712940000000 1.0
C      1  0.4852240000000  0.4294860000000  0.5532950000000 1.0
C      1  0.4514430000000  0.4889340000000  0.4127230000000 1.0
C      1  0.5002060000000  0.4484160000000  0.5201650000000 1.0
C      1  0.5317280000000  0.4521760000000  0.4762870000000 1.0
C      1  0.4141600000000  0.5377710000000  0.4735450000000 1.0
C      1  0.5280080000000  0.4129480000000  0.5261890000000 1.0
C      1  0.4331370000000  0.5635920000000  0.5376330000000 1.0
C      1  0.4679490000000  0.5578090000000  0.4362390000000 1.0
C      1  0.5099850000000  0.5790320000000  0.5393670000000 1.0
C      1  0.4775360000000  0.5168330000000  0.5801540000000 1.0
C      1  0.4601060000000  0.4217690000000  0.4740770000000 1.0
C      1  0.4336680000000  0.4991100000000  0.5578010000000 1.0
C      1  0.5041150000000  0.5422560000000  0.3934110000000 1.0
C      1  0.4960450000000  0.5608660000000  0.4193580000000 1.0
C      1  0.5075390000000  0.5271780000000  0.5154630000000 1.0
C      1  0.4626550000000  0.4744610000000  0.5460000000000 1.0
C      1  0.5468460000000  0.4172020000000  0.4980530000000 1.0
C      1  0.5866560000000  0.5014720000000  0.5098260000000 1.0
C      1  0.5227150000000  0.4647020000000  0.5849970000000 1.0
C      1  0.5796520000000  0.5544340000000  0.5055080000000 1.0
C      1  0.4520190000000  0.4931680000000  0.4515890000000 1.0
C      1  0.4448520000000  0.5573730000000  0.5635460000000 1.0
C      1  0.4775400000000  0.5782470000000  0.5370960000000 1.0
C      1  0.5015070000000  0.5651320000000  0.5675110000000 1.0
C      1  0.5075670000000  0.4128440000000  0.5020730000000 1.0
C      1  0.4917290000000  0.4101210000000  0.4721020000000 1.0
C      1  0.4318190000000  0.5401080000000  0.5820620000000 1.0
C      1  0.4782900000000  0.4479140000000  0.4761030000000 1.0
C      1  0.5293390000000  0.4652780000000  0.3978900000000 1.0
C      1  0.4656980000000  0.4524620000000  0.5792370000000 1.0
C      1  0.5447470000000  0.4378440000000  0.4477810000000 1.0
C      1  0.5094320000000  0.4732700000000  0.4311320000000 1.0
C      1  0.5086030000000  0.4126600000000  0.5497840000000 1.0
C      1  0.5375010000000  0.4778730000000  0.4589220000000 1.0
C      1  0.5522010000000  0.4542410000000  0.5720350000000 1.0
C      1  0.5763530000000  0.5121700000000  0.4590960000000 1.0
C      1  0.5070170000000  0.4430100000000  0.4885700000000 1.0
C      1  0.5839450000000  0.4863290000000  0.5330930000000 1.0
C      1  0.5980240000000  0.5222230000000  0.4910690000000 1.0
C      1  0.5691040000000  0.5726520000000  0.5282170000000 1.0
C      1  0.4094950000000  0.4651030000000  0.4907230000000 1.0
C      1  0.5566210000000  0.5157640000000  0.5714900000000 1.0
C      1  0.5116110000000  0.5132100000000  0.4879830000000 1.0
C      1  0.5228650000000  0.4556010000000  0.5397890000000 1.0
C      1  0.5239870000000  0.4946980000000  0.5941960000000 1.0
C      1  0.5329340000000  0.4132950000000  0.4682190000000 1.0
C      1  0.4392160000000  0.4372740000000  0.4308230000000 1.0
C      1  0.5882940000000  0.4835950000000  0.4650540000000 1.0
C      1  0.5653490000000  0.4270630000000  0.5254130000000 1.0
C      1  0.4370070000000  0.5128700000000  0.5264730000000 1.0
C      1  0.5753510000000  0.4714310000000  0.5540010000000 1.0
C      1  0.5333550000000  0.5905070000000  0.4934480000000 1.0
C      1  0.4178170000000  0.5471560000000  0.4439850000000 1.0
C      1  0.5093670000000  0.5151010000000  0.5806020000000 1.0
C      1  0.4951030000000  0.5065340000000  0.5367750000000 1.0
C      1  0.5249130000000  0.4437780000000  0.4241480000000 1.0
C      1  0.3971720000000  0.5145350000000  0.5245570000000 1.0
C      1  0.5903350000000  0.4373940000000  0.5110230000000 1.0
C      1  0.5439300000000  0.4311500000000  0.5506020000000 1.0
C      1  0.4466600000000  0.5149230000000  0.4704440000000 1.0
C      1  0.4375220000000  0.5552760000000  0.4309340000000 1.0
C      1  0.5241690000000  0.5556550000000  0.5215670000000 1.0
C      1  0.4806520000000  0.4735240000000  0.4968080000000 1.0
C      1  0.5076170000000  0.4241770000000  0.4474990000000 1.0
C      1  0.4746450000000  0.5470080000000  0.5647430000000 1.0
C      1  0.5701910000000  0.5274650000000  0.5425840000000 1.0
C      1  0.4242270000000  0.5513770000000  0.5009400000000 1.0
C      1  0.4484860000000  0.5489680000000  0.4694670000000 1.0
C      1  0.4486310000000  0.4721040000000  0.4876680000000 1.0
C      1  0.4314400000000  0.4651190000000  0.5535430000000 1.0
C      1  0.5349040000000  0.5457780000000  0.4935340000000 1.0
C      1  0.5399310000000  0.4892710000000  0.5580930000000 1.0
C      1  0.4803880000000  0.5546370000000  0.5051370000000 1.0
C      1  0.4742880000000  0.4090300000000  0.5023050000000 1.0
C      1  0.5331220000000  0.4957370000000  0.4350290000000 1.0
C      1  0.5575040000000  0.5110690000000  0.4341650000000 1.0
C      1  0.5519910000000  0.4593940000000  0.5238460000000 1.0
C      1  0.5085190000000  0.5899340000000  0.5081500000000 1.0
C      1  0.5460830000000  0.5469160000000  0.5678650000000 1.0
C      1  0.5621380000000  0.5051070000000  0.4883600000000 1.0
C      1  0.4093750000000  0.4867880000000  0.5385630000000 1.0
C      1  0.4700610000000  0.4860710000000  0.5763700000000 1.0
C      1  0.5093620000000  0.4827780000000  0.5520750000000 1.0
C      1  0.4003440000000  0.4910670000000  0.4999950000000 1.0
C      1  0.4512460000000  0.4373780000000  0.5552690000000 1.0
C      1  0.5026110000000  0.5699930000000  0.4514500000000 1.0
C      1  0.4769580000000  0.5855710000000  0.4978350000000 1.0
C      1  0.4341960000000  0.4491440000000  0.5084080000000 1.0
C      1  0.4543080000000  0.5400430000000  0.5003010000000 1.0
C      1  0.5347180000000  0.4929130000000  0.4856720000000 1.0
C      1  0.4348000000000  0.4808860000000  0.5171440000000 1.0
C      1  0.5478060000000  0.5604470000000  0.5426400000000 1.0
C      1  0.4296210000000  0.4777170000000  0.4363900000000 1.0
C      1  0.5321970000000  0.5793970000000  0.4654630000000 1.0
C      1  0.4096560000000  0.5418850000000  0.5260130000000 1.0
C      1  0.5081980000000  0.5121190000000  0.4224150000000 1.0
C      1  0.4747640000000  0.5113530000000  0.4240430000000 1.0
C      1  0.5382280000000  0.4894160000000  0.5251970000000 1.0
C      1  0.4881060000000  0.5459270000000  0.5353240000000 1.0
C      1  0.4248330000000  0.4668650000000  0.4637610000000 1.0
C      1  0.4399160000000  0.4236440000000  0.4517600000000 1.0
C      1  0.5181960000000  0.5222910000000  0.5534700000000 1.0
C      1  0.5226550000000  0.5549230000000  0.5820250000000 1.0
C      1  0.4841380000000  0.4810040000000  0.4152680000000 1.0
C      1  0.5804960000000  0.5746240000000  0.4790230000000 1.0
C      1  0.5248490000000  0.5466820000000  0.4633450000000 1.0
C      1  0.5125140000000  0.4780780000000  0.5069400000000 1.0
C      1  0.4648110000000  0.5097620000000  0.4982840000000 1.0
C      1  0.4660150000000  0.4532610000000  0.5217090000000 1.0
C      1  0.4553550000000  0.4721160000000  0.6023650000000 1.0
C      1  0.5606010000000  0.5890520000000  0.5023600000000 1.0
C      1  0.5860800000000  0.4558010000000  0.4840310000000 1.0
C      1  0.5658220000000  0.4602590000000  0.4570850000000 1.0
C      1  0.4522390000000  0.5798120000000  0.5211910000000 1.0
C      1  0.4637360000000  0.4201900000000  0.5285850000000 1.0
C      1  0.5606320000000  0.5341700000000  0.4986500000000 1.0
C      1  0.5188850000000  0.5401180000000  0.4304760000000 1.0
C      1  0.5562990000000  0.4852360000000  0.5867480000000 1.0
C      1  0.4682700000000  0.4995470000000  0.5279750000000 1.0
C      1  0.4603540000000  0.4567560000000  0.4203730000000 1.0
C      1  0.4237580000000  0.5122920000000  0.4950230000000 1.0
C      1  0.5477530000000  0.5505010000000  0.4308580000000 1.0
C      1  0.4880700000000  0.4486170000000  0.4378200000000 1.0
C      1  0.4783800000000  0.5300490000000  0.4511340000000 1.0
END
