TITL C-2778426-5645-210 0.00698772532211743 125000 -1087.46658518773 0 0 184 (C1) n - 1
REM
REM in /home/nfs/bkarasulu/CARBON/AIRSS/Generating-Clusters/REBO/Only-C1/SD-CG/HFTN-CG
REM
REM
REM
REM
REM
REM ./C.cell (11c1c37f851c82e70ff6c80c92926a4b)
REM
REM compiler GCC version 9.2.1 20190827 (Red Hat 9.2.1-1)
REM options -cpp -mtune=generic -march=x86-64 -g -O0 -fpre-include=/usr/include/finclude/math-vector-fortran.h
REM seed -168628165 -304975296 -103902158 -1742951344 -141467263 1398321205 -193605888 -46375054 1775767750 57392030 -848692088 1022270283 149850896 -1305139824 2113410781 333097798 1961858443 -2089380529 -665541959 602997536 -48627679 -1685942157 -1342111571 -401931899 1273781738 1897727075 512559167 -1699974918 -726070321 -143979860 -27159669 441860859 -1074627026
REM
CELL 1.54180   50.00000   50.00000   50.00000   90.00000   90.00000   90.00000
LATT -1
SFAC C  
C      1  0.4842070000000  0.4415930000000  0.5128640000000 1.0
C      1  0.6005670000000  0.5327660000000  0.5330650000000 1.0
C      1  0.5343030000000  0.5811570000000  0.5124710000000 1.0
C      1  0.5706930000000  0.4715620000000  0.4443790000000 1.0
C      1  0.5691890000000  0.4612530000000  0.5080810000000 1.0
C      1  0.4606040000000  0.3885780000000  0.5164340000000 1.0
C      1  0.4682300000000  0.5396260000000  0.4408890000000 1.0
C      1  0.4180790000000  0.5204640000000  0.4197160000000 1.0
C      1  0.4954160000000  0.5922540000000  0.5503660000000 1.0
C      1  0.4929520000000  0.4822150000000  0.5454550000000 1.0
C      1  0.4936170000000  0.5822610000000  0.5208160000000 1.0
C      1  0.4932930000000  0.4905380000000  0.4687840000000 1.0
C      1  0.4407380000000  0.4849020000000  0.4780820000000 1.0
C      1  0.4107430000000  0.4714940000000  0.4850150000000 1.0
C      1  0.6010960000000  0.5293880000000  0.4780470000000 1.0
C      1  0.4531310000000  0.4720630000000  0.5057980000000 1.0
C      1  0.4507590000000  0.4916620000000  0.5895520000000 1.0
C      1  0.4736430000000  0.4683770000000  0.4325340000000 1.0
C      1  0.4484480000000  0.3970770000000  0.5361540000000 1.0
C      1  0.4385110000000  0.4468740000000  0.5613620000000 1.0
C      1  0.4329640000000  0.5424870000000  0.4588610000000 1.0
C      1  0.5114980000000  0.4002020000000  0.4987390000000 1.0
C      1  0.5431580000000  0.5172240000000  0.4407830000000 1.0
C      1  0.5043910000000  0.4631670000000  0.5231380000000 1.0
C      1  0.4726260000000  0.4639560000000  0.3931720000000 1.0
C      1  0.4774710000000  0.4300520000000  0.6016030000000 1.0
C      1  0.5690820000000  0.4423510000000  0.5764160000000 1.0
C      1  0.6038080000000  0.5314040000000  0.5066550000000 1.0
C      1  0.4759170000000  0.6031160000000  0.4694380000000 1.0
C      1  0.4321690000000  0.4215760000000  0.4881460000000 1.0
C      1  0.4523550000000  0.4029740000000  0.4755540000000 1.0
C      1  0.5425670000000  0.4884980000000  0.4532580000000 1.0
C      1  0.5156060000000  0.4381350000000  0.5399640000000 1.0
C      1  0.4079750000000  0.4758760000000  0.4258150000000 1.0
C      1  0.4309570000000  0.5188290000000  0.5289470000000 1.0
C      1  0.4716000000000  0.3967520000000  0.4274770000000 1.0
C      1  0.5032820000000  0.4359180000000  0.4656790000000 1.0
C      1  0.4980310000000  0.5425620000000  0.5955090000000 1.0
C      1  0.3941610000000  0.5062790000000  0.4979430000000 1.0
C      1  0.5430100000000  0.4169990000000  0.4472640000000 1.0
C      1  0.5460820000000  0.5453030000000  0.4206730000000 1.0
C      1  0.5819190000000  0.5226040000000  0.5597190000000 1.0
C      1  0.5909520000000  0.4588830000000  0.4661940000000 1.0
C      1  0.5244180000000  0.4618440000000  0.4128840000000 1.0
C      1  0.5556810000000  0.5036980000000  0.6011440000000 1.0
C      1  0.5445220000000  0.4294460000000  0.5813320000000 1.0
C      1  0.4711310000000  0.5877550000000  0.5663970000000 1.0
C      1  0.5031320000000  0.3914950000000  0.4683110000000 1.0
C      1  0.4486940000000  0.5190760000000  0.5819290000000 1.0
C      1  0.3905730000000  0.4897300000000  0.4437060000000 1.0
C      1  0.6052850000000  0.5040840000000  0.4649330000000 1.0
C      1  0.4552450000000  0.4078680000000  0.4476330000000 1.0
C      1  0.6217720000000  0.4958510000000  0.5099140000000 1.0
C      1  0.5765760000000  0.5603340000000  0.5109500000000 1.0
C      1  0.4826700000000  0.5636560000000  0.4755030000000 1.0
C      1  0.5597560000000  0.5347460000000  0.5137020000000 1.0
C      1  0.4295240000000  0.4665470000000  0.5375740000000 1.0
C      1  0.5536180000000  0.5142810000000  0.5471340000000 1.0
C      1  0.4380080000000  0.5406190000000  0.4278090000000 1.0
C      1  0.4588630000000  0.4582420000000  0.4660560000000 1.0
C      1  0.4996670000000  0.4447540000000  0.5693720000000 1.0
C      1  0.5311840000000  0.5195820000000  0.4027740000000 1.0
C      1  0.4676640000000  0.5157550000000  0.4000180000000 1.0
C      1  0.4729920000000  0.5678500000000  0.4027270000000 1.0
C      1  0.4247560000000  0.5224030000000  0.5623120000000 1.0
C      1  0.5696190000000  0.5843660000000  0.4613880000000 1.0
C      1  0.4795640000000  0.4187250000000  0.5737010000000 1.0
C      1  0.4491620000000  0.4529380000000  0.4143900000000 1.0
C      1  0.5694490000000  0.5022890000000  0.5145240000000 1.0
C      1  0.4699300000000  0.5095560000000  0.6469210000000 1.0
C      1  0.4812380000000  0.4704520000000  0.5731840000000 1.0
C      1  0.5224620000000  0.4455060000000  0.5924860000000 1.0
C      1  0.5220100000000  0.4495210000000  0.4873710000000 1.0
C      1  0.4295760000000  0.5745350000000  0.4669730000000 1.0
C      1  0.4517150000000  0.4365480000000  0.4421140000000 1.0
C      1  0.4887600000000  0.5332460000000  0.4742050000000 1.0
C      1  0.4149310000000  0.4926320000000  0.5541060000000 1.0
C      1  0.5857790000000  0.4314090000000  0.5122300000000 1.0
C      1  0.4474980000000  0.5709990000000  0.5648200000000 1.0
C      1  0.4597600000000  0.5711990000000  0.4514430000000 1.0
C      1  0.5182310000000  0.5817570000000  0.5627140000000 1.0
C      1  0.5366460000000  0.4097720000000  0.5625460000000 1.0
C      1  0.5192900000000  0.4851160000000  0.5052650000000 1.0
C      1  0.5166360000000  0.4878210000000  0.5679930000000 1.0
C      1  0.4699060000000  0.5146920000000  0.5484320000000 1.0
C      1  0.5239590000000  0.5588110000000  0.5005460000000 1.0
C      1  0.5979630000000  0.4872720000000  0.5173030000000 1.0
C      1  0.5755980000000  0.5789870000000  0.4900900000000 1.0
C      1  0.5460120000000  0.5498680000000  0.5843340000000 1.0
C      1  0.5500480000000  0.5962700000000  0.4936900000000 1.0
C      1  0.5895020000000  0.4991490000000  0.4415110000000 1.0
C      1  0.4787790000000  0.3935240000000  0.4912150000000 1.0
C      1  0.4938440000000  0.4123810000000  0.4224250000000 1.0
C      1  0.4839760000000  0.5049310000000  0.6236520000000 1.0
C      1  0.5325670000000  0.5615770000000  0.4551730000000 1.0
C      1  0.5733700000000  0.5159620000000  0.4253870000000 1.0
C      1  0.4043270000000  0.5433740000000  0.5698230000000 1.0
C      1  0.5166960000000  0.5612000000000  0.5833980000000 1.0
C      1  0.5919020000000  0.5544260000000  0.5579110000000 1.0
C      1  0.5615250000000  0.4784950000000  0.5365260000000 1.0
C      1  0.5705950000000  0.5624120000000  0.4359260000000 1.0
C      1  0.4840380000000  0.5137020000000  0.4483940000000 1.0
C      1  0.4938760000000  0.5840440000000  0.4159910000000 1.0
C      1  0.5123030000000  0.4114570000000  0.4464560000000 1.0
C      1  0.5341110000000  0.5394310000000  0.5339790000000 1.0
C      1  0.3970800000000  0.5202440000000  0.4431700000000 1.0
C      1  0.5454850000000  0.4787980000000  0.5629920000000 1.0
C      1  0.4989960000000  0.5159650000000  0.5649760000000 1.0
C      1  0.5846670000000  0.5474260000000  0.4630620000000 1.0
C      1  0.4770280000000  0.4896460000000  0.4945640000000 1.0
C      1  0.5834120000000  0.4361430000000  0.4804360000000 1.0
C      1  0.4833920000000  0.5314130000000  0.5235040000000 1.0
C      1  0.4835430000000  0.5935660000000  0.4409450000000 1.0
C      1  0.5795920000000  0.4586150000000  0.5580380000000 1.0
C      1  0.4249290000000  0.4938510000000  0.4107070000000 1.0
C      1  0.5553820000000  0.5457800000000  0.4688480000000 1.0
C      1  0.5756850000000  0.5740630000000  0.5374540000000 1.0
C      1  0.4544580000000  0.5445640000000  0.5477590000000 1.0
C      1  0.5629300000000  0.5690160000000  0.5681510000000 1.0
C      1  0.5567320000000  0.4015910000000  0.5443960000000 1.0
C      1  0.4075860000000  0.4950780000000  0.5207150000000 1.0
C      1  0.5049170000000  0.5025060000000  0.3993940000000 1.0
C      1  0.5391210000000  0.6000060000000  0.4618050000000 1.0
C      1  0.4764680000000  0.4829150000000  0.6043940000000 1.0
C      1  0.4073880000000  0.4323390000000  0.5087690000000 1.0
C      1  0.4441880000000  0.5481580000000  0.5176430000000 1.0
C      1  0.5051230000000  0.4088150000000  0.5534900000000 1.0
C      1  0.4484090000000  0.5999780000000  0.4767960000000 1.0
C      1  0.5549370000000  0.5004700000000  0.4066160000000 1.0
C      1  0.4413690000000  0.5167100000000  0.4783190000000 1.0
C      1  0.4198800000000  0.5695430000000  0.5072420000000 1.0
C      1  0.5472350000000  0.5212160000000  0.4873780000000 1.0
C      1  0.5175060000000  0.4729920000000  0.4628070000000 1.0
C      1  0.3862990000000  0.4799640000000  0.4688700000000 1.0
C      1  0.4799520000000  0.4214690000000  0.5340120000000 1.0
C      1  0.5044090000000  0.4730950000000  0.3954910000000 1.0
C      1  0.4504910000000  0.4919900000000  0.5327840000000 1.0
C      1  0.4877780000000  0.4425760000000  0.4151990000000 1.0
C      1  0.4222690000000  0.4513470000000  0.4352990000000 1.0
C      1  0.5221060000000  0.4296990000000  0.5103700000000 1.0
C      1  0.5661300000000  0.4086790000000  0.5199780000000 1.0
C      1  0.4488100000000  0.5695820000000  0.4182230000000 1.0
C      1  0.5950220000000  0.4579070000000  0.5301840000000 1.0
C      1  0.5156020000000  0.4775850000000  0.5982140000000 1.0
C      1  0.4090300000000  0.4612430000000  0.5146800000000 1.0
C      1  0.5072980000000  0.5387430000000  0.4155920000000 1.0
C      1  0.4331620000000  0.4746210000000  0.5760750000000 1.0
C      1  0.3995990000000  0.5473930000000  0.4636830000000 1.0
C      1  0.5463490000000  0.4903300000000  0.4928470000000 1.0
C      1  0.5097190000000  0.4521430000000  0.4385410000000 1.0
C      1  0.4937740000000  0.5013560000000  0.5193590000000 1.0
C      1  0.5190110000000  0.5342160000000  0.4807140000000 1.0
C      1  0.5608530000000  0.4802750000000  0.5859290000000 1.0
C      1  0.4699400000000  0.5669520000000  0.5047780000000 1.0
C      1  0.5658250000000  0.5263000000000  0.5882110000000 1.0
C      1  0.5502740000000  0.4736530000000  0.4171120000000 1.0
C      1  0.4819700000000  0.4963080000000  0.4238320000000 1.0
C      1  0.4704410000000  0.5365080000000  0.5834990000000 1.0
C      1  0.5173090000000  0.5353830000000  0.4463920000000 1.0
C      1  0.5443460000000  0.4093630000000  0.4986560000000 1.0
C      1  0.5283750000000  0.5035610000000  0.6095190000000 1.0
C      1  0.6097410000000  0.4781360000000  0.4761380000000 1.0
C      1  0.5538840000000  0.4269580000000  0.4741980000000 1.0
C      1  0.4536510000000  0.4221810000000  0.5556900000000 1.0
C      1  0.4929070000000  0.4538930000000  0.6076110000000 1.0
C      1  0.5439200000000  0.5834400000000  0.4322470000000 1.0
C      1  0.5518280000000  0.4603210000000  0.4825010000000 1.0
C      1  0.4513070000000  0.4898530000000  0.3991380000000 1.0
C      1  0.4693280000000  0.5216150000000  0.4951230000000 1.0
C      1  0.5115010000000  0.5812990000000  0.4700040000000 1.0
C      1  0.5433150000000  0.5821330000000  0.5435600000000 1.0
C      1  0.5208020000000  0.5684510000000  0.4166670000000 1.0
C      1  0.4813460000000  0.5401370000000  0.4005310000000 1.0
C      1  0.5038090000000  0.5527210000000  0.5342540000000 1.0
C      1  0.4007230000000  0.5713520000000  0.4841820000000 1.0
C      1  0.4950580000000  0.5973110000000  0.4927420000000 1.0
C      1  0.5060690000000  0.5211650000000  0.6141950000000 1.0
C      1  0.4837950000000  0.5553520000000  0.5598500000000 1.0
C      1  0.4256230000000  0.4490400000000  0.4691500000000 1.0
C      1  0.4449760000000  0.4452260000000  0.5075460000000 1.0
C      1  0.4446390000000  0.5850320000000  0.5024310000000 1.0
C      1  0.4794230000000  0.4441600000000  0.4840030000000 1.0
C      1  0.5286470000000  0.5281470000000  0.5646040000000 1.0
C      1  0.4074430000000  0.5172000000000  0.4757610000000 1.0
END
