TITL C-2778426-5645-1164 0.159519716067662 125000 -523.021418131924 0 0 89 (C1) n - 1
REM
REM in /home/nfs/bkarasulu/CARBON/AIRSS/Generating-Clusters/REBO/Only-C1/SD-CG/HFTN-CG
REM
REM
REM
REM
REM
REM ./C.cell (11c1c37f851c82e70ff6c80c92926a4b)
REM
REM compiler GCC version 9.2.1 20190827 (Red Hat 9.2.1-1)
REM options -cpp -mtune=generic -march=x86-64 -g -O0 -fpre-include=/usr/include/finclude/math-vector-fortran.h
REM seed 1454836424 -1852645151 -335730694 -1580439773 -1746090182 -1462119495 -723476092 -1608924190 1523577655 1471181384 76753415 -1391708879 1243057461 377038714 -1466314480 1275286536 1894337034 -1832838400 -613218162 2098304648 1541815153 828429852 1382705875 647751449 207259859 -1067329688 1595555349 1527135007 791535703 -1894793279 1572497931 -284515996 1117370848
REM
CELL 1.54180   50.00000   50.00000   50.00000   90.00000   90.00000   90.00000
LATT -1
SFAC C  
C      1  0.4274110000000  0.5474410000000  0.5322650000000 1.0
C      1  0.4552620000000  0.4482060000000  0.4549150000000 1.0
C      1  0.4736140000000  0.5655940000000  0.5898610000000 1.0
C      1  0.4595020000000  0.5704150000000  0.4972320000000 1.0
C      1  0.4482910000000  0.5145340000000  0.5038430000000 1.0
C      1  0.4959700000000  0.5398160000000  0.4461960000000 1.0
C      1  0.5606640000000  0.5449680000000  0.4689700000000 1.0
C      1  0.4851240000000  0.4733690000000  0.4324870000000 1.0
C      1  0.4305780000000  0.5000150000000  0.4542620000000 1.0
C      1  0.4481060000000  0.4878750000000  0.5680910000000 1.0
C      1  0.5123370000000  0.4203440000000  0.4935410000000 1.0
C      1  0.5588510000000  0.4730220000000  0.5477950000000 1.0
C      1  0.4391180000000  0.4334740000000  0.5035830000000 1.0
C      1  0.5258450000000  0.5339130000000  0.5059600000000 1.0
C      1  0.4519850000000  0.5151510000000  0.4331520000000 1.0
C      1  0.5758310000000  0.5495010000000  0.5151240000000 1.0
C      1  0.4657970000000  0.5794760000000  0.4672890000000 1.0
C      1  0.5245330000000  0.5599150000000  0.5252770000000 1.0
C      1  0.5075680000000  0.4164740000000  0.5540210000000 1.0
C      1  0.5174310000000  0.4968070000000  0.4318450000000 1.0
C      1  0.5136280000000  0.4618710000000  0.5083330000000 1.0
C      1  0.5161920000000  0.5572830000000  0.4675140000000 1.0
C      1  0.4265730000000  0.4516090000000  0.4825290000000 1.0
C      1  0.4995010000000  0.5388530000000  0.5356020000000 1.0
C      1  0.5819110000000  0.5633310000000  0.4287890000000 1.0
C      1  0.5763760000000  0.4949240000000  0.4570990000000 1.0
C      1  0.4340070000000  0.4783130000000  0.4950350000000 1.0
C      1  0.5081180000000  0.5821000000000  0.5084360000000 1.0
C      1  0.5284450000000  0.5748820000000  0.4868830000000 1.0
C      1  0.4905830000000  0.5057370000000  0.5392760000000 1.0
C      1  0.5498880000000  0.5287030000000  0.4879080000000 1.0
C      1  0.5823770000000  0.5154160000000  0.4394170000000 1.0
C      1  0.5590690000000  0.4970750000000  0.5636580000000 1.0
C      1  0.4785470000000  0.5515690000000  0.5670830000000 1.0
C      1  0.4341230000000  0.4749260000000  0.5236990000000 1.0
C      1  0.4735850000000  0.4359170000000  0.4732840000000 1.0
C      1  0.5313460000000  0.4362230000000  0.5155370000000 1.0
C      1  0.4812080000000  0.5796410000000  0.5164860000000 1.0
C      1  0.4587430000000  0.5105780000000  0.5811450000000 1.0
C      1  0.4693460000000  0.5425760000000  0.4821130000000 1.0
C      1  0.5570910000000  0.4387900000000  0.4980540000000 1.0
C      1  0.4216890000000  0.5138450000000  0.4826680000000 1.0
C      1  0.4987110000000  0.5370350000000  0.4859370000000 1.0
C      1  0.4593730000000  0.4920350000000  0.4804230000000 1.0
C      1  0.4834110000000  0.4215000000000  0.5404930000000 1.0
C      1  0.4801730000000  0.5654080000000  0.5409340000000 1.0
C      1  0.5198460000000  0.4276930000000  0.4674960000000 1.0
C      1  0.4923250000000  0.4756810000000  0.5805740000000 1.0
C      1  0.4345150000000  0.4947310000000  0.5436030000000 1.0
C      1  0.5915020000000  0.4988460000000  0.5252340000000 1.0
C      1  0.4335390000000  0.5664550000000  0.5135230000000 1.0
C      1  0.4975050000000  0.4725540000000  0.5353080000000 1.0
C      1  0.5464900000000  0.4404970000000  0.4706550000000 1.0
C      1  0.4831370000000  0.4805990000000  0.4656250000000 1.0
C      1  0.5003020000000  0.5084180000000  0.4550080000000 1.0
C      1  0.5542800000000  0.5700440000000  0.4993280000000 1.0
C      1  0.5067310000000  0.5093320000000  0.4093010000000 1.0
C      1  0.4560590000000  0.5216490000000  0.4654010000000 1.0
C      1  0.4333730000000  0.4692420000000  0.4561150000000 1.0
C      1  0.5270300000000  0.5220970000000  0.5379660000000 1.0
C      1  0.5545070000000  0.5671340000000  0.5321660000000 1.0
C      1  0.4450620000000  0.4491070000000  0.5276720000000 1.0
C      1  0.5790050000000  0.4731020000000  0.5282480000000 1.0
C      1  0.4806730000000  0.5259910000000  0.4200850000000 1.0
C      1  0.4682730000000  0.4674940000000  0.5680070000000 1.0
C      1  0.5882960000000  0.5251900000000  0.5194120000000 1.0
C      1  0.5791690000000  0.4771310000000  0.4825820000000 1.0
C      1  0.5257160000000  0.4711900000000  0.4385740000000 1.0
C      1  0.5766600000000  0.4586080000000  0.5036550000000 1.0
C      1  0.4724620000000  0.4502490000000  0.5421830000000 1.0
C      1  0.3976890000000  0.5229480000000  0.4884920000000 1.0
C      1  0.4775590000000  0.4083940000000  0.5158850000000 1.0
C      1  0.5158570000000  0.4846390000000  0.5685040000000 1.0
C      1  0.4811760000000  0.5094040000000  0.5085880000000 1.0
C      1  0.5549360000000  0.4995590000000  0.4831990000000 1.0
C      1  0.4627660000000  0.4198470000000  0.4944020000000 1.0
C      1  0.5059370000000  0.5050060000000  0.4870740000000 1.0
C      1  0.4966280000000  0.4564970000000  0.4825260000000 1.0
C      1  0.5326290000000  0.5085490000000  0.5620870000000 1.0
C      1  0.4354230000000  0.5205530000000  0.5309530000000 1.0
C      1  0.5290970000000  0.4308820000000  0.5459830000000 1.0
C      1  0.5282520000000  0.4624750000000  0.5473660000000 1.0
C      1  0.5753280000000  0.5424900000000  0.4448470000000 1.0
C      1  0.5276910000000  0.4841640000000  0.4895650000000 1.0
C      1  0.4786590000000  0.5234240000000  0.5658250000000 1.0
C      1  0.5410200000000  0.4680680000000  0.4633350000000 1.0
C      1  0.4715820000000  0.4924990000000  0.4182030000000 1.0
C      1  0.4808940000000  0.5674440000000  0.4517990000000 1.0
C      1  0.5025890000000  0.4496750000000  0.4496010000000 1.0
END
