TITL C-2778429-3646-366 -0.00416190845115752 125000 -658.384151764487 0 0 114 (C1) n - 1
REM
REM in /home/nfs/bkarasulu/CARBON/AIRSS/Generating-Clusters/REBO/Only-C1/SD-CG/HFTN-CG
REM
REM
REM
REM
REM
REM ./C.cell (11c1c37f851c82e70ff6c80c92926a4b)
REM
REM compiler GCC version 9.2.1 20190827 (Red Hat 9.2.1-1)
REM options -cpp -mtune=generic -march=x86-64 -g -O0 -fpre-include=/usr/include/finclude/math-vector-fortran.h
REM seed -1635301811 318635133 1603913769 -748954898 -1872125692 412646124 1082789278 -206913889 1407870314 121996923 -1891671140 -1135615972 -495765778 851656619 20392207 984688813 1901059107 1731078120 -549490403 1484647733 -1878530533 1717338307 -1336719650 2084265311 257091467 882494572 1282144710 1049304395 221208168 169005269 1606865881 982883011 -1081622036
REM
CELL 1.54180   50.00000   50.00000   50.00000   90.00000   90.00000   90.00000
LATT -1
SFAC C  
C      1  0.5766770000000  0.5105490000000  0.4529980000000 1.0
C      1  0.5023850000000  0.4900570000000  0.5500810000000 1.0
C      1  0.5348410000000  0.4368570000000  0.5402200000000 1.0
C      1  0.4859120000000  0.4305710000000  0.5360170000000 1.0
C      1  0.5037070000000  0.5860410000000  0.4857320000000 1.0
C      1  0.4802300000000  0.5407990000000  0.5016740000000 1.0
C      1  0.4983130000000  0.4528850000000  0.4650910000000 1.0
C      1  0.4931020000000  0.5190270000000  0.4805640000000 1.0
C      1  0.5101340000000  0.5480720000000  0.5639450000000 1.0
C      1  0.5115340000000  0.4109830000000  0.4921820000000 1.0
C      1  0.5241860000000  0.4789280000000  0.4297430000000 1.0
C      1  0.5083680000000  0.4798300000000  0.5080300000000 1.0
C      1  0.4546950000000  0.4792140000000  0.5662110000000 1.0
C      1  0.4817530000000  0.4705970000000  0.4409010000000 1.0
C      1  0.4554910000000  0.5030250000000  0.4137920000000 1.0
C      1  0.4348820000000  0.5452680000000  0.4312700000000 1.0
C      1  0.4686590000000  0.5119540000000  0.5312490000000 1.0
C      1  0.5010380000000  0.4029180000000  0.5384530000000 1.0
C      1  0.5077660000000  0.4547490000000  0.4152220000000 1.0
C      1  0.5127630000000  0.5346970000000  0.4633760000000 1.0
C      1  0.5425860000000  0.5261350000000  0.4654270000000 1.0
C      1  0.4182350000000  0.4989850000000  0.4442940000000 1.0
C      1  0.4697640000000  0.5785730000000  0.4392920000000 1.0
C      1  0.5700830000000  0.5196350000000  0.5341110000000 1.0
C      1  0.4418450000000  0.5165250000000  0.4806440000000 1.0
C      1  0.4900420000000  0.4794010000000  0.4090670000000 1.0
C      1  0.5550790000000  0.4260330000000  0.4675190000000 1.0
C      1  0.5090980000000  0.4241600000000  0.4545730000000 1.0
C      1  0.4450400000000  0.4501380000000  0.4634780000000 1.0
C      1  0.4376360000000  0.4436070000000  0.5192390000000 1.0
C      1  0.4771580000000  0.5956710000000  0.4840790000000 1.0
C      1  0.4557860000000  0.5818940000000  0.4966310000000 1.0
C      1  0.5028600000000  0.4570020000000  0.5280290000000 1.0
C      1  0.4656940000000  0.4261870000000  0.5130760000000 1.0
C      1  0.5594360000000  0.4342510000000  0.5610190000000 1.0
C      1  0.4832970000000  0.4215470000000  0.4848550000000 1.0
C      1  0.5724660000000  0.4498520000000  0.5379300000000 1.0
C      1  0.5522980000000  0.4858520000000  0.5681880000000 1.0
C      1  0.4496130000000  0.4477020000000  0.5718330000000 1.0
C      1  0.4602230000000  0.5722190000000  0.5216880000000 1.0
C      1  0.4331590000000  0.4730230000000  0.4461170000000 1.0
C      1  0.5308600000000  0.5247490000000  0.5389460000000 1.0
C      1  0.5793980000000  0.5254450000000  0.5036230000000 1.0
C      1  0.4159290000000  0.5197840000000  0.4652720000000 1.0
C      1  0.5376820000000  0.5211690000000  0.5934830000000 1.0
C      1  0.4847080000000  0.4657850000000  0.5775070000000 1.0
C      1  0.5114940000000  0.5709330000000  0.5417110000000 1.0
C      1  0.4424180000000  0.5201070000000  0.5400810000000 1.0
C      1  0.5028690000000  0.4847140000000  0.5896820000000 1.0
C      1  0.4331760000000  0.5001640000000  0.5614330000000 1.0
C      1  0.5791450000000  0.4947290000000  0.5041760000000 1.0
C      1  0.4841240000000  0.5076870000000  0.4048410000000 1.0
C      1  0.5217930000000  0.5993290000000  0.5029000000000 1.0
C      1  0.4179910000000  0.4525200000000  0.4927830000000 1.0
C      1  0.5199300000000  0.5108950000000  0.5112180000000 1.0
C      1  0.4736380000000  0.4814470000000  0.5396170000000 1.0
C      1  0.4824690000000  0.4994340000000  0.5050730000000 1.0
C      1  0.4779050000000  0.5529440000000  0.5736720000000 1.0
C      1  0.5807440000000  0.4959740000000  0.5561460000000 1.0
C      1  0.4798840000000  0.5584250000000  0.5404680000000 1.0
C      1  0.4929510000000  0.4338480000000  0.4303350000000 1.0
C      1  0.5169230000000  0.4782830000000  0.4578150000000 1.0
C      1  0.5367340000000  0.4750810000000  0.4902100000000 1.0
C      1  0.4590200000000  0.4916620000000  0.4846330000000 1.0
C      1  0.5242960000000  0.5898450000000  0.5284730000000 1.0
C      1  0.5516780000000  0.4700460000000  0.5193510000000 1.0
C      1  0.5283080000000  0.5685570000000  0.4365830000000 1.0
C      1  0.5057800000000  0.5231550000000  0.4157050000000 1.0
C      1  0.4715310000000  0.4537030000000  0.4848370000000 1.0
C      1  0.5614450000000  0.4548950000000  0.4832140000000 1.0
C      1  0.5321960000000  0.4931520000000  0.5872700000000 1.0
C      1  0.5888770000000  0.4789090000000  0.5303950000000 1.0
C      1  0.5610490000000  0.5164890000000  0.4300390000000 1.0
C      1  0.4963240000000  0.5703030000000  0.4338950000000 1.0
C      1  0.4711060000000  0.5355240000000  0.5937100000000 1.0
C      1  0.5572920000000  0.4977910000000  0.4782270000000 1.0
C      1  0.5736200000000  0.5339700000000  0.4774580000000 1.0
C      1  0.4134560000000  0.5434120000000  0.4860060000000 1.0
C      1  0.5198350000000  0.4637640000000  0.5555330000000 1.0
C      1  0.4628250000000  0.4661020000000  0.5150720000000 1.0
C      1  0.5395750000000  0.4493600000000  0.5775730000000 1.0
C      1  0.4864620000000  0.4908590000000  0.4663650000000 1.0
C      1  0.4173970000000  0.4990460000000  0.5170800000000 1.0
C      1  0.5464490000000  0.4945890000000  0.5366860000000 1.0
C      1  0.5553090000000  0.5456900000000  0.5467890000000 1.0
C      1  0.5382680000000  0.5411090000000  0.5745770000000 1.0
C      1  0.5811400000000  0.4554400000000  0.5065020000000 1.0
C      1  0.5315330000000  0.4125760000000  0.4683030000000 1.0
C      1  0.4412930000000  0.4279200000000  0.4890070000000 1.0
C      1  0.4248070000000  0.5300100000000  0.5141630000000 1.0
C      1  0.5746280000000  0.4460480000000  0.4530620000000 1.0
C      1  0.5058710000000  0.5563060000000  0.4866680000000 1.0
C      1  0.4998480000000  0.5337700000000  0.5280820000000 1.0
C      1  0.4113750000000  0.4924870000000  0.5431720000000 1.0
C      1  0.4328550000000  0.5177820000000  0.4243730000000 1.0
C      1  0.4868940000000  0.5116690000000  0.5920340000000 1.0
C      1  0.5528060000000  0.5899800000000  0.4785430000000 1.0
C      1  0.5314480000000  0.5070560000000  0.4207600000000 1.0
C      1  0.4766060000000  0.4378410000000  0.5643140000000 1.0
C      1  0.5570130000000  0.5804060000000  0.5037100000000 1.0
C      1  0.4998790000000  0.5406670000000  0.4368110000000 1.0
C      1  0.4372120000000  0.5658080000000  0.4769920000000 1.0
C      1  0.4515110000000  0.5421550000000  0.4968070000000 1.0
C      1  0.5417600000000  0.5862220000000  0.4540780000000 1.0
C      1  0.5017930000000  0.5155790000000  0.5646060000000 1.0
C      1  0.5093400000000  0.3914240000000  0.5174480000000 1.0
C      1  0.4547980000000  0.4773840000000  0.4275850000000 1.0
C      1  0.4695370000000  0.4281770000000  0.4543290000000 1.0
C      1  0.5269310000000  0.4271900000000  0.5167800000000 1.0
C      1  0.5396570000000  0.5407760000000  0.4344600000000 1.0
C      1  0.5294580000000  0.5417310000000  0.5027640000000 1.0
C      1  0.5478740000000  0.5577430000000  0.5175080000000 1.0
C      1  0.4340300000000  0.4790770000000  0.5013210000000 1.0
C      1  0.4454030000000  0.5659870000000  0.4475150000000 1.0
END
