TITL C-2778423-5760-681 0.001707308853223 125000 -336.305891415129 0 0 59 (C1) n - 1
REM
REM in /home/nfs/bkarasulu/CARBON/AIRSS/Generating-Clusters/REBO/Only-C1/SD-CG/HFTN-CG
REM
REM
REM
REM
REM
REM ./C.cell (11c1c37f851c82e70ff6c80c92926a4b)
REM
REM compiler GCC version 9.2.1 20190827 (Red Hat 9.2.1-1)
REM options -cpp -mtune=generic -march=x86-64 -g -O0 -fpre-include=/usr/include/finclude/math-vector-fortran.h
REM seed -652122584 1728763986 1150897124 -1718237266 -2016788401 -266839555 -574311260 1404439406 49604170 -2046347059 1348043178 -1453415040 -2100632882 99849549 -1119754728 2037139594 -1639575034 1740441993 468005441 1446032283 -1540801555 -1978356518 418852430 -520139837 1483086947 -916865409 1351368158 633386028 1396771734 180711453 -442761941 425003234 -767472170
REM
CELL 1.54180   50.00000   50.00000   50.00000   90.00000   90.00000   90.00000
LATT -1
SFAC C  
C      1  0.4601950000000  0.5275480000000  0.5504070000000 1.0
C      1  0.4490830000000  0.4900340000000  0.5052040000000 1.0
C      1  0.5266040000000  0.4994770000000  0.4313160000000 1.0
C      1  0.4441760000000  0.5481720000000  0.5286440000000 1.0
C      1  0.4497650000000  0.5017330000000  0.4582240000000 1.0
C      1  0.5833360000000  0.4894480000000  0.5504970000000 1.0
C      1  0.4414820000000  0.5100590000000  0.5284840000000 1.0
C      1  0.4898030000000  0.4724990000000  0.5579970000000 1.0
C      1  0.4863830000000  0.5685300000000  0.5410720000000 1.0
C      1  0.5042710000000  0.4783270000000  0.4988700000000 1.0
C      1  0.5522630000000  0.5301730000000  0.5373960000000 1.0
C      1  0.5075200000000  0.5297080000000  0.5641270000000 1.0
C      1  0.4751370000000  0.5036640000000  0.4889990000000 1.0
C      1  0.5767470000000  0.5770700000000  0.5570560000000 1.0
C      1  0.4566780000000  0.4634080000000  0.5206760000000 1.0
C      1  0.4955940000000  0.4663630000000  0.4447820000000 1.0
C      1  0.5310200000000  0.5358500000000  0.4758620000000 1.0
C      1  0.5053450000000  0.5876660000000  0.5439550000000 1.0
C      1  0.4227140000000  0.4835240000000  0.4874600000000 1.0
C      1  0.4850620000000  0.4802600000000  0.5195020000000 1.0
C      1  0.5002030000000  0.5500700000000  0.4547250000000 1.0
C      1  0.5105410000000  0.5090080000000  0.5300630000000 1.0
C      1  0.4744880000000  0.5495100000000  0.4699200000000 1.0
C      1  0.5610480000000  0.4827370000000  0.5356900000000 1.0
C      1  0.5284820000000  0.4934480000000  0.4981220000000 1.0
C      1  0.4973090000000  0.4488630000000  0.5409400000000 1.0
C      1  0.5083290000000  0.5397830000000  0.4926370000000 1.0
C      1  0.4292720000000  0.4638270000000  0.4693030000000 1.0
C      1  0.4672230000000  0.4946330000000  0.5446670000000 1.0
C      1  0.4295560000000  0.5116860000000  0.4780120000000 1.0
C      1  0.5322900000000  0.5420540000000  0.5591080000000 1.0
C      1  0.4883560000000  0.4610030000000  0.4777830000000 1.0
C      1  0.4371680000000  0.5297450000000  0.5008610000000 1.0
C      1  0.5042480000000  0.4994810000000  0.5585240000000 1.0
C      1  0.4890500000000  0.4958990000000  0.4589330000000 1.0
C      1  0.5234100000000  0.4462140000000  0.5305290000000 1.0
C      1  0.5143850000000  0.4760430000000  0.4225660000000 1.0
C      1  0.4662030000000  0.5683760000000  0.5201680000000 1.0
C      1  0.5192770000000  0.4329350000000  0.4604900000000 1.0
C      1  0.5049240000000  0.5202770000000  0.4410140000000 1.0
C      1  0.4605600000000  0.5530170000000  0.4931650000000 1.0
C      1  0.5386070000000  0.4482930000000  0.5011940000000 1.0
C      1  0.4714830000000  0.5230120000000  0.4502210000000 1.0
C      1  0.5759050000000  0.4564130000000  0.4430320000000 1.0
C      1  0.5543560000000  0.4663100000000  0.4564420000000 1.0
C      1  0.5387230000000  0.5082940000000  0.4758520000000 1.0
C      1  0.4593810000000  0.4691580000000  0.4603880000000 1.0
C      1  0.4846140000000  0.5444450000000  0.5568470000000 1.0
C      1  0.4952620000000  0.5179160000000  0.5063510000000 1.0
C      1  0.4777720000000  0.4223450000000  0.4667120000000 1.0
C      1  0.5424420000000  0.5042720000000  0.5254040000000 1.0
C      1  0.5533650000000  0.4570830000000  0.5286090000000 1.0
C      1  0.5452770000000  0.4938620000000  0.4523700000000 1.0
C      1  0.4834390000000  0.4333370000000  0.4942060000000 1.0
C      1  0.4767800000000  0.4411730000000  0.5213420000000 1.0
C      1  0.4731490000000  0.4413010000000  0.4468670000000 1.0
C      1  0.5601440000000  0.5569760000000  0.5529310000000 1.0
C      1  0.5421540000000  0.5549670000000  0.4602150000000 1.0
C      1  0.5376420000000  0.4487220000000  0.4732620000000 1.0
END
