TITL C-2778430-5657-1237 -0.000313130995909516 125000 -131.015301768006 0 0 24 (C1) n - 1
REM
REM in /home/nfs/bkarasulu/CARBON/AIRSS/Generating-Clusters/REBO/Only-C1/SD-CG/HFTN-CG
REM
REM
REM
REM
REM
REM ./C.cell (11c1c37f851c82e70ff6c80c92926a4b)
REM
REM compiler GCC version 9.2.1 20190827 (Red Hat 9.2.1-1)
REM options -cpp -mtune=generic -march=x86-64 -g -O0 -fpre-include=/usr/include/finclude/math-vector-fortran.h
REM seed 1109491574 425770572 -153111387 1531190600 1498137547 1649353346 1468621748 -947603637 247035148 1755167524 -836136867 -30585326 -489028281 105791967 -1705461353 1511564395 -722604329 1441260518 -1410245177 1554797544 2096573078 533186577 1936831516 1698834672 -1614380667 -2026001782 -1448516619 -1295814729 -1537556642 1442499139 -510782304 1696132737 -325738497
REM
CELL 1.54180   50.00000   50.00000   50.00000   90.00000   90.00000   90.00000
LATT -1
SFAC C  
C      1  0.5477020000000  0.4486880000000  0.5299680000000 1.0
C      1  0.4646540000000  0.5360230000000  0.4678470000000 1.0
C      1  0.4840170000000  0.5433110000000  0.4846140000000 1.0
C      1  0.3833050000000  0.5180560000000  0.4111360000000 1.0
C      1  0.5863440000000  0.4180930000000  0.5693800000000 1.0
C      1  0.4452910000000  0.5287340000000  0.4510790000000 1.0
C      1  0.3973800000000  0.5313950000000  0.4320520000000 1.0
C      1  0.5298890000000  0.4497710000000  0.5093300000000 1.0
C      1  0.5134590000000  0.5323590000000  0.5215180000000 1.0
C      1  0.5107300000000  0.4643280000000  0.4967510000000 1.0
C      1  0.5112520000000  0.4914520000000  0.5470330000000 1.0
C      1  0.5034460000000  0.5053130000000  0.5231490000000 1.0
C      1  0.4261820000000  0.5008470000000  0.4120700000000 1.0
C      1  0.6051310000000  0.4333740000000  0.5511810000000 1.0
C      1  0.5724700000000  0.4429120000000  0.5506850000000 1.0
C      1  0.4251880000000  0.5211670000000  0.4336710000000 1.0
C      1  0.5534390000000  0.4696390000000  0.5534810000000 1.0
C      1  0.5479610000000  0.5194910000000  0.5559770000000 1.0
C      1  0.5153250000000  0.5758870000000  0.5009620000000 1.0
C      1  0.4009170000000  0.4993770000000  0.3989180000000 1.0
C      1  0.5349260000000  0.5378540000000  0.5397170000000 1.0
C      1  0.4983180000000  0.4884200000000  0.5009090000000 1.0
C      1  0.5383250000000  0.4925450000000  0.5563480000000 1.0
C      1  0.5043500000000  0.5509650000000  0.5022220000000 1.0
END
