TITL C-2778427-5640-1155 -3.68427003697996e-05 125000 -341.313650904944 0 0 60 (C1) n - 1
REM
REM in /home/nfs/bkarasulu/CARBON/AIRSS/Generating-Clusters/REBO/Only-C1/SD-CG/HFTN-CG
REM
REM
REM
REM
REM
REM ./C.cell (11c1c37f851c82e70ff6c80c92926a4b)
REM
REM compiler GCC version 9.2.1 20190827 (Red Hat 9.2.1-1)
REM options -cpp -mtune=generic -march=x86-64 -g -O0 -fpre-include=/usr/include/finclude/math-vector-fortran.h
REM seed 2020408605 1993538638 -690750687 -145669694 -772904418 1064192283 656476785 -2046219935 605193676 741569316 -1245277539 -1241198527 -1737147730 -898598478 -1884974758 1956456257 1409757177 -807881302 -659738227 1916038150 124084210 1779923449 -1005147810 993778565 -1370925079 -2062967763 410773290 55066789 -568038807 -803332351 -2090512414 -1132517763 320895626
REM
CELL 1.54180   50.00000   50.00000   50.00000   90.00000   90.00000   90.00000
LATT -1
SFAC C  
C      1  0.4588710000000  0.4794500000000  0.5520660000000 1.0
C      1  0.5029440000000  0.4555990000000  0.5700820000000 1.0
C      1  0.4711480000000  0.5404740000000  0.5617970000000 1.0
C      1  0.4996010000000  0.4387560000000  0.5453820000000 1.0
C      1  0.4999490000000  0.4944770000000  0.4829520000000 1.0
C      1  0.5506880000000  0.5658050000000  0.4696930000000 1.0
C      1  0.5097470000000  0.4231370000000  0.5243460000000 1.0
C      1  0.4750850000000  0.4463790000000  0.4877720000000 1.0
C      1  0.4747180000000  0.4967360000000  0.5056520000000 1.0
C      1  0.5767900000000  0.4867440000000  0.5517840000000 1.0
C      1  0.4815690000000  0.4778940000000  0.5747950000000 1.0
C      1  0.5400040000000  0.5536770000000  0.4462530000000 1.0
C      1  0.4847560000000  0.4672490000000  0.5364750000000 1.0
C      1  0.4543910000000  0.5310540000000  0.5027060000000 1.0
C      1  0.5025550000000  0.4444340000000  0.4800570000000 1.0
C      1  0.4653250000000  0.5265680000000  0.4714990000000 1.0
C      1  0.4989970000000  0.5033330000000  0.5793390000000 1.0
C      1  0.5403910000000  0.4557500000000  0.5067630000000 1.0
C      1  0.4732450000000  0.4972490000000  0.4659290000000 1.0
C      1  0.4224060000000  0.4921420000000  0.5040650000000 1.0
C      1  0.4996320000000  0.5168520000000  0.5333480000000 1.0
C      1  0.5980560000000  0.4742730000000  0.5645920000000 1.0
C      1  0.4305890000000  0.5122680000000  0.4585930000000 1.0
C      1  0.5462780000000  0.4889830000000  0.5667870000000 1.0
C      1  0.5680580000000  0.4581690000000  0.5121460000000 1.0
C      1  0.5132080000000  0.5397690000000  0.4563450000000 1.0
C      1  0.4722950000000  0.4461150000000  0.5150140000000 1.0
C      1  0.4952710000000  0.5249990000000  0.5607480000000 1.0
C      1  0.4349210000000  0.4755060000000  0.5299520000000 1.0
C      1  0.5379420000000  0.5599920000000  0.4951250000000 1.0
C      1  0.5212370000000  0.4812560000000  0.5742320000000 1.0
C      1  0.5754430000000  0.4839850000000  0.5218340000000 1.0
C      1  0.4926000000000  0.4712380000000  0.4247780000000 1.0
C      1  0.4533500000000  0.5300790000000  0.5430120000000 1.0
C      1  0.4716720000000  0.5554100000000  0.4892130000000 1.0
C      1  0.5472610000000  0.5139910000000  0.4885470000000 1.0
C      1  0.4568620000000  0.4674610000000  0.4706670000000 1.0
C      1  0.5151370000000  0.4755500000000  0.4404060000000 1.0
C      1  0.5659030000000  0.5052480000000  0.5058150000000 1.0
C      1  0.4836290000000  0.5453790000000  0.4413980000000 1.0
C      1  0.5363780000000  0.5327200000000  0.4247360000000 1.0
C      1  0.4691460000000  0.4897080000000  0.4328780000000 1.0
C      1  0.5250410000000  0.5045820000000  0.4392890000000 1.0
C      1  0.5638440000000  0.5152040000000  0.5651540000000 1.0
C      1  0.4874990000000  0.5350300000000  0.5121290000000 1.0
C      1  0.4927460000000  0.5633970000000  0.4675000000000 1.0
C      1  0.4514620000000  0.5339230000000  0.4427250000000 1.0
C      1  0.5267870000000  0.4798260000000  0.5138280000000 1.0
C      1  0.5524180000000  0.5597200000000  0.5181780000000 1.0
C      1  0.5216850000000  0.5132440000000  0.4712830000000 1.0
C      1  0.5056230000000  0.4890770000000  0.5293430000000 1.0
C      1  0.4614720000000  0.5050050000000  0.5318940000000 1.0
C      1  0.4296050000000  0.5154540000000  0.4878630000000 1.0
C      1  0.4509130000000  0.4763880000000  0.5001990000000 1.0
C      1  0.5111260000000  0.4685690000000  0.4676700000000 1.0
C      1  0.5210220000000  0.4349160000000  0.5006540000000 1.0
C      1  0.4744250000000  0.5191620000000  0.4222120000000 1.0
C      1  0.5060380000000  0.5224730000000  0.4177570000000 1.0
C      1  0.5106710000000  0.5525200000000  0.4942980000000 1.0
C      1  0.4395750000000  0.4856530000000  0.4484510000000 1.0
END
