TITL C-2778425-5191-292 0.011616093284594 125000 -523.639794761479 0 0 91 (C1) n - 1
REM
REM in /home/nfs/bkarasulu/CARBON/AIRSS/Generating-Clusters/REBO/Only-C1/SD-CG/HFTN-CG
REM
REM
REM
REM
REM
REM ./C.cell (11c1c37f851c82e70ff6c80c92926a4b)
REM
REM compiler GCC version 9.2.1 20190827 (Red Hat 9.2.1-1)
REM options -cpp -mtune=generic -march=x86-64 -g -O0 -fpre-include=/usr/include/finclude/math-vector-fortran.h
REM seed 686774480 -65212202 -110749800 -1041568231 -695953953 1282721562 213320080 -1164441263 -923344108 1698824157 -1253776685 -1972076459 2019139949 -1074568073 259452609 -1731220365 335206168 1899809961 -1579846922 -1265145465 243164315 792800805 133433881 -184084175 -457423431 -1663787766 1415176039 1616168568 1614665647 -139652543 -1491799476 408325598 834192078
REM
CELL 1.54180   50.00000   50.00000   50.00000   90.00000   90.00000   90.00000
LATT -1
SFAC C  
C      1  0.4781090000000  0.5057710000000  0.5751330000000 1.0
C      1  0.5408830000000  0.5687770000000  0.4993650000000 1.0
C      1  0.4474750000000  0.4942500000000  0.4964970000000 1.0
C      1  0.4535950000000  0.4998660000000  0.5590620000000 1.0
C      1  0.5359860000000  0.5128000000000  0.5283300000000 1.0
C      1  0.5639080000000  0.4778500000000  0.5020210000000 1.0
C      1  0.5203980000000  0.5924930000000  0.5062560000000 1.0
C      1  0.4191540000000  0.4747950000000  0.4928880000000 1.0
C      1  0.5671000000000  0.5203640000000  0.5520630000000 1.0
C      1  0.4975110000000  0.4218030000000  0.5306410000000 1.0
C      1  0.4968570000000  0.5524040000000  0.5212690000000 1.0
C      1  0.5178980000000  0.4653410000000  0.5224510000000 1.0
C      1  0.5096230000000  0.5032650000000  0.4029750000000 1.0
C      1  0.4375200000000  0.4630890000000  0.4491910000000 1.0
C      1  0.4857820000000  0.5174050000000  0.4317820000000 1.0
C      1  0.4521950000000  0.5290260000000  0.4501130000000 1.0
C      1  0.5293720000000  0.4319300000000  0.4887800000000 1.0
C      1  0.5056760000000  0.5195540000000  0.5677810000000 1.0
C      1  0.4732810000000  0.4910480000000  0.4574010000000 1.0
C      1  0.5621090000000  0.5496140000000  0.4862170000000 1.0
C      1  0.5798950000000  0.4613270000000  0.4774400000000 1.0
C      1  0.5089810000000  0.4772850000000  0.4144130000000 1.0
C      1  0.5814250000000  0.5153940000000  0.5275340000000 1.0
C      1  0.4259570000000  0.5288680000000  0.4977800000000 1.0
C      1  0.5100580000000  0.4409050000000  0.5531120000000 1.0
C      1  0.5692310000000  0.4862940000000  0.4633920000000 1.0
C      1  0.4588050000000  0.4168910000000  0.4907730000000 1.0
C      1  0.4248650000000  0.5143070000000  0.5226200000000 1.0
C      1  0.4936320000000  0.5456000000000  0.4207230000000 1.0
C      1  0.5018950000000  0.5281880000000  0.4898960000000 1.0
C      1  0.5182850000000  0.4374030000000  0.5142770000000 1.0
C      1  0.4332490000000  0.5139280000000  0.4705820000000 1.0
C      1  0.4766850000000  0.5529760000000  0.4471050000000 1.0
C      1  0.4788240000000  0.5250550000000  0.5245890000000 1.0
C      1  0.4347970000000  0.5557000000000  0.5002620000000 1.0
C      1  0.5585510000000  0.4992920000000  0.5686730000000 1.0
C      1  0.4961780000000  0.5657750000000  0.4688700000000 1.0
C      1  0.4848740000000  0.5604810000000  0.5605500000000 1.0
C      1  0.4254440000000  0.4832130000000  0.4650440000000 1.0
C      1  0.4565090000000  0.5646290000000  0.5142580000000 1.0
C      1  0.5402790000000  0.5319230000000  0.4300640000000 1.0
C      1  0.4972820000000  0.4823430000000  0.5774180000000 1.0
C      1  0.4430230000000  0.5233240000000  0.5423430000000 1.0
C      1  0.5178500000000  0.5610350000000  0.5538480000000 1.0
C      1  0.4749510000000  0.5322070000000  0.4727130000000 1.0
C      1  0.5005860000000  0.5059490000000  0.4568030000000 1.0
C      1  0.5399640000000  0.4968520000000  0.4983810000000 1.0
C      1  0.4824260000000  0.5715440000000  0.4989110000000 1.0
C      1  0.4759600000000  0.4603880000000  0.4595230000000 1.0
C      1  0.5475170000000  0.5348130000000  0.4595870000000 1.0
C      1  0.4638450000000  0.4511710000000  0.4964410000000 1.0
C      1  0.5268920000000  0.4959330000000  0.5799880000000 1.0
C      1  0.4770550000000  0.5705280000000  0.5839270000000 1.0
C      1  0.4899780000000  0.4820260000000  0.5267180000000 1.0
C      1  0.5232920000000  0.5483950000000  0.4785030000000 1.0
C      1  0.5006820000000  0.5956810000000  0.4835120000000 1.0
C      1  0.4708190000000  0.5138650000000  0.4979970000000 1.0
C      1  0.5844090000000  0.4877380000000  0.5227730000000 1.0
C      1  0.5268660000000  0.4591360000000  0.4708100000000 1.0
C      1  0.4976520000000  0.4318020000000  0.4387680000000 1.0
C      1  0.5062180000000  0.5827650000000  0.5303150000000 1.0
C      1  0.5163360000000  0.4295160000000  0.4582410000000 1.0
C      1  0.5420250000000  0.4779180000000  0.4523290000000 1.0
C      1  0.5690360000000  0.5127560000000  0.4739980000000 1.0
C      1  0.4624760000000  0.5488680000000  0.5410440000000 1.0
C      1  0.5408470000000  0.4805350000000  0.5344460000000 1.0
C      1  0.4548130000000  0.4721230000000  0.4277700000000 1.0
C      1  0.5662470000000  0.4444080000000  0.5019670000000 1.0
C      1  0.4566800000000  0.5035390000000  0.4298510000000 1.0
C      1  0.5439960000000  0.5402510000000  0.5470350000000 1.0
C      1  0.4950540000000  0.4652670000000  0.5551610000000 1.0
C      1  0.4444130000000  0.4628040000000  0.5208620000000 1.0
C      1  0.5246400000000  0.4989560000000  0.4689050000000 1.0
C      1  0.4498260000000  0.4400900000000  0.4673400000000 1.0
C      1  0.4957630000000  0.4528430000000  0.4831900000000 1.0
C      1  0.5769630000000  0.5282520000000  0.5018780000000 1.0
C      1  0.4696880000000  0.4198250000000  0.5228690000000 1.0
C      1  0.5182100000000  0.5295330000000  0.4120850000000 1.0
C      1  0.5420520000000  0.5679210000000  0.5306030000000 1.0
C      1  0.5339680000000  0.4705540000000  0.4239960000000 1.0
C      1  0.5540900000000  0.4497310000000  0.5287210000000 1.0
C      1  0.5462210000000  0.4694310000000  0.5724700000000 1.0
C      1  0.5391400000000  0.4469510000000  0.5558200000000 1.0
C      1  0.5071740000000  0.4995070000000  0.5047240000000 1.0
C      1  0.4908290000000  0.4228160000000  0.4891420000000 1.0
C      1  0.4518340000000  0.4363020000000  0.5363000000000 1.0
C      1  0.4856290000000  0.4598820000000  0.4266430000000 1.0
C      1  0.5083480000000  0.5250670000000  0.5380830000000 1.0
C      1  0.4342460000000  0.4847920000000  0.5726600000000 1.0
C      1  0.4604880000000  0.4896850000000  0.5279930000000 1.0
C      1  0.4188500000000  0.4854970000000  0.5224210000000 1.0
END
