TITL C-2778423-5760-649 -0.00915030271840727 125000 -1135.64142245946 0 0 189 (C1) n - 1
REM
REM in /home/nfs/bkarasulu/CARBON/AIRSS/Generating-Clusters/REBO/Only-C1/SD-CG/HFTN-CG
REM
REM
REM
REM
REM
REM ./C.cell (11c1c37f851c82e70ff6c80c92926a4b)
REM
REM compiler GCC version 9.2.1 20190827 (Red Hat 9.2.1-1)
REM options -cpp -mtune=generic -march=x86-64 -g -O0 -fpre-include=/usr/include/finclude/math-vector-fortran.h
REM seed -836680293 -467402867 1758806761 101573725 -2020728177 -290622398 1282566671 601712393 -1681762740 -2146828120 548666509 -375572867 6417054 2113659726 6590136 26272017 -891304208 -316842745 -2139282546 219441114 -1832434591 -369932018 -1702204092 -370369379 1691324457 1010516635 1009240469 1215139732 -1884892186 22964854 296933694 -725819439 1108483631
REM
CELL 1.54180   50.00000   50.00000   50.00000   90.00000   90.00000   90.00000
LATT -1
SFAC C  
C      1  0.4177950000000  0.4299430000000  0.4887740000000 1.0
C      1  0.4504400000000  0.5510670000000  0.4740680000000 1.0
C      1  0.4975400000000  0.5352930000000  0.6016420000000 1.0
C      1  0.4266740000000  0.5786330000000  0.4576290000000 1.0
C      1  0.4830870000000  0.6088290000000  0.5080090000000 1.0
C      1  0.4064410000000  0.5651200000000  0.4743050000000 1.0
C      1  0.5811250000000  0.5532220000000  0.4561540000000 1.0
C      1  0.5183970000000  0.5144250000000  0.5926590000000 1.0
C      1  0.5525590000000  0.4530060000000  0.5837350000000 1.0
C      1  0.4305630000000  0.5276280000000  0.4840600000000 1.0
C      1  0.5039800000000  0.4173790000000  0.5505120000000 1.0
C      1  0.4009430000000  0.4829230000000  0.5534880000000 1.0
C      1  0.4732190000000  0.5565520000000  0.4074640000000 1.0
C      1  0.4321500000000  0.4958620000000  0.4737110000000 1.0
C      1  0.4036990000000  0.5511860000000  0.5217920000000 1.0
C      1  0.4025300000000  0.4745460000000  0.5264900000000 1.0
C      1  0.4485360000000  0.4805490000000  0.4112530000000 1.0
C      1  0.4298830000000  0.5424780000000  0.5839310000000 1.0
C      1  0.4470070000000  0.4251630000000  0.5613800000000 1.0
C      1  0.5115360000000  0.4622600000000  0.5400720000000 1.0
C      1  0.4092410000000  0.5310500000000  0.5663600000000 1.0
C      1  0.4962850000000  0.5411940000000  0.5186980000000 1.0
C      1  0.5702720000000  0.4687250000000  0.4309000000000 1.0
C      1  0.5317020000000  0.5354990000000  0.4161360000000 1.0
C      1  0.4328310000000  0.5348550000000  0.4263310000000 1.0
C      1  0.5012390000000  0.5835720000000  0.4978860000000 1.0
C      1  0.5408050000000  0.5677910000000  0.4213380000000 1.0
C      1  0.5074440000000  0.5484770000000  0.4313990000000 1.0
C      1  0.4866510000000  0.5335660000000  0.4410870000000 1.0
C      1  0.5751150000000  0.4346000000000  0.5437340000000 1.0
C      1  0.5429280000000  0.4219410000000  0.4279470000000 1.0
C      1  0.4224840000000  0.4407260000000  0.5209540000000 1.0
C      1  0.5712030000000  0.4666100000000  0.5513090000000 1.0
C      1  0.4553710000000  0.4151980000000  0.4420930000000 1.0
C      1  0.5383660000000  0.4310400000000  0.5726650000000 1.0
C      1  0.4803940000000  0.5857480000000  0.5538570000000 1.0
C      1  0.4940970000000  0.4713730000000  0.5172740000000 1.0
C      1  0.5264510000000  0.4988820000000  0.5458600000000 1.0
C      1  0.5378180000000  0.4168080000000  0.4563950000000 1.0
C      1  0.4180390000000  0.4640880000000  0.5677080000000 1.0
C      1  0.5063060000000  0.4629780000000  0.4905170000000 1.0
C      1  0.4711800000000  0.4635100000000  0.4618120000000 1.0
C      1  0.4735260000000  0.6021930000000  0.4760320000000 1.0
C      1  0.6014230000000  0.5610360000000  0.5149980000000 1.0
C      1  0.4898560000000  0.6041640000000  0.4519630000000 1.0
C      1  0.4435330000000  0.4143640000000  0.4809740000000 1.0
C      1  0.4762310000000  0.4361230000000  0.4001540000000 1.0
C      1  0.4755700000000  0.5593000000000  0.5640520000000 1.0
C      1  0.4642010000000  0.5060010000000  0.4996120000000 1.0
C      1  0.4231490000000  0.4798680000000  0.6143300000000 1.0
C      1  0.5232940000000  0.4322520000000  0.5296340000000 1.0
C      1  0.4924920000000  0.4353460000000  0.4804070000000 1.0
C      1  0.4576580000000  0.5435770000000  0.5797500000000 1.0
C      1  0.4901390000000  0.5019260000000  0.5167810000000 1.0
C      1  0.4931540000000  0.3846320000000  0.5135510000000 1.0
C      1  0.5342220000000  0.4947890000000  0.4936990000000 1.0
C      1  0.5927100000000  0.4735610000000  0.4891470000000 1.0
C      1  0.4708330000000  0.4472120000000  0.5383350000000 1.0
C      1  0.5357460000000  0.4693300000000  0.6011060000000 1.0
C      1  0.5626720000000  0.4867510000000  0.4569220000000 1.0
C      1  0.5169940000000  0.3928800000000  0.5319940000000 1.0
C      1  0.5236950000000  0.4317520000000  0.4098310000000 1.0
C      1  0.5048110000000  0.4331380000000  0.5783380000000 1.0
C      1  0.5320380000000  0.5251000000000  0.5634190000000 1.0
C      1  0.5397530000000  0.5779420000000  0.5691100000000 1.0
C      1  0.5352060000000  0.4862180000000  0.4384660000000 1.0
C      1  0.5095670000000  0.5145360000000  0.4039720000000 1.0
C      1  0.4043670000000  0.4794230000000  0.4755600000000 1.0
C      1  0.5807570000000  0.4292050000000  0.5127760000000 1.0
C      1  0.4565710000000  0.4787970000000  0.4840120000000 1.0
C      1  0.6042870000000  0.5064050000000  0.5443560000000 1.0
C      1  0.5465700000000  0.5015800000000  0.6013540000000 1.0
C      1  0.4548990000000  0.4034050000000  0.5465720000000 1.0
C      1  0.4812630000000  0.3834660000000  0.4875700000000 1.0
C      1  0.5875970000000  0.5544450000000  0.5458870000000 1.0
C      1  0.5330890000000  0.5470750000000  0.4773300000000 1.0
C      1  0.5758380000000  0.6050710000000  0.5130670000000 1.0
C      1  0.5104370000000  0.4558160000000  0.6014110000000 1.0
C      1  0.5520700000000  0.5352460000000  0.5962150000000 1.0
C      1  0.4095680000000  0.4612970000000  0.4495260000000 1.0
C      1  0.5924970000000  0.5301370000000  0.5149870000000 1.0
C      1  0.4491330000000  0.5242670000000  0.5382750000000 1.0
C      1  0.4695730000000  0.5251880000000  0.4756590000000 1.0
C      1  0.4626110000000  0.4769040000000  0.5308760000000 1.0
C      1  0.5368160000000  0.5606370000000  0.5926070000000 1.0
C      1  0.5587830000000  0.4766380000000  0.4861200000000 1.0
C      1  0.4284370000000  0.5040350000000  0.4365470000000 1.0
C      1  0.5106880000000  0.5599940000000  0.6047170000000 1.0
C      1  0.4009530000000  0.5345580000000  0.4690990000000 1.0
C      1  0.4043070000000  0.5265490000000  0.4405270000000 1.0
C      1  0.4262760000000  0.5469520000000  0.5443600000000 1.0
C      1  0.3948910000000  0.5110230000000  0.5525010000000 1.0
C      1  0.4972170000000  0.4221730000000  0.4134700000000 1.0
C      1  0.4283940000000  0.4164550000000  0.4391900000000 1.0
C      1  0.5067110000000  0.4906850000000  0.4747690000000 1.0
C      1  0.4810140000000  0.5274380000000  0.4022650000000 1.0
C      1  0.5858640000000  0.5284170000000  0.4333650000000 1.0
C      1  0.4450980000000  0.5560440000000  0.4068840000000 1.0
C      1  0.4261520000000  0.4415930000000  0.5512410000000 1.0
C      1  0.5574680000000  0.5743960000000  0.4439290000000 1.0
C      1  0.5810700000000  0.5094920000000  0.4586430000000 1.0
C      1  0.5661640000000  0.4403160000000  0.4411040000000 1.0
C      1  0.5430270000000  0.4569040000000  0.5357560000000 1.0
C      1  0.4729140000000  0.4422630000000  0.5708170000000 1.0
C      1  0.5535090000000  0.4176070000000  0.5529640000000 1.0
C      1  0.5646010000000  0.5176190000000  0.5699580000000 1.0
C      1  0.5758170000000  0.4858020000000  0.5253040000000 1.0
C      1  0.4964190000000  0.4972990000000  0.6121770000000 1.0
C      1  0.5217840000000  0.4043070000000  0.4770010000000 1.0
C      1  0.4925540000000  0.5031330000000  0.4517130000000 1.0
C      1  0.4229310000000  0.4749540000000  0.4288400000000 1.0
C      1  0.4533050000000  0.3894630000000  0.4860690000000 1.0
C      1  0.5362090000000  0.4556420000000  0.4482300000000 1.0
C      1  0.4612680000000  0.5085610000000  0.4145800000000 1.0
C      1  0.4886400000000  0.4127160000000  0.4431270000000 1.0
C      1  0.5761740000000  0.5791510000000  0.5168610000000 1.0
C      1  0.5912980000000  0.4431920000000  0.4861970000000 1.0
C      1  0.4594000000000  0.5061560000000  0.4489790000000 1.0
C      1  0.4803810000000  0.4086210000000  0.5301620000000 1.0
C      1  0.5620490000000  0.5704530000000  0.5531350000000 1.0
C      1  0.6026340000000  0.5498440000000  0.4824560000000 1.0
C      1  0.4977700000000  0.5425400000000  0.5523790000000 1.0
C      1  0.4773600000000  0.4947620000000  0.5771170000000 1.0
C      1  0.4654370000000  0.5009330000000  0.5482130000000 1.0
C      1  0.5541950000000  0.4779970000000  0.4033710000000 1.0
C      1  0.5060220000000  0.4801480000000  0.5659960000000 1.0
C      1  0.5707690000000  0.5011640000000  0.4205920000000 1.0
C      1  0.5178780000000  0.6094650000000  0.4586430000000 1.0
C      1  0.4504780000000  0.5829310000000  0.4794390000000 1.0
C      1  0.4639830000000  0.4667460000000  0.5882920000000 1.0
C      1  0.5389960000000  0.5918620000000  0.5209810000000 1.0
C      1  0.5288250000000  0.4568830000000  0.3985760000000 1.0
C      1  0.5537060000000  0.5550730000000  0.5246140000000 1.0
C      1  0.5508500000000  0.5379670000000  0.4588100000000 1.0
C      1  0.5603970000000  0.4051440000000  0.5051020000000 1.0
C      1  0.5046510000000  0.4424470000000  0.4491320000000 1.0
C      1  0.4493670000000  0.4516320000000  0.5031700000000 1.0
C      1  0.4887180000000  0.4717650000000  0.6076640000000 1.0
C      1  0.4339730000000  0.4788030000000  0.5167800000000 1.0
C      1  0.3956460000000  0.5093330000000  0.4893920000000 1.0
C      1  0.5211970000000  0.6083130000000  0.4905030000000 1.0
C      1  0.4690870000000  0.4606520000000  0.4118420000000 1.0
C      1  0.5642400000000  0.4844610000000  0.5775280000000 1.0
C      1  0.4045060000000  0.4591900000000  0.4982150000000 1.0
C      1  0.6166410000000  0.5201540000000  0.4938220000000 1.0
C      1  0.4586430000000  0.5455400000000  0.4430220000000 1.0
C      1  0.5312620000000  0.4429510000000  0.4788390000000 1.0
C      1  0.4972300000000  0.3954190000000  0.4675670000000 1.0
C      1  0.4227730000000  0.5073280000000  0.5103670000000 1.0
C      1  0.5135840000000  0.5906220000000  0.5514110000000 1.0
C      1  0.5163360000000  0.5863420000000  0.4204480000000 1.0
C      1  0.5306620000000  0.4199570000000  0.5035800000000 1.0
C      1  0.5648560000000  0.4573740000000  0.5125950000000 1.0
C      1  0.4956490000000  0.5127080000000  0.5465640000000 1.0
C      1  0.5708040000000  0.4034340000000  0.4746440000000 1.0
C      1  0.5003820000000  0.5363440000000  0.4792390000000 1.0
C      1  0.5137080000000  0.5182250000000  0.5026000000000 1.0
C      1  0.4531740000000  0.5769490000000  0.4399940000000 1.0
C      1  0.5471320000000  0.5015710000000  0.5224820000000 1.0
C      1  0.5437420000000  0.5910480000000  0.4627210000000 1.0
C      1  0.5400900000000  0.5771430000000  0.4916070000000 1.0
C      1  0.4828170000000  0.5842560000000  0.4250150000000 1.0
C      1  0.5783370000000  0.5255080000000  0.4846940000000 1.0
C      1  0.4500560000000  0.5623670000000  0.5276390000000 1.0
C      1  0.3941610000000  0.5203780000000  0.5217520000000 1.0
C      1  0.5605790000000  0.5281870000000  0.5133000000000 1.0
C      1  0.4991610000000  0.5673100000000  0.4736360000000 1.0
C      1  0.5119860000000  0.5712310000000  0.4488480000000 1.0
C      1  0.5057810000000  0.5704330000000  0.5249500000000 1.0
C      1  0.4735350000000  0.5232350000000  0.5922190000000 1.0
C      1  0.5884570000000  0.5269170000000  0.5545690000000 1.0
C      1  0.6063000000000  0.4982800000000  0.4737430000000 1.0
C      1  0.4639900000000  0.4332040000000  0.4668530000000 1.0
C      1  0.5132810000000  0.6110780000000  0.5239500000000 1.0
C      1  0.5475210000000  0.5178600000000  0.4361480000000 1.0
C      1  0.4749180000000  0.4323730000000  0.5084100000000 1.0
C      1  0.5452870000000  0.3977910000000  0.5332620000000 1.0
C      1  0.5806470000000  0.4275890000000  0.4643940000000 1.0
C      1  0.4100760000000  0.5707380000000  0.5022080000000 1.0
C      1  0.5243470000000  0.4885310000000  0.3912840000000 1.0
C      1  0.4377580000000  0.5846750000000  0.5075600000000 1.0
C      1  0.5280320000000  0.5511290000000  0.5421420000000 1.0
C      1  0.5074340000000  0.4912440000000  0.4272040000000 1.0
C      1  0.4338290000000  0.4694590000000  0.5910330000000 1.0
C      1  0.4137120000000  0.4341210000000  0.4563920000000 1.0
C      1  0.4665020000000  0.5371310000000  0.5137040000000 1.0
C      1  0.4879770000000  0.4671770000000  0.4348290000000 1.0
C      1  0.4632330000000  0.5938940000000  0.5282110000000 1.0
C      1  0.6064270000000  0.4934890000000  0.5131420000000 1.0
END
