TITL C-2778428-5639-882 1.46423508280225 125000 -991.363058401538 0 0 171 (C1) n - 1
REM
REM in /home/nfs/bkarasulu/CARBON/AIRSS/Generating-Clusters/REBO/Only-C1/SD-CG/HFTN-CG
REM
REM
REM
REM
REM
REM ./C.cell (11c1c37f851c82e70ff6c80c92926a4b)
REM
REM compiler GCC version 9.2.1 20190827 (Red Hat 9.2.1-1)
REM options -cpp -mtune=generic -march=x86-64 -g -O0 -fpre-include=/usr/include/finclude/math-vector-fortran.h
REM seed 446953545 1021206745 1103250290 -440699402 -459917207 -979744851 -176911926 -632335706 345108401 871222418 -794130766 797043898 -965087235 -859213752 -725441733 1153533473 -313342056 -1849672442 -1095151117 1636710476 -1622259333 1074345779 378784360 1250105466 -1607002170 -905346985 2020340610 2049912158 -2006397343 -1202050579 -357551375 1350205250 1292898158
REM
CELL 1.54180   50.00000   50.00000   50.00000   90.00000   90.00000   90.00000
LATT -1
SFAC C  
C      1  0.5207600000000  0.5970350000000  0.4946730000000 1.0
C      1  0.4856110000000  0.4071930000000  0.4571520000000 1.0
C      1  0.4752460000000  0.6086110000000  0.4605490000000 1.0
C      1  0.5086960000000  0.5410080000000  0.5985040000000 1.0
C      1  0.5932700000000  0.5404160000000  0.5061550000000 1.0
C      1  0.4281330000000  0.5801960000000  0.5271940000000 1.0
C      1  0.4860820000000  0.5564530000000  0.5778600000000 1.0
C      1  0.4446690000000  0.4690240000000  0.5133950000000 1.0
C      1  0.4893170000000  0.5533290000000  0.5378910000000 1.0
C      1  0.5789950000000  0.4155500000000  0.5134960000000 1.0
C      1  0.5555130000000  0.4387170000000  0.5040490000000 1.0
C      1  0.4097490000000  0.5449940000000  0.4821270000000 1.0
C      1  0.4808750000000  0.5039120000000  0.4000760000000 1.0
C      1  0.5142160000000  0.4795270000000  0.6002520000000 1.0
C      1  0.5858810000000  0.4752700000000  0.5557190000000 1.0
C      1  0.5430470000000  0.4136030000000  0.5628000000000 1.0
C      1  0.4454840000000  0.4569420000000  0.4172680000000 1.0
C      1  0.4200050000000  0.4863580000000  0.4484100000000 1.0
C      1  0.5465260000000  0.4547610000000  0.5573060000000 1.0
C      1  0.5553270000000  0.5018470000000  0.5338050000000 1.0
C      1  0.4512440000000  0.5645690000000  0.4685700000000 1.0
C      1  0.4578560000000  0.5307890000000  0.5779230000000 1.0
C      1  0.5848970000000  0.5536730000000  0.4802370000000 1.0
C      1  0.4223980000000  0.5426560000000  0.5602410000000 1.0
C      1  0.5716300000000  0.5029070000000  0.4320930000000 1.0
C      1  0.5678390000000  0.5783110000000  0.4906890000000 1.0
C      1  0.5025180000000  0.4714740000000  0.5613250000000 1.0
C      1  0.5444440000000  0.4600390000000  0.4262680000000 1.0
C      1  0.4458310000000  0.5515860000000  0.5056670000000 1.0
C      1  0.5068960000000  0.4131550000000  0.4782490000000 1.0
C      1  0.5411270000000  0.4120900000000  0.4779240000000 1.0
C      1  0.4568560000000  0.4141890000000  0.4740030000000 1.0
C      1  0.5224280000000  0.4836630000000  0.4386040000000 1.0
C      1  0.4990000000000  0.5215520000000  0.4858720000000 1.0
C      1  0.5920340000000  0.4577240000000  0.4402650000000 1.0
C      1  0.4264280000000  0.4561810000000  0.4387540000000 1.0
C      1  0.5128130000000  0.4359370000000  0.4288880000000 1.0
C      1  0.5267340000000  0.5816570000000  0.5668210000000 1.0
C      1  0.5592240000000  0.4816960000000  0.5744950000000 1.0
C      1  0.4586190000000  0.5846570000000  0.4432120000000 1.0
C      1  0.5549940000000  0.5548020000000  0.4162450000000 1.0
C      1  0.5419840000000  0.5427740000000  0.4882930000000 1.0
C      1  0.4727260000000  0.4281750000000  0.5735770000000 1.0
C      1  0.5608670000000  0.4212320000000  0.5393800000000 1.0
C      1  0.4417570000000  0.5333020000000  0.4187810000000 1.0
C      1  0.5330430000000  0.4062290000000  0.5072630000000 1.0
C      1  0.5336670000000  0.4947010000000  0.5010510000000 1.0
C      1  0.3882950000000  0.4647480000000  0.4918330000000 1.0
C      1  0.4710510000000  0.5721020000000  0.4956510000000 1.0
C      1  0.4849160000000  0.4557200000000  0.4083270000000 1.0
C      1  0.4380810000000  0.4571140000000  0.5603120000000 1.0
C      1  0.4120230000000  0.4293600000000  0.5169170000000 1.0
C      1  0.5750020000000  0.5187370000000  0.5131640000000 1.0
C      1  0.4899880000000  0.5495030000000  0.4686540000000 1.0
C      1  0.5342240000000  0.4513600000000  0.4810380000000 1.0
C      1  0.5644370000000  0.5073930000000  0.4638020000000 1.0
C      1  0.5567420000000  0.4707440000000  0.5289880000000 1.0
C      1  0.4682330000000  0.6050550000000  0.4909990000000 1.0
C      1  0.5121810000000  0.5325520000000  0.5126810000000 1.0
C      1  0.4615330000000  0.4972030000000  0.5992380000000 1.0
C      1  0.4875730000000  0.4042020000000  0.5273610000000 1.0
C      1  0.5193400000000  0.4358920000000  0.5659730000000 1.0
C      1  0.5344690000000  0.5750010000000  0.4225550000000 1.0
C      1  0.3828860000000  0.4401880000000  0.5086390000000 1.0
C      1  0.6077700000000  0.4851190000000  0.5309450000000 1.0
C      1  0.4007700000000  0.4906020000000  0.4753190000000 1.0
C      1  0.4970450000000  0.5270980000000  0.4184980000000 1.0
C      1  0.4986450000000  0.4808550000000  0.5140690000000 1.0
C      1  0.5781050000000  0.5273650000000  0.5598490000000 1.0
C      1  0.4138250000000  0.4819530000000  0.5063760000000 1.0
C      1  0.5309490000000  0.5672740000000  0.5077700000000 1.0
C      1  0.5009310000000  0.4441210000000  0.4877750000000 1.0
C      1  0.5315150000000  0.4341790000000  0.5266430000000 1.0
C      1  0.5139260000000  0.4950940000000  0.4014930000000 1.0
C      1  0.5126930000000  0.5451080000000  0.5590530000000 1.0
C      1  0.5074940000000  0.5815620000000  0.4147130000000 1.0
C      1  0.4951120000000  0.5972230000000  0.4351230000000 1.0
C      1  0.5247490000000  0.4383090000000  0.4530510000000 1.0
C      1  0.4394490000000  0.5977600000000  0.5018620000000 1.0
C      1  0.6058930000000  0.4726270000000  0.5054840000000 1.0
C      1  0.4973220000000  0.5630050000000  0.5081430000000 1.0
C      1  0.4911530000000  0.4752950000000  0.4327850000000 1.0
C      1  0.4352720000000  0.5667210000000  0.5505740000000 1.0
C      1  0.5190450000000  0.5494550000000  0.3938690000000 1.0
C      1  0.4389810000000  0.4133970000000  0.5247020000000 1.0
C      1  0.4786910000000  0.5049350000000  0.5054800000000 1.0
C      1  0.4288440000000  0.5326720000000  0.4598650000000 1.0
C      1  0.4205130000000  0.5701630000000  0.4956660000000 1.0
C      1  0.4635920000000  0.4882590000000  0.4456470000000 1.0
C      1  0.4167460000000  0.4464330000000  0.4885540000000 1.0
C      1  0.4819590000000  0.5866920000000  0.5364490000000 1.0
C      1  0.4986420000000  0.5828420000000  0.5636170000000 1.0
C      1  0.5387380000000  0.5726060000000  0.4526370000000 1.0
C      1  0.4288210000000  0.5348950000000  0.5884150000000 1.0
C      1  0.4809500000000  0.4721310000000  0.5987770000000 1.0
C      1  0.5455240000000  0.4904810000000  0.4152130000000 1.0
C      1  0.4973130000000  0.4474260000000  0.5834350000000 1.0
C      1  0.4401080000000  0.5582870000000  0.4363020000000 1.0
C      1  0.4648010000000  0.4606510000000  0.4657130000000 1.0
C      1  0.4199310000000  0.4902150000000  0.5724140000000 1.0
C      1  0.5106350000000  0.4833680000000  0.4845020000000 1.0
C      1  0.4313980000000  0.5047920000000  0.5925740000000 1.0
C      1  0.4055500000000  0.5092040000000  0.5174180000000 1.0
C      1  0.5099580000000  0.5027570000000  0.4596020000000 1.0
C      1  0.4464130000000  0.5344140000000  0.5295650000000 1.0
C      1  0.5667270000000  0.5562580000000  0.5458720000000 1.0
C      1  0.4523170000000  0.4941100000000  0.4936010000000 1.0
C      1  0.5864070000000  0.4248790000000  0.4828630000000 1.0
C      1  0.4730310000000  0.4267070000000  0.5449900000000 1.0
C      1  0.4882470000000  0.5763570000000  0.4598260000000 1.0
C      1  0.5796880000000  0.5652100000000  0.5180510000000 1.0
C      1  0.5932850000000  0.4837750000000  0.4503140000000 1.0
C      1  0.5925860000000  0.5073990000000  0.5468310000000 1.0
C      1  0.5213460000000  0.5996180000000  0.5284440000000 1.0
C      1  0.5278280000000  0.5252480000000  0.4094480000000 1.0
C      1  0.5416030000000  0.5445550000000  0.4601020000000 1.0
C      1  0.4620410000000  0.5360160000000  0.4815490000000 1.0
C      1  0.5806340000000  0.5365780000000  0.4575540000000 1.0
C      1  0.5434790000000  0.5309020000000  0.5202250000000 1.0
C      1  0.5012530000000  0.5011300000000  0.5694510000000 1.0
C      1  0.5806890000000  0.5489630000000  0.4317370000000 1.0
C      1  0.4238010000000  0.5162880000000  0.5408360000000 1.0
C      1  0.4907210000000  0.4184640000000  0.4302650000000 1.0
C      1  0.4720830000000  0.4807300000000  0.5499940000000 1.0
C      1  0.4970720000000  0.4650860000000  0.4631470000000 1.0
C      1  0.4653570000000  0.4317400000000  0.4159570000000 1.0
C      1  0.4785980000000  0.4532700000000  0.5355660000000 1.0
C      1  0.5052710000000  0.5171560000000  0.5427790000000 1.0
C      1  0.5172680000000  0.4613340000000  0.4061090000000 1.0
C      1  0.5629570000000  0.4478750000000  0.4467530000000 1.0
C      1  0.5528830000000  0.5130260000000  0.5773040000000 1.0
C      1  0.4581810000000  0.4540030000000  0.5807320000000 1.0
C      1  0.5430890000000  0.5438450000000  0.5667690000000 1.0
C      1  0.5673120000000  0.4673480000000  0.4968270000000 1.0
C      1  0.3973430000000  0.5276660000000  0.4992840000000 1.0
C      1  0.5985700000000  0.4432100000000  0.5089450000000 1.0
C      1  0.4298260000000  0.4328580000000  0.4634470000000 1.0
C      1  0.5632570000000  0.4242730000000  0.4661160000000 1.0
C      1  0.4285340000000  0.4348410000000  0.5462010000000 1.0
C      1  0.4586560000000  0.5159150000000  0.4565060000000 1.0
C      1  0.5527350000000  0.4363730000000  0.5863410000000 1.0
C      1  0.4848220000000  0.5188920000000  0.5910920000000 1.0
C      1  0.4571240000000  0.4861100000000  0.4129570000000 1.0
C      1  0.5555070000000  0.4745020000000  0.4669560000000 1.0
C      1  0.5237230000000  0.5111560000000  0.5920670000000 1.0
C      1  0.5055970000000  0.3936630000000  0.5053810000000 1.0
C      1  0.5118280000000  0.4558140000000  0.5322820000000 1.0
C      1  0.4683030000000  0.4493660000000  0.4979300000000 1.0
C      1  0.5449310000000  0.5881160000000  0.4765490000000 1.0
C      1  0.4739810000000  0.5236450000000  0.5315030000000 1.0
C      1  0.4585930000000  0.4344370000000  0.4474340000000 1.0
C      1  0.5115830000000  0.4076570000000  0.5505000000000 1.0
C      1  0.4330130000000  0.4834560000000  0.5420910000000 1.0
C      1  0.5556920000000  0.5052770000000  0.4923220000000 1.0
C      1  0.5801600000000  0.4477340000000  0.5368360000000 1.0
C      1  0.5241530000000  0.4936980000000  0.5318160000000 1.0
C      1  0.4633790000000  0.5334470000000  0.3995480000000 1.0
C      1  0.4339180000000  0.5066510000000  0.4265500000000 1.0
C      1  0.5322400000000  0.5631480000000  0.5908310000000 1.0
C      1  0.5385560000000  0.4641320000000  0.5949780000000 1.0
C      1  0.5413430000000  0.5746830000000  0.5393470000000 1.0
C      1  0.4917220000000  0.6024320000000  0.5115270000000 1.0
C      1  0.4352810000000  0.4707890000000  0.4747220000000 1.0
C      1  0.4608980000000  0.5013880000000  0.5643650000000 1.0
C      1  0.4617010000000  0.5714710000000  0.5593860000000 1.0
C      1  0.4903040000000  0.5240370000000  0.4471520000000 1.0
C      1  0.5479810000000  0.5262400000000  0.4328690000000 1.0
C      1  0.4880340000000  0.5566190000000  0.4034610000000 1.0
C      1  0.4273310000000  0.5091590000000  0.4804020000000 1.0
C      1  0.4633000000000  0.4170570000000  0.5072720000000 1.0
C      1  0.5923270000000  0.4835330000000  0.4796960000000 1.0
END
