TITL C-2778422-5617-260 0.00594131810653951 125000 -838.816443717361 0 0 144 (C1) n - 1
REM
REM in /home/nfs/bkarasulu/CARBON/AIRSS/Generating-Clusters/REBO/Only-C1/SD-CG/HFTN-CG
REM
REM
REM
REM
REM
REM ./C.cell (11c1c37f851c82e70ff6c80c92926a4b)
REM
REM compiler GCC version 9.2.1 20190827 (Red Hat 9.2.1-1)
REM options -cpp -mtune=generic -march=x86-64 -g -O0 -fpre-include=/usr/include/finclude/math-vector-fortran.h
REM seed -241208074 -836344549 -1960991761 538533900 -526318323 171227721 -972496585 734547166 2118199849 1173387202 1209652032 146743460 -516238817 1669145514 858879938 743728402 -2079101853 -1480378336 1855847456 2141041580 536072375 1827564769 21041704 -1480932199 -194030300 -1229283443 663763516 -1586821026 767184336 -1063022036 582880346 -1283295879 -1430804427
REM
CELL 1.54180   50.00000   50.00000   50.00000   90.00000   90.00000   90.00000
LATT -1
SFAC C  
C      1  0.5508050000000  0.5571910000000  0.5806180000000 1.0
C      1  0.4705180000000  0.4632800000000  0.4496150000000 1.0
C      1  0.4940080000000  0.5498070000000  0.4993600000000 1.0
C      1  0.4839340000000  0.5740570000000  0.4356300000000 1.0
C      1  0.4599900000000  0.4841600000000  0.4954590000000 1.0
C      1  0.4610600000000  0.3997820000000  0.4747250000000 1.0
C      1  0.4573280000000  0.5373780000000  0.5501280000000 1.0
C      1  0.4177020000000  0.5351680000000  0.4334180000000 1.0
C      1  0.4661720000000  0.5542720000000  0.4475650000000 1.0
C      1  0.4845340000000  0.5990700000000  0.4494150000000 1.0
C      1  0.5428000000000  0.5186310000000  0.6047050000000 1.0
C      1  0.5065680000000  0.5974010000000  0.4933690000000 1.0
C      1  0.4753770000000  0.4611520000000  0.5243190000000 1.0
C      1  0.4885200000000  0.4089280000000  0.5425900000000 1.0
C      1  0.4471090000000  0.5697820000000  0.5477010000000 1.0
C      1  0.5556770000000  0.5132630000000  0.4676360000000 1.0
C      1  0.5818510000000  0.4449490000000  0.5310940000000 1.0
C      1  0.5433270000000  0.5413910000000  0.5129580000000 1.0
C      1  0.3959660000000  0.4960170000000  0.5246200000000 1.0
C      1  0.4614890000000  0.4423190000000  0.4698480000000 1.0
C      1  0.4590000000000  0.5406860000000  0.5162420000000 1.0
C      1  0.5511200000000  0.4800720000000  0.4609880000000 1.0
C      1  0.4398810000000  0.4294350000000  0.5253920000000 1.0
C      1  0.5031270000000  0.4767180000000  0.5926640000000 1.0
C      1  0.3956860000000  0.5393550000000  0.4482480000000 1.0
C      1  0.4641810000000  0.5039060000000  0.4150600000000 1.0
C      1  0.5378130000000  0.5443260000000  0.5530630000000 1.0
C      1  0.4456000000000  0.5645330000000  0.4688030000000 1.0
C      1  0.5589040000000  0.4999000000000  0.4131520000000 1.0
C      1  0.5139220000000  0.4271990000000  0.5518170000000 1.0
C      1  0.4240840000000  0.5672260000000  0.5294590000000 1.0
C      1  0.5515320000000  0.4922660000000  0.6012640000000 1.0
C      1  0.4968830000000  0.4829030000000  0.4269480000000 1.0
C      1  0.5553030000000  0.4712990000000  0.5451550000000 1.0
C      1  0.6068690000000  0.5095910000000  0.4870590000000 1.0
C      1  0.5219900000000  0.5756540000000  0.4734120000000 1.0
C      1  0.5084510000000  0.4441710000000  0.3959550000000 1.0
C      1  0.5589790000000  0.5419390000000  0.6029130000000 1.0
C      1  0.4716680000000  0.5698850000000  0.5113760000000 1.0
C      1  0.4881870000000  0.4712020000000  0.4842650000000 1.0
C      1  0.4638060000000  0.5220570000000  0.4551390000000 1.0
C      1  0.5094250000000  0.5218250000000  0.4857450000000 1.0
C      1  0.5252130000000  0.5010930000000  0.4680530000000 1.0
C      1  0.5442900000000  0.4843860000000  0.5156370000000 1.0
C      1  0.5118230000000  0.5634750000000  0.4192700000000 1.0
C      1  0.4123130000000  0.4322070000000  0.4753250000000 1.0
C      1  0.6039550000000  0.4843180000000  0.4457800000000 1.0
C      1  0.5373520000000  0.4148340000000  0.5301470000000 1.0
C      1  0.5612990000000  0.5583100000000  0.5345920000000 1.0
C      1  0.5651840000000  0.5745510000000  0.5060750000000 1.0
C      1  0.5731430000000  0.5357880000000  0.4499620000000 1.0
C      1  0.5807270000000  0.4548110000000  0.4820640000000 1.0
C      1  0.5092050000000  0.4150260000000  0.4544290000000 1.0
C      1  0.5058830000000  0.5488450000000  0.4682290000000 1.0
C      1  0.4330150000000  0.4793730000000  0.5802670000000 1.0
C      1  0.3817080000000  0.5169320000000  0.4938090000000 1.0
C      1  0.6180680000000  0.4976450000000  0.4658710000000 1.0
C      1  0.5100020000000  0.5626550000000  0.5439380000000 1.0
C      1  0.4671550000000  0.5224300000000  0.4890560000000 1.0
C      1  0.5138880000000  0.5386430000000  0.5215620000000 1.0
C      1  0.4262760000000  0.4847730000000  0.4327950000000 1.0
C      1  0.3837180000000  0.4859490000000  0.4942710000000 1.0
C      1  0.4704310000000  0.5125800000000  0.5952730000000 1.0
C      1  0.4967040000000  0.5031690000000  0.6030780000000 1.0
C      1  0.5240970000000  0.4024280000000  0.5074210000000 1.0
C      1  0.5112330000000  0.5278850000000  0.5666620000000 1.0
C      1  0.5224910000000  0.4932160000000  0.5505310000000 1.0
C      1  0.4813200000000  0.4674920000000  0.5715400000000 1.0
C      1  0.5859330000000  0.4610490000000  0.4562650000000 1.0
C      1  0.4256060000000  0.4841220000000  0.5321770000000 1.0
C      1  0.5873830000000  0.5336380000000  0.4809440000000 1.0
C      1  0.5332740000000  0.4134270000000  0.4786210000000 1.0
C      1  0.5899190000000  0.4773740000000  0.5636740000000 1.0
C      1  0.5991500000000  0.4551120000000  0.5506020000000 1.0
C      1  0.4492940000000  0.4442490000000  0.5505220000000 1.0
C      1  0.4699010000000  0.5383540000000  0.5817510000000 1.0
C      1  0.4715510000000  0.4273690000000  0.5220360000000 1.0
C      1  0.4237900000000  0.4444160000000  0.5014600000000 1.0
C      1  0.4966550000000  0.4423470000000  0.4933930000000 1.0
C      1  0.4382030000000  0.5390500000000  0.4891240000000 1.0
C      1  0.5202840000000  0.4338240000000  0.4209940000000 1.0
C      1  0.4586720000000  0.4880770000000  0.5859620000000 1.0
C      1  0.5446370000000  0.5118950000000  0.5445850000000 1.0
C      1  0.4817930000000  0.4379200000000  0.5591420000000 1.0
C      1  0.4320140000000  0.5700230000000  0.5004470000000 1.0
C      1  0.5710550000000  0.4643280000000  0.5091710000000 1.0
C      1  0.5584960000000  0.4316060000000  0.4900950000000 1.0
C      1  0.5549760000000  0.5424760000000  0.4845240000000 1.0
C      1  0.5805560000000  0.5471600000000  0.6184130000000 1.0
C      1  0.4856870000000  0.4165270000000  0.4345050000000 1.0
C      1  0.4930730000000  0.4494020000000  0.4325000000000 1.0
C      1  0.5894460000000  0.5134840000000  0.5153400000000 1.0
C      1  0.5443830000000  0.4512680000000  0.4662590000000 1.0
C      1  0.5439580000000  0.5824230000000  0.4519740000000 1.0
C      1  0.5309060000000  0.4531430000000  0.5396580000000 1.0
C      1  0.4264260000000  0.5271860000000  0.5535830000000 1.0
C      1  0.4697580000000  0.4919180000000  0.4637680000000 1.0
C      1  0.5130730000000  0.4457940000000  0.4666540000000 1.0
C      1  0.4591510000000  0.4254030000000  0.4442400000000 1.0
C      1  0.5591260000000  0.5451210000000  0.4267850000000 1.0
C      1  0.4969090000000  0.3981610000000  0.5128930000000 1.0
C      1  0.4816840000000  0.6023930000000  0.4766850000000 1.0
C      1  0.5621730000000  0.4712620000000  0.5784850000000 1.0
C      1  0.5069080000000  0.4778260000000  0.4569930000000 1.0
C      1  0.4691050000000  0.5854160000000  0.5381730000000 1.0
C      1  0.3818570000000  0.5318730000000  0.4701470000000 1.0
C      1  0.4357710000000  0.4368050000000  0.4309390000000 1.0
C      1  0.4632470000000  0.4762870000000  0.4064290000000 1.0
C      1  0.5396310000000  0.4258790000000  0.4447450000000 1.0
C      1  0.4703470000000  0.4878170000000  0.5467120000000 1.0
C      1  0.4910440000000  0.4668980000000  0.3971280000000 1.0
C      1  0.5466000000000  0.5240280000000  0.4117580000000 1.0
C      1  0.4917610000000  0.5982250000000  0.5450250000000 1.0
C      1  0.4548920000000  0.4533430000000  0.4972850000000 1.0
C      1  0.4836580000000  0.5092260000000  0.5157360000000 1.0
C      1  0.5297450000000  0.4737970000000  0.5868510000000 1.0
C      1  0.4789040000000  0.4150210000000  0.4929360000000 1.0
C      1  0.5139640000000  0.4434240000000  0.5152780000000 1.0
C      1  0.5152900000000  0.5905280000000  0.5257810000000 1.0
C      1  0.5421170000000  0.5687030000000  0.4280080000000 1.0
C      1  0.5175250000000  0.5053840000000  0.5130410000000 1.0
C      1  0.5618160000000  0.5726980000000  0.4733140000000 1.0
C      1  0.5036690000000  0.4711000000000  0.5407650000000 1.0
C      1  0.5834880000000  0.5468050000000  0.5120810000000 1.0
C      1  0.5171730000000  0.5309980000000  0.4105140000000 1.0
C      1  0.4517560000000  0.4966440000000  0.5216650000000 1.0
C      1  0.4924950000000  0.5130980000000  0.4227260000000 1.0
C      1  0.5368990000000  0.5853820000000  0.5018330000000 1.0
C      1  0.5715490000000  0.4838050000000  0.4353920000000 1.0
C      1  0.4316300000000  0.4662110000000  0.5557460000000 1.0
C      1  0.4093090000000  0.5430430000000  0.5359410000000 1.0
C      1  0.5161090000000  0.5217680000000  0.5940330000000 1.0
C      1  0.5603970000000  0.4275700000000  0.5205370000000 1.0
C      1  0.5026010000000  0.5393300000000  0.4406520000000 1.0
C      1  0.4587850000000  0.5875510000000  0.4885650000000 1.0
C      1  0.4859180000000  0.5182970000000  0.5484690000000 1.0
C      1  0.3927520000000  0.5272930000000  0.5203050000000 1.0
C      1  0.4404710000000  0.4632210000000  0.4194800000000 1.0
C      1  0.4079530000000  0.4677030000000  0.5097180000000 1.0
C      1  0.5567270000000  0.5134580000000  0.5119960000000 1.0
C      1  0.4865670000000  0.5590580000000  0.5665920000000 1.0
C      1  0.4398500000000  0.5141090000000  0.4336640000000 1.0
C      1  0.4129230000000  0.4331410000000  0.4480760000000 1.0
C      1  0.5762630000000  0.4989720000000  0.5432100000000 1.0
END
