TITL C-2778435-5768-1270 0.0805144661864952 125000 -790.48415549943 0 0 134 (C1) n - 1
REM
REM in /home/nfs/bkarasulu/CARBON/AIRSS/Generating-Clusters/REBO/Only-C1/SD-CG/HFTN-CG
REM
REM
REM
REM
REM
REM ./C.cell (11c1c37f851c82e70ff6c80c92926a4b)
REM
REM compiler GCC version 9.2.1 20190827 (Red Hat 9.2.1-1)
REM options -cpp -mtune=generic -march=x86-64 -g -O0 -fpre-include=/usr/include/finclude/math-vector-fortran.h
REM seed 1705540257 157837870 674295252 -1000980534 -44625635 1666172614 -833704416 -494827746 -105521819 74423963 -1550286630 -67614993 2095424177 194094222 -1763347873 -823140276 -2005400305 1218686139 260815326 -593767645 -1126499570 -1015555378 -752415080 788407046 -537307544 -288967563 -395334038 -506989543 1323614681 1454514718 -33925232 -482834393 -824459851
REM
CELL 1.54180   50.00000   50.00000   50.00000   90.00000   90.00000   90.00000
LATT -1
SFAC C  
C      1  0.4824360000000  0.4811570000000  0.5333140000000 1.0
C      1  0.5041300000000  0.4534890000000  0.4028860000000 1.0
C      1  0.5431710000000  0.4460660000000  0.5444700000000 1.0
C      1  0.4289980000000  0.4669110000000  0.5321270000000 1.0
C      1  0.4641360000000  0.5215520000000  0.5057270000000 1.0
C      1  0.5215660000000  0.5702810000000  0.4892790000000 1.0
C      1  0.5423960000000  0.5095650000000  0.4261440000000 1.0
C      1  0.5676410000000  0.5072850000000  0.5693460000000 1.0
C      1  0.4946120000000  0.4002680000000  0.4855300000000 1.0
C      1  0.5560340000000  0.4186670000000  0.5309660000000 1.0
C      1  0.4947280000000  0.4612760000000  0.5131110000000 1.0
C      1  0.5888880000000  0.5089410000000  0.5860700000000 1.0
C      1  0.4507540000000  0.5182690000000  0.5717840000000 1.0
C      1  0.5723130000000  0.4794500000000  0.4287360000000 1.0
C      1  0.4643670000000  0.5570020000000  0.4852370000000 1.0
C      1  0.4223290000000  0.5326330000000  0.5622540000000 1.0
C      1  0.4643990000000  0.5535030000000  0.5354460000000 1.0
C      1  0.4333020000000  0.5171590000000  0.4555800000000 1.0
C      1  0.5343050000000  0.4011030000000  0.4588480000000 1.0
C      1  0.4850150000000  0.5073080000000  0.5365920000000 1.0
C      1  0.5395100000000  0.4792320000000  0.5411640000000 1.0
C      1  0.5144490000000  0.4806850000000  0.5643960000000 1.0
C      1  0.5076500000000  0.5661040000000  0.5159000000000 1.0
C      1  0.4866650000000  0.5764240000000  0.4370810000000 1.0
C      1  0.5673730000000  0.4918760000000  0.5460090000000 1.0
C      1  0.4826860000000  0.6005960000000  0.5426940000000 1.0
C      1  0.5364810000000  0.4543850000000  0.4455800000000 1.0
C      1  0.4576620000000  0.5361630000000  0.4501200000000 1.0
C      1  0.5718380000000  0.5624080000000  0.5202710000000 1.0
C      1  0.5133860000000  0.5778910000000  0.4287170000000 1.0
C      1  0.4672370000000  0.4891790000000  0.4104760000000 1.0
C      1  0.5084540000000  0.4109460000000  0.5214390000000 1.0
C      1  0.5677610000000  0.5258900000000  0.4462630000000 1.0
C      1  0.4433680000000  0.5095130000000  0.4241560000000 1.0
C      1  0.4774160000000  0.5060290000000  0.6188020000000 1.0
C      1  0.4318940000000  0.4499340000000  0.4415650000000 1.0
C      1  0.4174160000000  0.5257280000000  0.4794260000000 1.0
C      1  0.4456110000000  0.5652110000000  0.4432480000000 1.0
C      1  0.4391760000000  0.5161450000000  0.5166510000000 1.0
C      1  0.5933000000000  0.4515540000000  0.5378260000000 1.0
C      1  0.5163950000000  0.5727860000000  0.5612980000000 1.0
C      1  0.4799000000000  0.5007390000000  0.5926800000000 1.0
C      1  0.5429370000000  0.5869790000000  0.4891060000000 1.0
C      1  0.4553590000000  0.4883970000000  0.5765810000000 1.0
C      1  0.5866240000000  0.4607610000000  0.5126910000000 1.0
C      1  0.5426800000000  0.5649550000000  0.5685170000000 1.0
C      1  0.5403040000000  0.5247360000000  0.4849720000000 1.0
C      1  0.4766230000000  0.5011620000000  0.4891430000000 1.0
C      1  0.4942650000000  0.4340380000000  0.5299960000000 1.0
C      1  0.4226160000000  0.5588870000000  0.5187980000000 1.0
C      1  0.5447330000000  0.4561270000000  0.4742780000000 1.0
C      1  0.4370660000000  0.4293420000000  0.5210740000000 1.0
C      1  0.5756110000000  0.5365000000000  0.4996110000000 1.0
C      1  0.3917770000000  0.5172270000000  0.4946610000000 1.0
C      1  0.5248930000000  0.5276300000000  0.5970500000000 1.0
C      1  0.4655040000000  0.4805690000000  0.4685650000000 1.0
C      1  0.5618910000000  0.5620100000000  0.5471960000000 1.0
C      1  0.5116140000000  0.5329400000000  0.4159280000000 1.0
C      1  0.4307860000000  0.5531820000000  0.4895870000000 1.0
C      1  0.5235810000000  0.4230380000000  0.4406770000000 1.0
C      1  0.5475770000000  0.4982890000000  0.4774480000000 1.0
C      1  0.5877530000000  0.5085490000000  0.4997730000000 1.0
C      1  0.4733310000000  0.4361820000000  0.5746420000000 1.0
C      1  0.4907210000000  0.5011920000000  0.4325370000000 1.0
C      1  0.5459150000000  0.5331590000000  0.5137880000000 1.0
C      1  0.4243460000000  0.4381180000000  0.5011010000000 1.0
C      1  0.5385550000000  0.4866610000000  0.4488730000000 1.0
C      1  0.5494920000000  0.5415470000000  0.4254300000000 1.0
C      1  0.4633880000000  0.4430210000000  0.4942700000000 1.0
C      1  0.5592780000000  0.4754870000000  0.4987370000000 1.0
C      1  0.4188950000000  0.4563430000000  0.4726990000000 1.0
C      1  0.5548450000000  0.4673310000000  0.4125090000000 1.0
C      1  0.4680310000000  0.5601370000000  0.4203250000000 1.0
C      1  0.5223490000000  0.3960300000000  0.4829220000000 1.0
C      1  0.4303810000000  0.4889440000000  0.5080280000000 1.0
C      1  0.4998460000000  0.5209140000000  0.5144770000000 1.0
C      1  0.4597590000000  0.5880210000000  0.5548950000000 1.0
C      1  0.4395040000000  0.4757510000000  0.4249890000000 1.0
C      1  0.5073320000000  0.5866440000000  0.5383360000000 1.0
C      1  0.4883610000000  0.4725630000000  0.4467890000000 1.0
C      1  0.4724880000000  0.5269930000000  0.4216950000000 1.0
C      1  0.5357730000000  0.5639670000000  0.4232440000000 1.0
C      1  0.4651890000000  0.5678820000000  0.5754850000000 1.0
C      1  0.5932800000000  0.4628890000000  0.4821660000000 1.0
C      1  0.4406530000000  0.5731340000000  0.5358010000000 1.0
C      1  0.4535850000000  0.4640310000000  0.5103930000000 1.0
C      1  0.4740180000000  0.5300370000000  0.5545920000000 1.0
C      1  0.5374630000000  0.4040020000000  0.5083510000000 1.0
C      1  0.4791630000000  0.4200350000000  0.4958100000000 1.0
C      1  0.5304840000000  0.4880000000000  0.5121140000000 1.0
C      1  0.5743290000000  0.4370110000000  0.5507330000000 1.0
C      1  0.4850720000000  0.4498350000000  0.4274870000000 1.0
C      1  0.4611020000000  0.4219080000000  0.5946920000000 1.0
C      1  0.4927890000000  0.4210540000000  0.4402920000000 1.0
C      1  0.5892870000000  0.4914700000000  0.4756420000000 1.0
C      1  0.5163140000000  0.5329050000000  0.5583980000000 1.0
C      1  0.5101450000000  0.5341080000000  0.4436590000000 1.0
C      1  0.5188470000000  0.5442190000000  0.4734930000000 1.0
C      1  0.4627140000000  0.4346110000000  0.5423780000000 1.0
C      1  0.5789770000000  0.4975520000000  0.4495710000000 1.0
C      1  0.4484870000000  0.4417820000000  0.4694520000000 1.0
C      1  0.5216290000000  0.4636030000000  0.4927210000000 1.0
C      1  0.5283720000000  0.4765740000000  0.3959350000000 1.0
C      1  0.5858860000000  0.4982270000000  0.5259990000000 1.0
C      1  0.4637750000000  0.4671550000000  0.5517170000000 1.0
C      1  0.4604540000000  0.4314630000000  0.4403970000000 1.0
C      1  0.5063010000000  0.5063900000000  0.5777140000000 1.0
C      1  0.4317670000000  0.5743450000000  0.4648060000000 1.0
C      1  0.4926510000000  0.4658090000000  0.4795270000000 1.0
C      1  0.4955270000000  0.4544590000000  0.5756540000000 1.0
C      1  0.4399110000000  0.4860990000000  0.4562850000000 1.0
C      1  0.5322180000000  0.4420520000000  0.4150730000000 1.0
C      1  0.5084650000000  0.5012090000000  0.4895570000000 1.0
C      1  0.5436220000000  0.5195110000000  0.5727710000000 1.0
C      1  0.5709890000000  0.4412990000000  0.4816600000000 1.0
C      1  0.4857540000000  0.5397770000000  0.4657510000000 1.0
C      1  0.4790210000000  0.5580320000000  0.5117230000000 1.0
C      1  0.5420710000000  0.5527600000000  0.5946550000000 1.0
C      1  0.5654590000000  0.5856930000000  0.5048340000000 1.0
C      1  0.4770980000000  0.5787170000000  0.4638400000000 1.0
C      1  0.5193210000000  0.5072760000000  0.4029450000000 1.0
C      1  0.5127960000000  0.5034900000000  0.4584340000000 1.0
C      1  0.4175740000000  0.4893410000000  0.4799540000000 1.0
C      1  0.4948390000000  0.4846370000000  0.3964990000000 1.0
C      1  0.4930300000000  0.5531940000000  0.5711400000000 1.0
C      1  0.5202820000000  0.5392360000000  0.5279160000000 1.0
C      1  0.5129740000000  0.4505490000000  0.5488740000000 1.0
C      1  0.4163390000000  0.5317650000000  0.5328730000000 1.0
C      1  0.5661510000000  0.4199110000000  0.4993920000000 1.0
C      1  0.4440420000000  0.5497790000000  0.5801220000000 1.0
C      1  0.4749840000000  0.5112090000000  0.6443770000000 1.0
C      1  0.4315910000000  0.4703670000000  0.5617190000000 1.0
C      1  0.5745040000000  0.5439270000000  0.4696230000000 1.0
C      1  0.3907740000000  0.5200590000000  0.5198600000000 1.0
END
