TITL C-2778430-5657-721 -0.00364513480141346 125000 -281.250251641086 0 0 50 (C1) n - 1
REM
REM in /home/nfs/bkarasulu/CARBON/AIRSS/Generating-Clusters/REBO/Only-C1/SD-CG/HFTN-CG
REM
REM
REM
REM
REM
REM ./C.cell (11c1c37f851c82e70ff6c80c92926a4b)
REM
REM compiler GCC version 9.2.1 20190827 (Red Hat 9.2.1-1)
REM options -cpp -mtune=generic -march=x86-64 -g -O0 -fpre-include=/usr/include/finclude/math-vector-fortran.h
REM seed -568434736 -480157021 161339192 477541220 -1283250459 1605478225 -1467177905 -1069565851 -975793963 -1154214763 820340726 -120676553 1599976086 38524238 -1648806490 1048583841 1500196926 -1774548869 832745075 -152866876 -1025986570 -690801559 1242621515 342039291 228353933 -1572141372 -395843387 1611673741 -118087522 650503735 -376789973 -1883286531 1924176314
REM
CELL 1.54180   50.00000   50.00000   50.00000   90.00000   90.00000   90.00000
LATT -1
SFAC C  
C      1  0.5515770000000  0.5426880000000  0.5509610000000 1.0
C      1  0.4923130000000  0.4774850000000  0.4703320000000 1.0
C      1  0.4974410000000  0.5189980000000  0.5084170000000 1.0
C      1  0.4685360000000  0.4256620000000  0.5196890000000 1.0
C      1  0.5757410000000  0.5142540000000  0.5355310000000 1.0
C      1  0.5200040000000  0.5110690000000  0.4926000000000 1.0
C      1  0.4495980000000  0.5466000000000  0.4949630000000 1.0
C      1  0.4785670000000  0.5239020000000  0.5874390000000 1.0
C      1  0.5700090000000  0.4657580000000  0.5381460000000 1.0
C      1  0.4964240000000  0.5618960000000  0.4976990000000 1.0
C      1  0.5491110000000  0.5117750000000  0.5564440000000 1.0
C      1  0.4483340000000  0.4270590000000  0.4344010000000 1.0
C      1  0.5624660000000  0.4783110000000  0.5083550000000 1.0
C      1  0.4729110000000  0.5578430000000  0.5152400000000 1.0
C      1  0.4562450000000  0.5131130000000  0.5288010000000 1.0
C      1  0.4689320000000  0.5405510000000  0.5371340000000 1.0
C      1  0.4490430000000  0.4999810000000  0.4560960000000 1.0
C      1  0.5184590000000  0.4738500000000  0.5393230000000 1.0
C      1  0.4886840000000  0.4656140000000  0.5421840000000 1.0
C      1  0.5222900000000  0.5526090000000  0.5029570000000 1.0
C      1  0.4776470000000  0.4720400000000  0.4170250000000 1.0
C      1  0.5152040000000  0.4946950000000  0.4701160000000 1.0
C      1  0.4769410000000  0.5166000000000  0.4646300000000 1.0
C      1  0.5440360000000  0.5493560000000  0.5252420000000 1.0
C      1  0.4718580000000  0.4913520000000  0.5435990000000 1.0
C      1  0.5602890000000  0.5595690000000  0.5709330000000 1.0
C      1  0.5744750000000  0.4890620000000  0.5553160000000 1.0
C      1  0.4871700000000  0.4621220000000  0.4928970000000 1.0
C      1  0.4848230000000  0.4497480000000  0.5655130000000 1.0
C      1  0.5748310000000  0.5290400000000  0.4479600000000 1.0
C      1  0.5542140000000  0.5128640000000  0.4476840000000 1.0
C      1  0.4556650000000  0.5313180000000  0.4446490000000 1.0
C      1  0.5270070000000  0.4798370000000  0.4257690000000 1.0
C      1  0.5228750000000  0.5008430000000  0.5457920000000 1.0
C      1  0.4607030000000  0.5531180000000  0.4651970000000 1.0
C      1  0.5454080000000  0.5266940000000  0.5002900000000 1.0
C      1  0.4792860000000  0.5200390000000  0.5605730000000 1.0
C      1  0.4231780000000  0.3806310000000  0.4362740000000 1.0
C      1  0.4809960000000  0.4502000000000  0.5170950000000 1.0
C      1  0.4611510000000  0.4507150000000  0.4334470000000 1.0
C      1  0.4707010000000  0.4785190000000  0.4496910000000 1.0
C      1  0.5014260000000  0.5173420000000  0.5367560000000 1.0
C      1  0.4334610000000  0.4998290000000  0.4836720000000 1.0
C      1  0.4408010000000  0.5164670000000  0.5043510000000 1.0
C      1  0.4356550000000  0.4036590000000  0.4353450000000 1.0
C      1  0.5672510000000  0.5074190000000  0.5086450000000 1.0
C      1  0.4870410000000  0.5645000000000  0.4701760000000 1.0
C      1  0.5400720000000  0.4612350000000  0.5263910000000 1.0
C      1  0.4769360000000  0.5265650000000  0.4908720000000 1.0
C      1  0.5322150000000  0.4956030000000  0.4473900000000 1.0
END
