TITL C-2778435-5768-82 -0.000287677057570184 125000 -1004.06929919171 0 0 173 (C1) n - 1
REM
REM in /home/nfs/bkarasulu/CARBON/AIRSS/Generating-Clusters/REBO/Only-C1/SD-CG/HFTN-CG
REM
REM
REM
REM
REM
REM ./C.cell (11c1c37f851c82e70ff6c80c92926a4b)
REM
REM compiler GCC version 9.2.1 20190827 (Red Hat 9.2.1-1)
REM options -cpp -mtune=generic -march=x86-64 -g -O0 -fpre-include=/usr/include/finclude/math-vector-fortran.h
REM seed 1253402761 115775180 341926659 -672615295 1520373530 -2068138861 -595385750 -237391563 -356956468 1359950177 149549754 -1377474166 -354224920 -673313950 170181518 1794789765 1719297656 -1258145189 655577447 -1643094334 -698335976 721440336 670345913 922392278 -457975135 -1942032313 561097343 -937450157 1715459645 -1949347750 -112969452 -1876507452 1455391254
REM
CELL 1.54180   50.00000   50.00000   50.00000   90.00000   90.00000   90.00000
LATT -1
SFAC C  
C      1  0.4777570000000  0.5022360000000  0.4250020000000 1.0
C      1  0.4095850000000  0.5168570000000  0.4803660000000 1.0
C      1  0.5305780000000  0.3905760000000  0.4643000000000 1.0
C      1  0.5611980000000  0.4532120000000  0.4880090000000 1.0
C      1  0.4983040000000  0.5514650000000  0.4677460000000 1.0
C      1  0.5288760000000  0.5295920000000  0.3960590000000 1.0
C      1  0.6004120000000  0.5027280000000  0.5062190000000 1.0
C      1  0.4578040000000  0.5925960000000  0.4768410000000 1.0
C      1  0.4662990000000  0.5125980000000  0.4618000000000 1.0
C      1  0.4359010000000  0.4610380000000  0.5702500000000 1.0
C      1  0.4059250000000  0.4450280000000  0.4707360000000 1.0
C      1  0.4700460000000  0.4852760000000  0.5495810000000 1.0
C      1  0.4239430000000  0.5125950000000  0.4339630000000 1.0
C      1  0.6057440000000  0.4698440000000  0.5110150000000 1.0
C      1  0.5214720000000  0.5298060000000  0.5019020000000 1.0
C      1  0.4781120000000  0.5115010000000  0.6207730000000 1.0
C      1  0.5548090000000  0.4391690000000  0.5444950000000 1.0
C      1  0.4872310000000  0.4703130000000  0.5858210000000 1.0
C      1  0.5371860000000  0.5980700000000  0.4605800000000 1.0
C      1  0.4917940000000  0.4281670000000  0.5788960000000 1.0
C      1  0.4535320000000  0.5206230000000  0.4340650000000 1.0
C      1  0.5665710000000  0.5168930000000  0.4786040000000 1.0
C      1  0.4603600000000  0.4303900000000  0.4919950000000 1.0
C      1  0.4265870000000  0.4833790000000  0.5529310000000 1.0
C      1  0.4618420000000  0.5240960000000  0.5451530000000 1.0
C      1  0.4044660000000  0.5296570000000  0.5495210000000 1.0
C      1  0.4536630000000  0.5043230000000  0.5998760000000 1.0
C      1  0.5026400000000  0.4524910000000  0.4725340000000 1.0
C      1  0.4249050000000  0.5626420000000  0.4418970000000 1.0
C      1  0.5867420000000  0.5227370000000  0.5513090000000 1.0
C      1  0.5543260000000  0.5341340000000  0.4083620000000 1.0
C      1  0.4534210000000  0.4578700000000  0.4138860000000 1.0
C      1  0.4998020000000  0.5249170000000  0.5851580000000 1.0
C      1  0.4438940000000  0.4947250000000  0.3814350000000 1.0
C      1  0.4615720000000  0.4902770000000  0.5779420000000 1.0
C      1  0.5770590000000  0.4899870000000  0.4498310000000 1.0
C      1  0.5357210000000  0.5579450000000  0.5941360000000 1.0
C      1  0.4488520000000  0.5218850000000  0.4859200000000 1.0
C      1  0.5186030000000  0.4719670000000  0.5641680000000 1.0
C      1  0.6157760000000  0.4910830000000  0.4595550000000 1.0
C      1  0.4896010000000  0.4011840000000  0.5281830000000 1.0
C      1  0.4958430000000  0.5703070000000  0.5193960000000 1.0
C      1  0.5643780000000  0.4336820000000  0.4626950000000 1.0
C      1  0.5778290000000  0.5126890000000  0.5229680000000 1.0
C      1  0.5459550000000  0.4095350000000  0.5197550000000 1.0
C      1  0.5084230000000  0.4256790000000  0.4924580000000 1.0
C      1  0.5399540000000  0.5188650000000  0.5539670000000 1.0
C      1  0.4800710000000  0.4534660000000  0.4971790000000 1.0
C      1  0.5293600000000  0.5853160000000  0.4837370000000 1.0
C      1  0.4822990000000  0.5064130000000  0.5011390000000 1.0
C      1  0.6006870000000  0.4677770000000  0.4512030000000 1.0
C      1  0.4250330000000  0.5532470000000  0.5138820000000 1.0
C      1  0.5397320000000  0.4469960000000  0.5914170000000 1.0
C      1  0.5166890000000  0.4017140000000  0.5109820000000 1.0
C      1  0.4628700000000  0.4780370000000  0.4982090000000 1.0
C      1  0.4898770000000  0.5766910000000  0.4486530000000 1.0
C      1  0.4950910000000  0.5227360000000  0.4575200000000 1.0
C      1  0.5567080000000  0.4849650000000  0.4766940000000 1.0
C      1  0.6296460000000  0.4903320000000  0.5167560000000 1.0
C      1  0.5177420000000  0.5623830000000  0.5417950000000 1.0
C      1  0.4044340000000  0.4695100000000  0.5307170000000 1.0
C      1  0.5404560000000  0.5445030000000  0.5338380000000 1.0
C      1  0.4117660000000  0.5386250000000  0.4381780000000 1.0
C      1  0.5183190000000  0.5100570000000  0.4770980000000 1.0
C      1  0.4328670000000  0.4504000000000  0.5318310000000 1.0
C      1  0.5396370000000  0.4961510000000  0.5756680000000 1.0
C      1  0.4702830000000  0.4842330000000  0.4001110000000 1.0
C      1  0.4960070000000  0.5995100000000  0.4674420000000 1.0
C      1  0.5492320000000  0.4942080000000  0.5238990000000 1.0
C      1  0.4699840000000  0.5524610000000  0.5587000000000 1.0
C      1  0.4413970000000  0.4814500000000  0.5222450000000 1.0
C      1  0.4653470000000  0.4459610000000  0.5757720000000 1.0
C      1  0.4236230000000  0.4574090000000  0.4470690000000 1.0
C      1  0.4198570000000  0.4906110000000  0.4754350000000 1.0
C      1  0.5388250000000  0.5817330000000  0.4367280000000 1.0
C      1  0.5560870000000  0.4691050000000  0.5707740000000 1.0
C      1  0.5506430000000  0.5434160000000  0.4646630000000 1.0
C      1  0.5245650000000  0.4343900000000  0.4099440000000 1.0
C      1  0.4762420000000  0.5525010000000  0.4039430000000 1.0
C      1  0.5067270000000  0.4561010000000  0.4122380000000 1.0
C      1  0.5345560000000  0.5046000000000  0.4265950000000 1.0
C      1  0.4736430000000  0.5386520000000  0.6020630000000 1.0
C      1  0.5692690000000  0.5924150000000  0.5826330000000 1.0
C      1  0.4890800000000  0.4150460000000  0.4690200000000 1.0
C      1  0.4559650000000  0.5743170000000  0.4479820000000 1.0
C      1  0.5375880000000  0.4135140000000  0.4221080000000 1.0
C      1  0.5123090000000  0.4555580000000  0.5108490000000 1.0
C      1  0.3939620000000  0.5168760000000  0.5046970000000 1.0
C      1  0.4665490000000  0.4083720000000  0.4251060000000 1.0
C      1  0.4781380000000  0.4594760000000  0.5407670000000 1.0
C      1  0.4533390000000  0.5110270000000  0.5178410000000 1.0
C      1  0.4194180000000  0.4847220000000  0.4278150000000 1.0
C      1  0.5814020000000  0.4534250000000  0.5154360000000 1.0
C      1  0.5462630000000  0.4083600000000  0.4490220000000 1.0
C      1  0.4279470000000  0.5701580000000  0.4849360000000 1.0
C      1  0.4026950000000  0.5362990000000  0.5230920000000 1.0
C      1  0.4770060000000  0.6179420000000  0.4836370000000 1.0
C      1  0.5559440000000  0.4599660000000  0.4190300000000 1.0
C      1  0.5080750000000  0.4534730000000  0.5430710000000 1.0
C      1  0.4894020000000  0.5391220000000  0.5081470000000 1.0
C      1  0.4976560000000  0.4851750000000  0.4806820000000 1.0
C      1  0.5671740000000  0.5246640000000  0.5704000000000 1.0
C      1  0.4467360000000  0.5860540000000  0.5084920000000 1.0
C      1  0.5560810000000  0.5224930000000  0.4404550000000 1.0
C      1  0.4219520000000  0.4202810000000  0.4879150000000 1.0
C      1  0.4317450000000  0.5149150000000  0.5583820000000 1.0
C      1  0.5005960000000  0.5479760000000  0.5638530000000 1.0
C      1  0.5062990000000  0.5475950000000  0.4102180000000 1.0
C      1  0.5051170000000  0.6025990000000  0.5630770000000 1.0
C      1  0.4252500000000  0.5414920000000  0.4757220000000 1.0
C      1  0.4568990000000  0.5477990000000  0.5030340000000 1.0
C      1  0.5180620000000  0.5028760000000  0.3902760000000 1.0
C      1  0.5253110000000  0.4245510000000  0.5426290000000 1.0
C      1  0.5936740000000  0.4416990000000  0.4536540000000 1.0
C      1  0.5009300000000  0.4896130000000  0.6103130000000 1.0
C      1  0.5087170000000  0.5579730000000  0.6054370000000 1.0
C      1  0.5197710000000  0.5106550000000  0.5293050000000 1.0
C      1  0.4400410000000  0.5681310000000  0.5374720000000 1.0
C      1  0.4796160000000  0.5704570000000  0.5929920000000 1.0
C      1  0.5475970000000  0.5318000000000  0.5919150000000 1.0
C      1  0.4506250000000  0.4852740000000  0.4702380000000 1.0
C      1  0.5648910000000  0.4361850000000  0.5747020000000 1.0
C      1  0.4697530000000  0.5821520000000  0.5324870000000 1.0
C      1  0.4809450000000  0.3945210000000  0.4949840000000 1.0
C      1  0.5605570000000  0.4865800000000  0.4235620000000 1.0
C      1  0.5755780000000  0.4199330000000  0.5165490000000 1.0
C      1  0.5297040000000  0.5060970000000  0.6037800000000 1.0
C      1  0.4559790000000  0.4656350000000  0.4466390000000 1.0
C      1  0.5058960000000  0.5193560000000  0.4269830000000 1.0
C      1  0.4992170000000  0.4128640000000  0.5559700000000 1.0
C      1  0.5991870000000  0.5125010000000  0.4770800000000 1.0
C      1  0.4419610000000  0.4325360000000  0.4632620000000 1.0
C      1  0.6550380000000  0.4947990000000  0.5242590000000 1.0
C      1  0.4623180000000  0.4157310000000  0.5230050000000 1.0
C      1  0.4310700000000  0.4773620000000  0.4018380000000 1.0
C      1  0.5016880000000  0.4802760000000  0.3975230000000 1.0
C      1  0.4366530000000  0.5484350000000  0.5637940000000 1.0
C      1  0.5000810000000  0.4989070000000  0.5716520000000 1.0
C      1  0.4478120000000  0.4301210000000  0.4308040000000 1.0
C      1  0.5686760000000  0.5591330000000  0.5304730000000 1.0
C      1  0.5222270000000  0.4911410000000  0.4501090000000 1.0
C      1  0.4915020000000  0.5077740000000  0.5411420000000 1.0
C      1  0.5600430000000  0.5620790000000  0.4393240000000 1.0
C      1  0.5231790000000  0.4603150000000  0.4527610000000 1.0
C      1  0.5624370000000  0.4700370000000  0.5373690000000 1.0
C      1  0.4012340000000  0.4691030000000  0.4909810000000 1.0
C      1  0.5310820000000  0.4814390000000  0.4988900000000 1.0
C      1  0.5042620000000  0.5939790000000  0.5004080000000 1.0
C      1  0.4896260000000  0.6233090000000  0.5098200000000 1.0
C      1  0.4471010000000  0.3995420000000  0.4975930000000 1.0
C      1  0.4794330000000  0.5852160000000  0.5639170000000 1.0
C      1  0.4851120000000  0.4232700000000  0.4433520000000 1.0
C      1  0.4860250000000  0.4529690000000  0.4363800000000 1.0
C      1  0.3883460000000  0.4901220000000  0.5123950000000 1.0
C      1  0.5552290000000  0.5298480000000  0.5068890000000 1.0
C      1  0.4586570000000  0.5494270000000  0.4253900000000 1.0
C      1  0.5432600000000  0.4427170000000  0.5121350000000 1.0
C      1  0.5134820000000  0.4383960000000  0.5940590000000 1.0
C      1  0.5452790000000  0.5804310000000  0.5785310000000 1.0
C      1  0.4912260000000  0.4835600000000  0.4470280000000 1.0
C      1  0.5133260000000  0.5717500000000  0.4278600000000 1.0
C      1  0.4563820000000  0.4370710000000  0.5436250000000 1.0
C      1  0.5912050000000  0.5708170000000  0.5277930000000 1.0
C      1  0.4484440000000  0.5566210000000  0.5920130000000 1.0
C      1  0.4730920000000  0.5651380000000  0.4829020000000 1.0
C      1  0.5820270000000  0.5466350000000  0.4237230000000 1.0
C      1  0.5080210000000  0.5276720000000  0.6184190000000 1.0
C      1  0.5891870000000  0.5215320000000  0.4458340000000 1.0
C      1  0.5272750000000  0.5552050000000  0.4803150000000 1.0
C      1  0.5273210000000  0.5872640000000  0.5572990000000 1.0
C      1  0.5450200000000  0.4474370000000  0.4417260000000 1.0
C      1  0.4110940000000  0.4425490000000  0.5096450000000 1.0
C      1  0.5120670000000  0.3860780000000  0.4832070000000 1.0
END
