TITL C-2778431-5191-944 0.123516579269674 125000 -853.393293232453 0 0 149 (C1) n - 1
REM
REM in /home/nfs/bkarasulu/CARBON/AIRSS/Generating-Clusters/REBO/Only-C1/SD-CG/HFTN-CG
REM
REM
REM
REM
REM
REM ./C.cell (11c1c37f851c82e70ff6c80c92926a4b)
REM
REM compiler GCC version 9.2.1 20190827 (Red Hat 9.2.1-1)
REM options -cpp -mtune=generic -march=x86-64 -g -O0 -fpre-include=/usr/include/finclude/math-vector-fortran.h
REM seed 1641519596 -1024962829 416482823 653840522 1532260438 1247171502 -785849983 2113983109 1688887586 210228223 -1121616358 -978032349 1197349930 1888153992 -474262801 782904800 1224971907 1526114409 845932705 1966469831 -1876315404 -928518596 -2109950402 -1243426124 -896409163 659129173 -1883776712 1101271556 -721140155 -1733265721 -1293482159 -1672149900 2113882870
REM
CELL 1.54180   50.00000   50.00000   50.00000   90.00000   90.00000   90.00000
LATT -1
SFAC C  
C      1  0.4816600000000  0.5399250000000  0.4114500000000 1.0
C      1  0.5670100000000  0.5208870000000  0.4573750000000 1.0
C      1  0.4505960000000  0.5237050000000  0.4771910000000 1.0
C      1  0.5259540000000  0.5227670000000  0.4685500000000 1.0
C      1  0.4765840000000  0.4676410000000  0.5554230000000 1.0
C      1  0.4416430000000  0.4562190000000  0.4276230000000 1.0
C      1  0.4848740000000  0.5998680000000  0.5166620000000 1.0
C      1  0.4701410000000  0.4156720000000  0.4668390000000 1.0
C      1  0.5522050000000  0.5630680000000  0.4709310000000 1.0
C      1  0.4853820000000  0.4876980000000  0.5299020000000 1.0
C      1  0.4382320000000  0.4147780000000  0.5120690000000 1.0
C      1  0.4332070000000  0.5909160000000  0.4843270000000 1.0
C      1  0.3966930000000  0.4754900000000  0.4761610000000 1.0
C      1  0.4871640000000  0.4487160000000  0.5286130000000 1.0
C      1  0.5854460000000  0.4580060000000  0.5350530000000 1.0
C      1  0.6011560000000  0.5255520000000  0.4975610000000 1.0
C      1  0.4528400000000  0.5164950000000  0.5907060000000 1.0
C      1  0.5836710000000  0.4259780000000  0.4569210000000 1.0
C      1  0.5213080000000  0.4977510000000  0.4528620000000 1.0
C      1  0.5457080000000  0.4825230000000  0.4370510000000 1.0
C      1  0.4406290000000  0.4459520000000  0.5515920000000 1.0
C      1  0.4536430000000  0.5996520000000  0.4621820000000 1.0
C      1  0.4948130000000  0.5563600000000  0.5422930000000 1.0
C      1  0.4683030000000  0.4032420000000  0.5235580000000 1.0
C      1  0.5023180000000  0.4258020000000  0.4881720000000 1.0
C      1  0.4902230000000  0.3995860000000  0.4571240000000 1.0
C      1  0.5897340000000  0.5841280000000  0.5393170000000 1.0
C      1  0.4539260000000  0.5221100000000  0.4198270000000 1.0
C      1  0.4612590000000  0.5561960000000  0.5404230000000 1.0
C      1  0.5220810000000  0.4652410000000  0.3967920000000 1.0
C      1  0.5379210000000  0.5375010000000  0.4217040000000 1.0
C      1  0.4010210000000  0.4913220000000  0.5387780000000 1.0
C      1  0.5321190000000  0.4310430000000  0.5010450000000 1.0
C      1  0.5911020000000  0.4752810000000  0.5107520000000 1.0
C      1  0.5643460000000  0.4132880000000  0.4775420000000 1.0
C      1  0.4697960000000  0.5475530000000  0.4665610000000 1.0
C      1  0.4283830000000  0.4736940000000  0.5388160000000 1.0
C      1  0.5568030000000  0.4956530000000  0.5123210000000 1.0
C      1  0.5098890000000  0.4321560000000  0.4290270000000 1.0
C      1  0.6027080000000  0.4812580000000  0.4791740000000 1.0
C      1  0.5175160000000  0.4726520000000  0.5751650000000 1.0
C      1  0.5099440000000  0.5029090000000  0.5747680000000 1.0
C      1  0.4816690000000  0.4465030000000  0.4260090000000 1.0
C      1  0.5219550000000  0.5444070000000  0.5899200000000 1.0
C      1  0.4153510000000  0.4562720000000  0.4718590000000 1.0
C      1  0.5777700000000  0.5591010000000  0.5382290000000 1.0
C      1  0.5696080000000  0.4342790000000  0.5305780000000 1.0
C      1  0.5068650000000  0.5710990000000  0.4404500000000 1.0
C      1  0.5156430000000  0.4581540000000  0.5451280000000 1.0
C      1  0.5364130000000  0.5102580000000  0.5601440000000 1.0
C      1  0.4727540000000  0.5193780000000  0.5496980000000 1.0
C      1  0.5620000000000  0.5148370000000  0.5821030000000 1.0
C      1  0.5351520000000  0.4756730000000  0.5233490000000 1.0
C      1  0.4755930000000  0.4715220000000  0.4133720000000 1.0
C      1  0.4683500000000  0.5739120000000  0.4490450000000 1.0
C      1  0.5458690000000  0.4520430000000  0.4840300000000 1.0
C      1  0.5464140000000  0.4568940000000  0.5705910000000 1.0
C      1  0.5222710000000  0.4693930000000  0.4966640000000 1.0
C      1  0.4413540000000  0.4709450000000  0.4980660000000 1.0
C      1  0.4970720000000  0.5348120000000  0.5686750000000 1.0
C      1  0.4484290000000  0.4882430000000  0.4224440000000 1.0
C      1  0.5118110000000  0.4242420000000  0.5479530000000 1.0
C      1  0.4601530000000  0.4372780000000  0.4484970000000 1.0
C      1  0.5576640000000  0.5895220000000  0.4689390000000 1.0
C      1  0.5122430000000  0.5049760000000  0.3883940000000 1.0
C      1  0.5595120000000  0.4303060000000  0.4402590000000 1.0
C      1  0.4747110000000  0.4772110000000  0.4769790000000 1.0
C      1  0.4568470000000  0.5486580000000  0.5089340000000 1.0
C      1  0.5167830000000  0.4650030000000  0.4305830000000 1.0
C      1  0.5155010000000  0.5769150000000  0.4783060000000 1.0
C      1  0.4580330000000  0.5933920000000  0.5252200000000 1.0
C      1  0.5296640000000  0.5340680000000  0.5383410000000 1.0
C      1  0.5046950000000  0.5282230000000  0.6073530000000 1.0
C      1  0.5539370000000  0.4825000000000  0.5895860000000 1.0
C      1  0.4481020000000  0.5004880000000  0.4526520000000 1.0
C      1  0.4267030000000  0.5231080000000  0.5735460000000 1.0
C      1  0.3998760000000  0.5119250000000  0.5195530000000 1.0
C      1  0.5945700000000  0.4501350000000  0.4680800000000 1.0
C      1  0.4649380000000  0.4303520000000  0.5639180000000 1.0
C      1  0.5530290000000  0.5433800000000  0.4475840000000 1.0
C      1  0.4173600000000  0.5095100000000  0.4287080000000 1.0
C      1  0.5741980000000  0.4997990000000  0.4830690000000 1.0
C      1  0.4311890000000  0.5592730000000  0.4892100000000 1.0
C      1  0.4927820000000  0.4694440000000  0.5025490000000 1.0
C      1  0.5870420000000  0.4963550000000  0.5721920000000 1.0
C      1  0.5366620000000  0.4062100000000  0.4700530000000 1.0
C      1  0.5108670000000  0.4462710000000  0.4660340000000 1.0
C      1  0.4711250000000  0.5436080000000  0.5871200000000 1.0
C      1  0.4985810000000  0.4736870000000  0.4582280000000 1.0
C      1  0.5083030000000  0.5315420000000  0.4059290000000 1.0
C      1  0.4955620000000  0.4919970000000  0.4100920000000 1.0
C      1  0.5470720000000  0.4834460000000  0.5503330000000 1.0
C      1  0.5343310000000  0.5837360000000  0.5503420000000 1.0
C      1  0.4624360000000  0.4853410000000  0.5808460000000 1.0
C      1  0.5428050000000  0.5140120000000  0.3984050000000 1.0
C      1  0.4202970000000  0.5599250000000  0.5195050000000 1.0
C      1  0.4781860000000  0.4486780000000  0.5830700000000 1.0
C      1  0.4485680000000  0.5470930000000  0.5654820000000 1.0
C      1  0.4298220000000  0.4389070000000  0.4948520000000 1.0
C      1  0.4861330000000  0.5557470000000  0.4949220000000 1.0
C      1  0.4930450000000  0.5941040000000  0.4619700000000 1.0
C      1  0.4322830000000  0.5827990000000  0.5334500000000 1.0
C      1  0.4845310000000  0.5067150000000  0.5943870000000 1.0
C      1  0.5114880000000  0.5489790000000  0.5133100000000 1.0
C      1  0.4186470000000  0.5442040000000  0.4649760000000 1.0
C      1  0.4303640000000  0.4963700000000  0.4809430000000 1.0
C      1  0.5212010000000  0.3991600000000  0.4986970000000 1.0
C      1  0.5416390000000  0.4848720000000  0.4064140000000 1.0
C      1  0.4646640000000  0.5809740000000  0.4878720000000 1.0
C      1  0.6012940000000  0.5037640000000  0.4464250000000 1.0
C      1  0.4676670000000  0.5021130000000  0.4938080000000 1.0
C      1  0.4139820000000  0.4985810000000  0.5661430000000 1.0
C      1  0.6108830000000  0.5129260000000  0.4745060000000 1.0
C      1  0.5007990000000  0.4568300000000  0.5958970000000 1.0
C      1  0.4489470000000  0.4599430000000  0.4667640000000 1.0
C      1  0.5735500000000  0.4580920000000  0.4898870000000 1.0
C      1  0.4299190000000  0.5341190000000  0.4410830000000 1.0
C      1  0.4754480000000  0.5234390000000  0.5156290000000 1.0
C      1  0.4747680000000  0.5209800000000  0.4459480000000 1.0
C      1  0.4915050000000  0.6099480000000  0.4913900000000 1.0
C      1  0.5340740000000  0.4119370000000  0.5275400000000 1.0
C      1  0.3957520000000  0.5304470000000  0.4726460000000 1.0
C      1  0.5450220000000  0.4321530000000  0.5527400000000 1.0
C      1  0.4198530000000  0.5930430000000  0.5554980000000 1.0
C      1  0.5889900000000  0.5388120000000  0.5240300000000 1.0
C      1  0.5482060000000  0.5432110000000  0.5793140000000 1.0
C      1  0.4817400000000  0.4140420000000  0.5476110000000 1.0
C      1  0.4184610000000  0.5324350000000  0.5279970000000 1.0
C      1  0.5776340000000  0.4764040000000  0.5553650000000 1.0
C      1  0.5214830000000  0.5860890000000  0.5027590000000 1.0
C      1  0.4981510000000  0.5060660000000  0.4349100000000 1.0
C      1  0.5701010000000  0.4197000000000  0.5057050000000 1.0
C      1  0.5397130000000  0.5495560000000  0.4945780000000 1.0
C      1  0.4005330000000  0.5050860000000  0.4897760000000 1.0
C      1  0.5466940000000  0.5185160000000  0.4916270000000 1.0
C      1  0.5161930000000  0.5485870000000  0.4622420000000 1.0
C      1  0.4825280000000  0.5653380000000  0.4223100000000 1.0
C      1  0.5390690000000  0.4428670000000  0.4544030000000 1.0
C      1  0.4734570000000  0.4248970000000  0.4977830000000 1.0
C      1  0.4421680000000  0.5201030000000  0.5369000000000 1.0
C      1  0.5724280000000  0.4937420000000  0.4436560000000 1.0
C      1  0.5501810000000  0.5564420000000  0.5509370000000 1.0
C      1  0.4568950000000  0.4409860000000  0.5237960000000 1.0
C      1  0.5158340000000  0.4106290000000  0.4487300000000 1.0
C      1  0.5084920000000  0.5840100000000  0.5323410000000 1.0
C      1  0.5030460000000  0.5158540000000  0.5339850000000 1.0
C      1  0.5870410000000  0.5057400000000  0.5203190000000 1.0
C      1  0.4519620000000  0.4912220000000  0.5232540000000 1.0
C      1  0.4351030000000  0.4729470000000  0.5715690000000 1.0
END
