TITL C-2778431-5191-1320 -0.000463568557925432 125000 -1104.57573823431 0 0 189 (C1) n - 1
REM
REM in /home/nfs/bkarasulu/CARBON/AIRSS/Generating-Clusters/REBO/Only-C1/SD-CG/HFTN-CG
REM
REM
REM
REM
REM
REM ./C.cell (11c1c37f851c82e70ff6c80c92926a4b)
REM
REM compiler GCC version 9.2.1 20190827 (Red Hat 9.2.1-1)
REM options -cpp -mtune=generic -march=x86-64 -g -O0 -fpre-include=/usr/include/finclude/math-vector-fortran.h
REM seed 353150077 1944958619 668735857 -838446522 -1440056599 613278647 138637678 1526249950 -1574583491 1719416724 1765225531 -1799309070 818310506 1178022013 -1351080693 -535914267 57114175 1687730384 -533022891 1697530243 1604938658 1915733924 1558607812 -2095829968 1036344519 -947849866 992478410 -2098523118 -1684371265 788701511 767742751 -2110149095 -346398071
REM
CELL 1.54180   50.00000   50.00000   50.00000   90.00000   90.00000   90.00000
LATT -1
SFAC C  
C      1  0.5157710000000  0.5796670000000  0.4189530000000 1.0
C      1  0.6194440000000  0.4798150000000  0.4816360000000 1.0
C      1  0.5076150000000  0.4949810000000  0.5088500000000 1.0
C      1  0.5781820000000  0.5905150000000  0.4744600000000 1.0
C      1  0.4532960000000  0.5779130000000  0.4337750000000 1.0
C      1  0.4592450000000  0.4122990000000  0.5305190000000 1.0
C      1  0.4428640000000  0.5304660000000  0.4684990000000 1.0
C      1  0.5221630000000  0.4339070000000  0.4730800000000 1.0
C      1  0.4105210000000  0.4439080000000  0.5646920000000 1.0
C      1  0.5564390000000  0.4461180000000  0.5532030000000 1.0
C      1  0.5004840000000  0.4599450000000  0.5337390000000 1.0
C      1  0.4202800000000  0.5636180000000  0.4704450000000 1.0
C      1  0.5362080000000  0.5465330000000  0.5296810000000 1.0
C      1  0.4921350000000  0.5826320000000  0.4432540000000 1.0
C      1  0.5841890000000  0.4623970000000  0.5608620000000 1.0
C      1  0.4880760000000  0.4041630000000  0.5227930000000 1.0
C      1  0.4463240000000  0.5994060000000  0.4557770000000 1.0
C      1  0.5535890000000  0.4306630000000  0.4486260000000 1.0
C      1  0.4792830000000  0.6032360000000  0.4927000000000 1.0
C      1  0.5796960000000  0.5785410000000  0.5052700000000 1.0
C      1  0.5273520000000  0.5998170000000  0.4825510000000 1.0
C      1  0.4823400000000  0.5361930000000  0.4674540000000 1.0
C      1  0.5449850000000  0.4992230000000  0.4473480000000 1.0
C      1  0.4458580000000  0.4574180000000  0.5523500000000 1.0
C      1  0.4563410000000  0.5414400000000  0.4982240000000 1.0
C      1  0.4226700000000  0.4481120000000  0.5029450000000 1.0
C      1  0.4904520000000  0.5421960000000  0.4978680000000 1.0
C      1  0.3990780000000  0.5292760000000  0.4928360000000 1.0
C      1  0.5502510000000  0.4454780000000  0.5225850000000 1.0
C      1  0.4120420000000  0.4770170000000  0.5178810000000 1.0
C      1  0.5405020000000  0.4532740000000  0.4265960000000 1.0
C      1  0.5314900000000  0.4974120000000  0.5728870000000 1.0
C      1  0.4941350000000  0.3905160000000  0.4920200000000 1.0
C      1  0.4940620000000  0.4382190000000  0.4872810000000 1.0
C      1  0.4794190000000  0.6032400000000  0.5263630000000 1.0
C      1  0.5127790000000  0.5558960000000  0.4507260000000 1.0
C      1  0.5197000000000  0.3838900000000  0.5095310000000 1.0
C      1  0.4915090000000  0.5051470000000  0.4416780000000 1.0
C      1  0.4120400000000  0.5011920000000  0.4297010000000 1.0
C      1  0.5407910000000  0.5103020000000  0.6223490000000 1.0
C      1  0.4202260000000  0.4836990000000  0.4793640000000 1.0
C      1  0.4511950000000  0.5604300000000  0.4616170000000 1.0
C      1  0.5898520000000  0.3969530000000  0.5225050000000 1.0
C      1  0.5058820000000  0.3991380000000  0.4621770000000 1.0
C      1  0.4251110000000  0.4876450000000  0.4090260000000 1.0
C      1  0.5348750000000  0.4183890000000  0.5225610000000 1.0
C      1  0.4315210000000  0.4618510000000  0.5831080000000 1.0
C      1  0.4442570000000  0.4742010000000  0.4488630000000 1.0
C      1  0.4570370000000  0.4948300000000  0.5283980000000 1.0
C      1  0.5790060000000  0.4528500000000  0.4430880000000 1.0
C      1  0.5859270000000  0.5465950000000  0.4507090000000 1.0
C      1  0.4739820000000  0.5796150000000  0.5432070000000 1.0
C      1  0.5304350000000  0.4677640000000  0.5324870000000 1.0
C      1  0.5329840000000  0.4409780000000  0.4001020000000 1.0
C      1  0.4189830000000  0.5219550000000  0.4508700000000 1.0
C      1  0.5135950000000  0.5491190000000  0.4034010000000 1.0
C      1  0.4857170000000  0.4394810000000  0.4412530000000 1.0
C      1  0.4525420000000  0.4732660000000  0.4813840000000 1.0
C      1  0.5643720000000  0.5188170000000  0.4027470000000 1.0
C      1  0.5182810000000  0.4661180000000  0.6102090000000 1.0
C      1  0.3957590000000  0.4903760000000  0.4575270000000 1.0
C      1  0.4994290000000  0.6074790000000  0.4653120000000 1.0
C      1  0.5265580000000  0.4516740000000  0.5627300000000 1.0
C      1  0.4520630000000  0.5936270000000  0.4838760000000 1.0
C      1  0.5208350000000  0.5187870000000  0.4320880000000 1.0
C      1  0.4799220000000  0.4153160000000  0.4577940000000 1.0
C      1  0.4045540000000  0.5987810000000  0.5191890000000 1.0
C      1  0.4903680000000  0.4781420000000  0.5610890000000 1.0
C      1  0.5576080000000  0.4096660000000  0.5694940000000 1.0
C      1  0.5352940000000  0.6008820000000  0.5126100000000 1.0
C      1  0.4161050000000  0.4973460000000  0.5680990000000 1.0
C      1  0.5110550000000  0.5602150000000  0.5163400000000 1.0
C      1  0.5315280000000  0.5202330000000  0.4017770000000 1.0
C      1  0.4589300000000  0.4461510000000  0.4247940000000 1.0
C      1  0.3801110000000  0.4919900000000  0.4876590000000 1.0
C      1  0.5214170000000  0.4215830000000  0.4417250000000 1.0
C      1  0.5315290000000  0.5184030000000  0.4793750000000 1.0
C      1  0.5922650000000  0.5603870000000  0.4792780000000 1.0
C      1  0.5363250000000  0.4034430000000  0.5521380000000 1.0
C      1  0.5847660000000  0.5063120000000  0.4244600000000 1.0
C      1  0.4837030000000  0.4572490000000  0.4058010000000 1.0
C      1  0.4687400000000  0.5089760000000  0.4742230000000 1.0
C      1  0.4199430000000  0.4505130000000  0.5353930000000 1.0
C      1  0.5833150000000  0.5279450000000  0.4859260000000 1.0
C      1  0.4813130000000  0.5698370000000  0.4707980000000 1.0
C      1  0.4111430000000  0.4478380000000  0.4433000000000 1.0
C      1  0.4846630000000  0.4845330000000  0.4859660000000 1.0
C      1  0.5190270000000  0.5461850000000  0.4795320000000 1.0
C      1  0.5562860000000  0.5588680000000  0.4622380000000 1.0
C      1  0.5066770000000  0.4352730000000  0.4156870000000 1.0
C      1  0.4532840000000  0.4770980000000  0.5997570000000 1.0
C      1  0.4492830000000  0.4413870000000  0.4575060000000 1.0
C      1  0.5796850000000  0.4901640000000  0.5722730000000 1.0
C      1  0.5893330000000  0.5078830000000  0.5929700000000 1.0
C      1  0.4614950000000  0.5041160000000  0.6010540000000 1.0
C      1  0.4014210000000  0.4764610000000  0.5859490000000 1.0
C      1  0.5224180000000  0.5168130000000  0.5315080000000 1.0
C      1  0.5448130000000  0.4940880000000  0.5256300000000 1.0
C      1  0.4637900000000  0.4269400000000  0.4830350000000 1.0
C      1  0.5497040000000  0.5754760000000  0.5183110000000 1.0
C      1  0.5152170000000  0.4959760000000  0.4636940000000 1.0
C      1  0.5044910000000  0.4420210000000  0.5960450000000 1.0
C      1  0.5019880000000  0.5402470000000  0.5797830000000 1.0
C      1  0.5367440000000  0.5550700000000  0.4275930000000 1.0
C      1  0.4876140000000  0.4976610000000  0.5332900000000 1.0
C      1  0.5772210000000  0.5457060000000  0.5649060000000 1.0
C      1  0.4752000000000  0.5104690000000  0.3925340000000 1.0
C      1  0.3797550000000  0.4994880000000  0.5112530000000 1.0
C      1  0.5772200000000  0.4314280000000  0.5737400000000 1.0
C      1  0.4887890000000  0.5028780000000  0.5844050000000 1.0
C      1  0.5031100000000  0.5798910000000  0.4936740000000 1.0
C      1  0.5547990000000  0.4881450000000  0.4057200000000 1.0
C      1  0.4958380000000  0.4835530000000  0.3875830000000 1.0
C      1  0.4442410000000  0.5711830000000  0.5014170000000 1.0
C      1  0.4252940000000  0.5262100000000  0.5767480000000 1.0
C      1  0.4733040000000  0.4465610000000  0.5451600000000 1.0
C      1  0.5779780000000  0.4897270000000  0.5323360000000 1.0
C      1  0.4592620000000  0.5712030000000  0.5667020000000 1.0
C      1  0.4983620000000  0.6217380000000  0.5367600000000 1.0
C      1  0.5998010000000  0.5116370000000  0.5307210000000 1.0
C      1  0.4984410000000  0.4364370000000  0.5657090000000 1.0
C      1  0.4177270000000  0.5591520000000  0.5442240000000 1.0
C      1  0.5495870000000  0.5315850000000  0.4452970000000 1.0
C      1  0.4468240000000  0.4265700000000  0.5083630000000 1.0
C      1  0.4853150000000  0.5440380000000  0.4359430000000 1.0
C      1  0.4870560000000  0.5560430000000  0.5349900000000 1.0
C      1  0.5626540000000  0.4108260000000  0.5074760000000 1.0
C      1  0.5619580000000  0.4533320000000  0.4972930000000 1.0
C      1  0.4198760000000  0.5281750000000  0.5430370000000 1.0
C      1  0.5767150000000  0.5467070000000  0.5130970000000 1.0
C      1  0.5951940000000  0.5201250000000  0.4467010000000 1.0
C      1  0.4205470000000  0.4514850000000  0.4716810000000 1.0
C      1  0.4627020000000  0.5659270000000  0.4114650000000 1.0
C      1  0.4180200000000  0.5066060000000  0.5020500000000 1.0
C      1  0.5350090000000  0.4827250000000  0.4957220000000 1.0
C      1  0.4705290000000  0.5458480000000  0.5795300000000 1.0
C      1  0.5497890000000  0.5907850000000  0.4612460000000 1.0
C      1  0.5139660000000  0.3886200000000  0.5387520000000 1.0
C      1  0.4829190000000  0.5402520000000  0.4020430000000 1.0
C      1  0.5098960000000  0.5155700000000  0.5610210000000 1.0
C      1  0.5782910000000  0.4758240000000  0.4218970000000 1.0
C      1  0.5393120000000  0.4584730000000  0.4764670000000 1.0
C      1  0.5523310000000  0.4704560000000  0.4517080000000 1.0
C      1  0.4443700000000  0.4898500000000  0.5576260000000 1.0
C      1  0.5743500000000  0.4823700000000  0.5014180000000 1.0
C      1  0.5240750000000  0.5468860000000  0.5952420000000 1.0
C      1  0.5543610000000  0.5309050000000  0.5509000000000 1.0
C      1  0.5836000000000  0.4415910000000  0.4738730000000 1.0
C      1  0.4574580000000  0.5013340000000  0.4455090000000 1.0
C      1  0.5265190000000  0.4727150000000  0.5831020000000 1.0
C      1  0.4310550000000  0.5718550000000  0.5644550000000 1.0
C      1  0.6004360000000  0.4626150000000  0.4947220000000 1.0
C      1  0.5603180000000  0.4171140000000  0.4769740000000 1.0
C      1  0.4417130000000  0.5043780000000  0.3932840000000 1.0
C      1  0.5246460000000  0.6188710000000  0.5295500000000 1.0
C      1  0.5922050000000  0.4588050000000  0.5279480000000 1.0
C      1  0.3926060000000  0.5230910000000  0.4660460000000 1.0
C      1  0.4440760000000  0.5309100000000  0.4068980000000 1.0
C      1  0.5043240000000  0.4317610000000  0.5164490000000 1.0
C      1  0.4713860000000  0.4598870000000  0.5828610000000 1.0
C      1  0.5311730000000  0.4027400000000  0.4844310000000 1.0
C      1  0.5222450000000  0.4875200000000  0.4073850000000 1.0
C      1  0.3985680000000  0.5024960000000  0.5363370000000 1.0
C      1  0.4534990000000  0.4722160000000  0.5111330000000 1.0
C      1  0.4797320000000  0.5299830000000  0.5393660000000 1.0
C      1  0.4083030000000  0.5556750000000  0.4938470000000 1.0
C      1  0.4163210000000  0.5733900000000  0.5180730000000 1.0
C      1  0.5474680000000  0.5327820000000  0.6053870000000 1.0
C      1  0.5593420000000  0.5068930000000  0.4886760000000 1.0
C      1  0.5911620000000  0.5379110000000  0.5379180000000 1.0
C      1  0.6141230000000  0.5101620000000  0.5071130000000 1.0
C      1  0.5559260000000  0.5044520000000  0.5624510000000 1.0
C      1  0.4826110000000  0.4891080000000  0.4172620000000 1.0
C      1  0.6088230000000  0.5093630000000  0.4735860000000 1.0
C      1  0.4541920000000  0.4146100000000  0.5591640000000 1.0
C      1  0.4572960000000  0.5293950000000  0.4306530000000 1.0
C      1  0.4477310000000  0.5290210000000  0.5942180000000 1.0
C      1  0.5748420000000  0.5334890000000  0.5927050000000 1.0
C      1  0.5275620000000  0.4866070000000  0.6276840000000 1.0
C      1  0.5497060000000  0.5528930000000  0.4928000000000 1.0
C      1  0.5153070000000  0.4735280000000  0.4376450000000 1.0
C      1  0.4659520000000  0.5136760000000  0.5625260000000 1.0
C      1  0.4418120000000  0.5199900000000  0.5183060000000 1.0
C      1  0.5252050000000  0.6017360000000  0.4431960000000 1.0
C      1  0.4308920000000  0.4598260000000  0.4206360000000 1.0
C      1  0.4955090000000  0.4619110000000  0.4628630000000 1.0
C      1  0.5878630000000  0.4287930000000  0.5216440000000 1.0
C      1  0.4614260000000  0.4320770000000  0.5801340000000 1.0
C      1  0.3911870000000  0.4283500000000  0.5729600000000 1.0
END
