TITL C-2778427-5640-806 0.000432504691424498 125000 -138.262875615381 0 0 27 (C1) n - 1
REM
REM in /home/nfs/bkarasulu/CARBON/AIRSS/Generating-Clusters/REBO/Only-C1/SD-CG/HFTN-CG
REM
REM
REM
REM
REM
REM ./C.cell (11c1c37f851c82e70ff6c80c92926a4b)
REM
REM compiler GCC version 9.2.1 20190827 (Red Hat 9.2.1-1)
REM options -cpp -mtune=generic -march=x86-64 -g -O0 -fpre-include=/usr/include/finclude/math-vector-fortran.h
REM seed 1348152829 562608716 -232453963 -457489659 -592837728 -1298615627 1882731590 -64020015 378533238 969250259 -199135464 -747885145 -324658905 1852502098 -2119181219 -1316986569 -877596259 2021200313 -707062579 -567939749 250305668 1559963072 -1641473245 -1130605242 -197888176 -697157515 759570706 763023900 1105735271 -530208261 1111992212 1852602441 -644455832
REM
CELL 1.54180   50.00000   50.00000   50.00000   90.00000   90.00000   90.00000
LATT -1
SFAC C  
C      1  0.5912580000000  0.5635130000000  0.5173770000000 1.0
C      1  0.4845280000000  0.4462460000000  0.4820370000000 1.0
C      1  0.5659430000000  0.5314140000000  0.4778360000000 1.0
C      1  0.4201090000000  0.5503770000000  0.5271140000000 1.0
C      1  0.4646480000000  0.5164640000000  0.5230510000000 1.0
C      1  0.4982080000000  0.4383070000000  0.4600800000000 1.0
C      1  0.5291600000000  0.4869680000000  0.4772050000000 1.0
C      1  0.4676630000000  0.5292370000000  0.4606050000000 1.0
C      1  0.4414970000000  0.5095310000000  0.5793140000000 1.0
C      1  0.5002390000000  0.4928170000000  0.5444130000000 1.0
C      1  0.4889660000000  0.5008280000000  0.5148600000000 1.0
C      1  0.5842550000000  0.5529160000000  0.4619490000000 1.0
C      1  0.4389390000000  0.5318820000000  0.5321450000000 1.0
C      1  0.4816700000000  0.4716270000000  0.4985600000000 1.0
C      1  0.5152340000000  0.4520260000000  0.4434480000000 1.0
C      1  0.4394730000000  0.4541900000000  0.5221390000000 1.0
C      1  0.4997640000000  0.4965470000000  0.4846570000000 1.0
C      1  0.5228390000000  0.4948410000000  0.5591020000000 1.0
C      1  0.5021190000000  0.4991870000000  0.4381640000000 1.0
C      1  0.5834350000000  0.5531780000000  0.4943850000000 1.0
C      1  0.4627500000000  0.4689160000000  0.5240360000000 1.0
C      1  0.4510990000000  0.5088330000000  0.5536810000000 1.0
C      1  0.5487120000000  0.5105930000000  0.4775400000000 1.0
C      1  0.4706950000000  0.4845880000000  0.5462660000000 1.0
C      1  0.5381610000000  0.4649810000000  0.4923800000000 1.0
C      1  0.4876420000000  0.5104860000000  0.4602930000000 1.0
C      1  0.5209930000000  0.4795060000000  0.4473640000000 1.0
END
