TITL C-2778423-5760-266 -0.00429304988735326 125000 -844.955607059252 0 0 147 (C1) n - 1
REM
REM in /home/nfs/bkarasulu/CARBON/AIRSS/Generating-Clusters/REBO/Only-C1/SD-CG/HFTN-CG
REM
REM
REM
REM
REM
REM ./C.cell (11c1c37f851c82e70ff6c80c92926a4b)
REM
REM compiler GCC version 9.2.1 20190827 (Red Hat 9.2.1-1)
REM options -cpp -mtune=generic -march=x86-64 -g -O0 -fpre-include=/usr/include/finclude/math-vector-fortran.h
REM seed 348959145 -897294183 1990900006 -89266120 2006041894 -1913538255 1924549991 -949590820 -847841082 1199499914 1073937908 -1264426011 287318849 918675345 -913257867 -115739472 1395993556 1308008670 802102835 -1749599230 1492628821 1015027918 564873856 165012147 240470726 1918461183 -581381826 1672347474 -1698661743 -274139369 2060944116 1636116592 787152972
REM
CELL 1.54180   50.00000   50.00000   50.00000   90.00000   90.00000   90.00000
LATT -1
SFAC C  
C      1  0.6146230000000  0.4521940000000  0.5757860000000 1.0
C      1  0.4614070000000  0.5040170000000  0.3834340000000 1.0
C      1  0.5247210000000  0.5900950000000  0.5613720000000 1.0
C      1  0.5585870000000  0.4764970000000  0.4087480000000 1.0
C      1  0.4411880000000  0.5211260000000  0.4254660000000 1.0
C      1  0.4057570000000  0.4811050000000  0.5446620000000 1.0
C      1  0.5280300000000  0.5410230000000  0.3963500000000 1.0
C      1  0.5373210000000  0.4241740000000  0.5385480000000 1.0
C      1  0.5245570000000  0.4648500000000  0.4785720000000 1.0
C      1  0.4499450000000  0.4961260000000  0.5938070000000 1.0
C      1  0.5057250000000  0.6014240000000  0.5424740000000 1.0
C      1  0.5514210000000  0.5512930000000  0.3762030000000 1.0
C      1  0.4666140000000  0.5125380000000  0.5127010000000 1.0
C      1  0.5625160000000  0.4400630000000  0.4440610000000 1.0
C      1  0.4424130000000  0.4672210000000  0.4161790000000 1.0
C      1  0.5431270000000  0.4502780000000  0.5624840000000 1.0
C      1  0.5176310000000  0.4422960000000  0.4931050000000 1.0
C      1  0.4085440000000  0.5381580000000  0.4584830000000 1.0
C      1  0.4831950000000  0.4367780000000  0.5758940000000 1.0
C      1  0.5761410000000  0.5259560000000  0.4758720000000 1.0
C      1  0.5079460000000  0.5223690000000  0.5374020000000 1.0
C      1  0.5471300000000  0.5449210000000  0.5133420000000 1.0
C      1  0.5647190000000  0.4598190000000  0.5015140000000 1.0
C      1  0.5776650000000  0.5245250000000  0.5289090000000 1.0
C      1  0.4694560000000  0.5605130000000  0.5504150000000 1.0
C      1  0.5851680000000  0.4612600000000  0.4763130000000 1.0
C      1  0.5593140000000  0.4905520000000  0.5103760000000 1.0
C      1  0.4980050000000  0.5415070000000  0.4805650000000 1.0
C      1  0.4312500000000  0.4360220000000  0.4548340000000 1.0
C      1  0.5621880000000  0.4358320000000  0.4777990000000 1.0
C      1  0.4327180000000  0.4471010000000  0.5677450000000 1.0
C      1  0.5094790000000  0.4046370000000  0.5406940000000 1.0
C      1  0.5214900000000  0.5617090000000  0.4702120000000 1.0
C      1  0.5406530000000  0.4828980000000  0.5996120000000 1.0
C      1  0.5937410000000  0.5101360000000  0.4568370000000 1.0
C      1  0.4478190000000  0.5602880000000  0.5248220000000 1.0
C      1  0.5249340000000  0.5126670000000  0.5939740000000 1.0
C      1  0.4194420000000  0.5138320000000  0.4427510000000 1.0
C      1  0.4561950000000  0.5404940000000  0.5745900000000 1.0
C      1  0.5680040000000  0.4371530000000  0.5341320000000 1.0
C      1  0.6203210000000  0.5182790000000  0.4551210000000 1.0
C      1  0.5506580000000  0.5199530000000  0.3840260000000 1.0
C      1  0.5843280000000  0.5722680000000  0.4780500000000 1.0
C      1  0.4240510000000  0.4612960000000  0.4372880000000 1.0
C      1  0.4640730000000  0.5254170000000  0.6040570000000 1.0
C      1  0.5415030000000  0.4546800000000  0.5229410000000 1.0
C      1  0.4833070000000  0.6123010000000  0.5180240000000 1.0
C      1  0.5030530000000  0.5570610000000  0.5564650000000 1.0
C      1  0.4537340000000  0.4453290000000  0.4785030000000 1.0
C      1  0.4871580000000  0.5383460000000  0.4244300000000 1.0
C      1  0.4573100000000  0.6067000000000  0.4966210000000 1.0
C      1  0.4154620000000  0.4665990000000  0.5011650000000 1.0
C      1  0.4739750000000  0.5778480000000  0.5006680000000 1.0
C      1  0.4129080000000  0.4519780000000  0.5484060000000 1.0
C      1  0.5896050000000  0.4595520000000  0.5731830000000 1.0
C      1  0.5139810000000  0.3953800000000  0.4785480000000 1.0
C      1  0.4995600000000  0.4960750000000  0.4285430000000 1.0
C      1  0.4314770000000  0.5578670000000  0.4742090000000 1.0
C      1  0.5565080000000  0.4983030000000  0.5743520000000 1.0
C      1  0.3936640000000  0.4876920000000  0.5128670000000 1.0
C      1  0.5757410000000  0.4662520000000  0.4316800000000 1.0
C      1  0.4638380000000  0.5943220000000  0.4658350000000 1.0
C      1  0.5211970000000  0.5502250000000  0.5287270000000 1.0
C      1  0.5009370000000  0.4122390000000  0.5723110000000 1.0
C      1  0.4962160000000  0.5141390000000  0.6070810000000 1.0
C      1  0.4679390000000  0.4724410000000  0.4788270000000 1.0
C      1  0.4889480000000  0.5456510000000  0.5814250000000 1.0
C      1  0.4374920000000  0.5247770000000  0.5554390000000 1.0
C      1  0.5646000000000  0.5724690000000  0.5037110000000 1.0
C      1  0.4545930000000  0.5639450000000  0.4534720000000 1.0
C      1  0.4406690000000  0.5763810000000  0.4982010000000 1.0
C      1  0.5650340000000  0.5938540000000  0.6006470000000 1.0
C      1  0.5283650000000  0.4990510000000  0.5459400000000 1.0
C      1  0.4390060000000  0.4712000000000  0.5838710000000 1.0
C      1  0.4161570000000  0.5124200000000  0.5031080000000 1.0
C      1  0.4289000000000  0.5245350000000  0.4805980000000 1.0
C      1  0.5434050000000  0.5302660000000  0.5730340000000 1.0
C      1  0.5803110000000  0.5420910000000  0.5039600000000 1.0
C      1  0.5518150000000  0.5150750000000  0.4976210000000 1.0
C      1  0.4990670000000  0.4349280000000  0.5394930000000 1.0
C      1  0.5347510000000  0.4177110000000  0.4831470000000 1.0
C      1  0.5304550000000  0.5926580000000  0.4748980000000 1.0
C      1  0.4900180000000  0.4832920000000  0.6086870000000 1.0
C      1  0.5272850000000  0.5099360000000  0.4757080000000 1.0
C      1  0.5147360000000  0.5442120000000  0.4208980000000 1.0
C      1  0.3962650000000  0.5167890000000  0.5303910000000 1.0
C      1  0.5334030000000  0.4263050000000  0.4518350000000 1.0
C      1  0.5202710000000  0.4832640000000  0.3823620000000 1.0
C      1  0.4794300000000  0.4571440000000  0.4505830000000 1.0
C      1  0.4649370000000  0.4725980000000  0.5641720000000 1.0
C      1  0.4511690000000  0.5075170000000  0.4662260000000 1.0
C      1  0.4818940000000  0.4039910000000  0.5209160000000 1.0
C      1  0.4594850000000  0.4953990000000  0.5395460000000 1.0
C      1  0.5749840000000  0.5081180000000  0.4305220000000 1.0
C      1  0.4346850000000  0.4201610000000  0.4852890000000 1.0
C      1  0.5583880000000  0.5151230000000  0.5463600000000 1.0
C      1  0.5046870000000  0.4751210000000  0.4044360000000 1.0
C      1  0.5234130000000  0.4782420000000  0.5229030000000 1.0
C      1  0.4574500000000  0.5446670000000  0.4302060000000 1.0
C      1  0.5454160000000  0.5957620000000  0.5003920000000 1.0
C      1  0.4889930000000  0.5019060000000  0.5519050000000 1.0
C      1  0.4759050000000  0.5119490000000  0.4428880000000 1.0
C      1  0.4165590000000  0.4412550000000  0.5225390000000 1.0
C      1  0.4820420000000  0.5663990000000  0.4730150000000 1.0
C      1  0.4333300000000  0.4199130000000  0.5139730000000 1.0
C      1  0.5185230000000  0.4858510000000  0.5737040000000 1.0
C      1  0.4941340000000  0.5282020000000  0.5095010000000 1.0
C      1  0.5787060000000  0.5746080000000  0.4516470000000 1.0
C      1  0.5337990000000  0.5576440000000  0.5679790000000 1.0
C      1  0.5882130000000  0.4785130000000  0.4539130000000 1.0
C      1  0.4867700000000  0.3992180000000  0.4942110000000 1.0
C      1  0.4454050000000  0.5309950000000  0.5282680000000 1.0
C      1  0.5336980000000  0.5526270000000  0.4431020000000 1.0
C      1  0.4463070000000  0.4667910000000  0.5149890000000 1.0
C      1  0.4587510000000  0.4338560000000  0.5569040000000 1.0
C      1  0.5579060000000  0.5704250000000  0.4345560000000 1.0
C      1  0.4814350000000  0.5178020000000  0.4732260000000 1.0
C      1  0.4305290000000  0.4939600000000  0.5261230000000 1.0
C      1  0.4348470000000  0.4805440000000  0.4793690000000 1.0
C      1  0.5405260000000  0.4651380000000  0.4561430000000 1.0
C      1  0.5479920000000  0.5087320000000  0.4297880000000 1.0
C      1  0.4123310000000  0.5124290000000  0.5565400000000 1.0
C      1  0.4536950000000  0.4979940000000  0.4095220000000 1.0
C      1  0.5024620000000  0.4327050000000  0.4440680000000 1.0
C      1  0.4574050000000  0.4153730000000  0.5300850000000 1.0
C      1  0.5470140000000  0.5319470000000  0.4623060000000 1.0
C      1  0.4998230000000  0.4474930000000  0.5135620000000 1.0
C      1  0.5144610000000  0.4480960000000  0.5610190000000 1.0
C      1  0.5139530000000  0.5992320000000  0.5106740000000 1.0
C      1  0.4931110000000  0.4741400000000  0.5349330000000 1.0
C      1  0.4195310000000  0.4858250000000  0.4521810000000 1.0
C      1  0.4724270000000  0.4755340000000  0.4273410000000 1.0
C      1  0.5471910000000  0.5843790000000  0.5829320000000 1.0
C      1  0.4873640000000  0.4072690000000  0.4610170000000 1.0
C      1  0.5164740000000  0.5684470000000  0.5032230000000 1.0
C      1  0.5137260000000  0.4891140000000  0.4937770000000 1.0
C      1  0.4784840000000  0.5072360000000  0.5788890000000 1.0
C      1  0.5469140000000  0.4923220000000  0.3878540000000 1.0
C      1  0.5363130000000  0.4642050000000  0.4262690000000 1.0
C      1  0.5113930000000  0.4496050000000  0.4184820000000 1.0
C      1  0.4910160000000  0.4694270000000  0.5821750000000 1.0
C      1  0.4836110000000  0.5798200000000  0.5301200000000 1.0
C      1  0.4641530000000  0.4266970000000  0.4527600000000 1.0
C      1  0.5249470000000  0.5046310000000  0.4433130000000 1.0
C      1  0.4839990000000  0.4932810000000  0.4919040000000 1.0
C      1  0.4659660000000  0.4564860000000  0.5339280000000 1.0
C      1  0.5630990000000  0.4673470000000  0.5704250000000 1.0
END
