TITL C-2778437-8639-1185 -0.00294434265180946 125000 -332.341722067949 0 0 58 (C1) n - 1
REM
REM in /home/nfs/bkarasulu/CARBON/AIRSS/Generating-Clusters/REBO/Only-C1/SD-CG/HFTN-CG
REM
REM
REM
REM
REM
REM ./C.cell (11c1c37f851c82e70ff6c80c92926a4b)
REM
REM compiler GCC version 9.2.1 20190827 (Red Hat 9.2.1-1)
REM options -cpp -mtune=generic -march=x86-64 -g -O0 -fpre-include=/usr/include/finclude/math-vector-fortran.h
REM seed 1683829873 1738135259 553326154 -1680549339 1695301764 -891961164 1629315161 689225039 1426331504 945927401 315504315 -1165925741 -1958259807 -1632259673 1427288743 236443459 1687198461 1826752340 -421650413 -1283801948 20585233 -2145694369 -11086183 -575504181 -1577463796 948278636 784401248 258240097 62975888 -2066020426 -1113027460 -176400057 98913791
REM
CELL 1.54180   50.00000   50.00000   50.00000   90.00000   90.00000   90.00000
LATT -1
SFAC C  
C      1  0.4587810000000  0.4565020000000  0.5465460000000 1.0
C      1  0.5150310000000  0.4805750000000  0.4609430000000 1.0
C      1  0.4677340000000  0.4988130000000  0.4331720000000 1.0
C      1  0.5446560000000  0.4862470000000  0.4565760000000 1.0
C      1  0.4771230000000  0.5668080000000  0.5681100000000 1.0
C      1  0.4732610000000  0.4710740000000  0.5713800000000 1.0
C      1  0.4335950000000  0.4943530000000  0.4758050000000 1.0
C      1  0.4562160000000  0.5474390000000  0.5696860000000 1.0
C      1  0.5040720000000  0.4953400000000  0.4842520000000 1.0
C      1  0.5062420000000  0.5102540000000  0.5338450000000 1.0
C      1  0.5302850000000  0.4321120000000  0.4654630000000 1.0
C      1  0.4615590000000  0.5639740000000  0.4928780000000 1.0
C      1  0.5130430000000  0.4482010000000  0.4525430000000 1.0
C      1  0.4953210000000  0.4701850000000  0.4352340000000 1.0
C      1  0.5601110000000  0.4687910000000  0.4733440000000 1.0
C      1  0.4867490000000  0.5336300000000  0.4369690000000 1.0
C      1  0.4972710000000  0.4183030000000  0.5293330000000 1.0
C      1  0.5398500000000  0.4689270000000  0.5267440000000 1.0
C      1  0.4387810000000  0.4947120000000  0.4493040000000 1.0
C      1  0.5096420000000  0.5687750000000  0.5140010000000 1.0
C      1  0.4645410000000  0.4655940000000  0.4400940000000 1.0
C      1  0.4783790000000  0.4605050000000  0.5121640000000 1.0
C      1  0.5196080000000  0.5490200000000  0.4951620000000 1.0
C      1  0.4728360000000  0.4991140000000  0.4819100000000 1.0
C      1  0.5228550000000  0.4902300000000  0.5119050000000 1.0
C      1  0.5222560000000  0.5540300000000  0.4688500000000 1.0
C      1  0.4629300000000  0.4956720000000  0.5513070000000 1.0
C      1  0.5667360000000  0.4777320000000  0.5366400000000 1.0
C      1  0.5480210000000  0.4446430000000  0.4842960000000 1.0
C      1  0.4870850000000  0.4826310000000  0.5308250000000 1.0
C      1  0.4557250000000  0.5452490000000  0.4744690000000 1.0
C      1  0.4991830000000  0.5222470000000  0.5620220000000 1.0
C      1  0.4675370000000  0.5203900000000  0.4596860000000 1.0
C      1  0.5153540000000  0.5214900000000  0.5030710000000 1.0
C      1  0.5157880000000  0.4739280000000  0.5473040000000 1.0
C      1  0.5800160000000  0.4978550000000  0.5229130000000 1.0
C      1  0.5209960000000  0.5685210000000  0.5447650000000 1.0
C      1  0.4589920000000  0.4545050000000  0.4643130000000 1.0
C      1  0.4751470000000  0.4356420000000  0.5295740000000 1.0
C      1  0.5230560000000  0.4226990000000  0.5213480000000 1.0
C      1  0.5240700000000  0.5091820000000  0.4204850000000 1.0
C      1  0.4709710000000  0.4668300000000  0.4866790000000 1.0
C      1  0.4773610000000  0.5749460000000  0.5111770000000 1.0
C      1  0.4990840000000  0.4991410000000  0.4209020000000 1.0
C      1  0.5483720000000  0.5037950000000  0.4347320000000 1.0
C      1  0.5045240000000  0.5525540000000  0.5652980000000 1.0
C      1  0.4471780000000  0.4805660000000  0.5270990000000 1.0
C      1  0.5773150000000  0.4654700000000  0.5590920000000 1.0
C      1  0.5092000000000  0.5472090000000  0.4462700000000 1.0
C      1  0.4891600000000  0.5805150000000  0.5414890000000 1.0
C      1  0.5925600000000  0.5168630000000  0.5099460000000 1.0
C      1  0.4461180000000  0.4934510000000  0.5027550000000 1.0
C      1  0.4990510000000  0.4887540000000  0.5683040000000 1.0
C      1  0.5724880000000  0.5136360000000  0.4271000000000 1.0
C      1  0.4788220000000  0.5320090000000  0.4105200000000 1.0
C      1  0.4669360000000  0.5225140000000  0.5630400000000 1.0
C      1  0.4302280000000  0.5530150000000  0.5747390000000 1.0
C      1  0.5401940000000  0.4428400000000  0.5116260000000 1.0
END
