TITL C-2778425-5191-1371 8.13987869558393e-05 125000 -113.40386072862 0 0 22 (C1) n - 1
REM
REM in /home/nfs/bkarasulu/CARBON/AIRSS/Generating-Clusters/REBO/Only-C1/SD-CG/HFTN-CG
REM
REM
REM
REM
REM
REM ./C.cell (11c1c37f851c82e70ff6c80c92926a4b)
REM
REM compiler GCC version 9.2.1 20190827 (Red Hat 9.2.1-1)
REM options -cpp -mtune=generic -march=x86-64 -g -O0 -fpre-include=/usr/include/finclude/math-vector-fortran.h
REM seed -1264723736 -545593084 1213618605 -569113266 703253809 1572682962 -252177371 -754216132 859812352 -118754513 -538352113 -1175000647 -1013995752 308856235 -2042491895 -513150407 -207670931 -487150801 652838352 -1317394704 -1630520021 136887583 -1202287841 -1715583076 -732179205 -976488232 -2042582859 -517770731 -778497287 -1712920943 493111349 -447759649 1319679809
REM
CELL 1.54180   50.00000   50.00000   50.00000   90.00000   90.00000   90.00000
LATT -1
SFAC C  
C      1  0.5183140000000  0.4660030000000  0.4801180000000 1.0
C      1  0.5198200000000  0.4600930000000  0.5059450000000 1.0
C      1  0.5323550000000  0.4543170000000  0.5537320000000 1.0
C      1  0.4813280000000  0.4579010000000  0.5422050000000 1.0
C      1  0.5499720000000  0.5386260000000  0.5516030000000 1.0
C      1  0.4666580000000  0.5149350000000  0.4683690000000 1.0
C      1  0.5019830000000  0.4953000000000  0.4379090000000 1.0
C      1  0.5149650000000  0.5194780000000  0.5859070000000 1.0
C      1  0.5094720000000  0.5000660000000  0.4099740000000 1.0
C      1  0.5231340000000  0.5194440000000  0.5598420000000 1.0
C      1  0.5487080000000  0.5407830000000  0.5212110000000 1.0
C      1  0.4597350000000  0.4996210000000  0.5229120000000 1.0
C      1  0.5250420000000  0.5229180000000  0.5253130000000 1.0
C      1  0.4796540000000  0.5139970000000  0.4438670000000 1.0
C      1  0.4299610000000  0.5071220000000  0.5124460000000 1.0
C      1  0.4749540000000  0.5291970000000  0.4192110000000 1.0
C      1  0.4801430000000  0.4867640000000  0.5358520000000 1.0
C      1  0.5123170000000  0.4781220000000  0.4570880000000 1.0
C      1  0.5139310000000  0.4654980000000  0.5357720000000 1.0
C      1  0.5091320000000  0.4979400000000  0.5387800000000 1.0
C      1  0.4553920000000  0.5113680000000  0.4928210000000 1.0
C      1  0.4930310000000  0.5205050000000  0.3991240000000 1.0
END
