TITL C-2778429-3646-1350 0.305542783024287 125000 -328.231572953794 0 0 57 (C1) n - 1
REM
REM in /home/nfs/bkarasulu/CARBON/AIRSS/Generating-Clusters/REBO/Only-C1/SD-CG/HFTN-CG
REM
REM
REM
REM
REM
REM ./C.cell (11c1c37f851c82e70ff6c80c92926a4b)
REM
REM compiler GCC version 9.2.1 20190827 (Red Hat 9.2.1-1)
REM options -cpp -mtune=generic -march=x86-64 -g -O0 -fpre-include=/usr/include/finclude/math-vector-fortran.h
REM seed 244336576 1742133764 667948743 233503184 777621575 -1986613730 1178405110 -401310858 -1119289525 226000040 16033366 -639951912 2046184523 -66269913 981101767 -136403029 430758978 -1232869462 -438474844 -651279437 -210007452 1848316778 -441526931 -144512324 1578786498 812049397 396827671 1325135561 1543340243 -2134076419 699098495 302491033 1194432259
REM
CELL 1.54180   50.00000   50.00000   50.00000   90.00000   90.00000   90.00000
LATT -1
SFAC C  
C      1  0.5357170000000  0.5558140000000  0.5356860000000 1.0
C      1  0.5358810000000  0.4377200000000  0.5161110000000 1.0
C      1  0.4703130000000  0.5687000000000  0.4442090000000 1.0
C      1  0.5084660000000  0.5060730000000  0.4355460000000 1.0
C      1  0.5637230000000  0.4815880000000  0.5113040000000 1.0
C      1  0.4430400000000  0.4767830000000  0.4564010000000 1.0
C      1  0.5099910000000  0.4951200000000  0.5357130000000 1.0
C      1  0.5476920000000  0.4684910000000  0.5542110000000 1.0
C      1  0.5006260000000  0.5215310000000  0.5228150000000 1.0
C      1  0.4582350000000  0.4871210000000  0.4354770000000 1.0
C      1  0.4334240000000  0.4959450000000  0.4772660000000 1.0
C      1  0.4718740000000  0.5343830000000  0.4793860000000 1.0
C      1  0.4884740000000  0.5102290000000  0.5676680000000 1.0
C      1  0.4786850000000  0.5027270000000  0.4272240000000 1.0
C      1  0.5009540000000  0.4615990000000  0.5159830000000 1.0
C      1  0.4444610000000  0.5195950000000  0.5374040000000 1.0
C      1  0.5361740000000  0.4684380000000  0.4857240000000 1.0
C      1  0.5280780000000  0.5412710000000  0.5596190000000 1.0
C      1  0.5685320000000  0.5137840000000  0.4722200000000 1.0
C      1  0.5692300000000  0.5872990000000  0.5061680000000 1.0
C      1  0.4471840000000  0.5529860000000  0.5045400000000 1.0
C      1  0.5103470000000  0.5040470000000  0.4685950000000 1.0
C      1  0.5239600000000  0.4784270000000  0.5095230000000 1.0
C      1  0.5537790000000  0.4591220000000  0.5277590000000 1.0
C      1  0.4595900000000  0.5040510000000  0.5554410000000 1.0
C      1  0.4837000000000  0.5524390000000  0.4613040000000 1.0
C      1  0.4378690000000  0.4564720000000  0.4804720000000 1.0
C      1  0.4559730000000  0.5456500000000  0.5310230000000 1.0
C      1  0.5430470000000  0.5179880000000  0.5666520000000 1.0
C      1  0.5476920000000  0.5715640000000  0.5093460000000 1.0
C      1  0.4531860000000  0.4645460000000  0.5162730000000 1.0
C      1  0.5133780000000  0.5513550000000  0.4622460000000 1.0
C      1  0.4281330000000  0.4785000000000  0.5049280000000 1.0
C      1  0.5259760000000  0.4792670000000  0.4594250000000 1.0
C      1  0.5069690000000  0.4331770000000  0.5261800000000 1.0
C      1  0.5541960000000  0.5257500000000  0.4516860000000 1.0
C      1  0.4995580000000  0.5354530000000  0.5602890000000 1.0
C      1  0.5168740000000  0.5472500000000  0.5136920000000 1.0
C      1  0.5346910000000  0.4385690000000  0.4859710000000 1.0
C      1  0.4319680000000  0.5093010000000  0.5138560000000 1.0
C      1  0.5135520000000  0.4515910000000  0.4451230000000 1.0
C      1  0.4739890000000  0.4304890000000  0.5177350000000 1.0
C      1  0.5255840000000  0.5597770000000  0.4872560000000 1.0
C      1  0.4835780000000  0.5466920000000  0.5373360000000 1.0
C      1  0.5223340000000  0.4771080000000  0.4260780000000 1.0
C      1  0.4700420000000  0.4556120000000  0.5404390000000 1.0
C      1  0.5275450000000  0.5146920000000  0.4940870000000 1.0
C      1  0.5545780000000  0.5046090000000  0.4958190000000 1.0
C      1  0.4834730000000  0.4807130000000  0.5508630000000 1.0
C      1  0.4932690000000  0.5179080000000  0.4920320000000 1.0
C      1  0.4772260000000  0.4652550000000  0.4986750000000 1.0
C      1  0.4537230000000  0.4342640000000  0.4903680000000 1.0
C      1  0.5340340000000  0.4932920000000  0.5561020000000 1.0
C      1  0.5270070000000  0.5319250000000  0.4455440000000 1.0
C      1  0.4857850000000  0.4358840000000  0.4831050000000 1.0
C      1  0.4415040000000  0.5261020000000  0.4857520000000 1.0
C      1  0.5111350000000  0.4339640000000  0.4683510000000 1.0
END
