TITL C-2778428-5639-1148 -0.000889138854476125 125000 -237.314018072494 0 0 42 (C1) n - 1
REM
REM in /home/nfs/bkarasulu/CARBON/AIRSS/Generating-Clusters/REBO/Only-C1/SD-CG/HFTN-CG
REM
REM
REM
REM
REM
REM ./C.cell (11c1c37f851c82e70ff6c80c92926a4b)
REM
REM compiler GCC version 9.2.1 20190827 (Red Hat 9.2.1-1)
REM options -cpp -mtune=generic -march=x86-64 -g -O0 -fpre-include=/usr/include/finclude/math-vector-fortran.h
REM seed 1799181793 851134018 1668884782 95148742 -168581986 1554591405 -830943608 419438555 -691672672 -427699026 1133362308 -1920011501 1783058004 466039744 -1900285406 -1420818563 -1505840304 992718094 -1852996087 -1942133818 1496477063 -193315803 1069773997 417517963 1517208104 897773416 -2127218969 1842962189 1722920571 -335354051 -571831511 -1579133734 1528287925
REM
CELL 1.54180   50.00000   50.00000   50.00000   90.00000   90.00000   90.00000
LATT -1
SFAC C  
C      1  0.5327990000000  0.4887830000000  0.5496620000000 1.0
C      1  0.5473460000000  0.5584080000000  0.4862890000000 1.0
C      1  0.5298380000000  0.4592780000000  0.5618110000000 1.0
C      1  0.4882940000000  0.4692840000000  0.5254940000000 1.0
C      1  0.4902640000000  0.5285630000000  0.4902220000000 1.0
C      1  0.4618090000000  0.5465590000000  0.5117000000000 1.0
C      1  0.4861010000000  0.5460280000000  0.5293020000000 1.0
C      1  0.5585450000000  0.5387310000000  0.4691070000000 1.0
C      1  0.5412510000000  0.4716540000000  0.5040250000000 1.0
C      1  0.5088090000000  0.5092170000000  0.4500130000000 1.0
C      1  0.5477040000000  0.5183720000000  0.5097830000000 1.0
C      1  0.4767680000000  0.4428220000000  0.4673460000000 1.0
C      1  0.5421240000000  0.4947420000000  0.5242640000000 1.0
C      1  0.4781840000000  0.4961160000000  0.5445990000000 1.0
C      1  0.5388440000000  0.4385120000000  0.5465670000000 1.0
C      1  0.5499250000000  0.4554430000000  0.4685810000000 1.0
C      1  0.4382570000000  0.5544400000000  0.5248350000000 1.0
C      1  0.4486800000000  0.4713740000000  0.4931530000000 1.0
C      1  0.5541600000000  0.4847330000000  0.4759940000000 1.0
C      1  0.4611120000000  0.5162890000000  0.4980870000000 1.0
C      1  0.5385230000000  0.5462710000000  0.5113750000000 1.0
C      1  0.5053120000000  0.5299450000000  0.4677180000000 1.0
C      1  0.4431770000000  0.5143870000000  0.4696610000000 1.0
C      1  0.5022620000000  0.4762170000000  0.5545080000000 1.0
C      1  0.4157800000000  0.5170070000000  0.4657640000000 1.0
C      1  0.5127100000000  0.5358980000000  0.5567530000000 1.0
C      1  0.4655370000000  0.5591870000000  0.4835100000000 1.0
C      1  0.4763130000000  0.4707250000000  0.4556770000000 1.0
C      1  0.5177220000000  0.5518730000000  0.5299520000000 1.0
C      1  0.4732960000000  0.5854810000000  0.4808960000000 1.0
C      1  0.5575590000000  0.5124310000000  0.4817520000000 1.0
C      1  0.5327510000000  0.4377750000000  0.4834540000000 1.0
C      1  0.4551350000000  0.4436390000000  0.4875360000000 1.0
C      1  0.5054560000000  0.4546260000000  0.5069860000000 1.0
C      1  0.4601540000000  0.5409530000000  0.4638910000000 1.0
C      1  0.4842190000000  0.5241350000000  0.5517400000000 1.0
C      1  0.4539710000000  0.4854810000000  0.4678500000000 1.0
C      1  0.4627890000000  0.4892730000000  0.5150300000000 1.0
C      1  0.5022280000000  0.4367340000000  0.4785360000000 1.0
C      1  0.5355250000000  0.4415640000000  0.5166760000000 1.0
C      1  0.5025350000000  0.4830300000000  0.4587990000000 1.0
C      1  0.5162340000000  0.4740200000000  0.4810990000000 1.0
END
