TITL C-2778434-4341-426 -5.13451526959157e-09 125000 -99.2249456130809 0 0 19 (C1) n - 1
REM
REM in /home/nfs/bkarasulu/CARBON/AIRSS/Generating-Clusters/REBO/Only-C1/SD-CG/HFTN-CG
REM
REM
REM
REM
REM
REM ./C.cell (11c1c37f851c82e70ff6c80c92926a4b)
REM
REM compiler GCC version 9.2.1 20190827 (Red Hat 9.2.1-1)
REM options -cpp -mtune=generic -march=x86-64 -g -O0 -fpre-include=/usr/include/finclude/math-vector-fortran.h
REM seed 1638485989 298616239 -1155537633 -1139839292 -285399208 535658365 1190912154 -1590242035 1742783067 -1235002836 1408354393 1651595598 2076309823 -734605158 -582191986 -666572275 1033503159 1113573856 -672494467 -1950576827 1745902940 995259325 1061000819 -1016808811 -415642693 543868375 186967838 -758980039 1129978461 786081491 -1429940138 -1130882364 -1741689221
REM
CELL 1.54180   50.00000   50.00000   50.00000   90.00000   90.00000   90.00000
LATT -1
SFAC C  
C      1  0.4791810000000  0.5079570000000  0.5401850000000 1.0
C      1  0.4812670000000  0.4947670000000  0.4726970000000 1.0
C      1  0.4641900000000  0.4796250000000  0.4953190000000 1.0
C      1  0.5502530000000  0.4607960000000  0.4582330000000 1.0
C      1  0.5099190000000  0.5015060000000  0.4830740000000 1.0
C      1  0.5284740000000  0.4811620000000  0.4708480000000 1.0
C      1  0.5290850000000  0.5582410000000  0.4669620000000 1.0
C      1  0.5186260000000  0.4534520000000  0.4571890000000 1.0
C      1  0.5077810000000  0.4964630000000  0.5147520000000 1.0
C      1  0.4611270000000  0.5140630000000  0.5603310000000 1.0
C      1  0.4914320000000  0.4472210000000  0.4564020000000 1.0
C      1  0.5031390000000  0.5242540000000  0.5323020000000 1.0
C      1  0.5147510000000  0.5482040000000  0.5246250000000 1.0
C      1  0.5220160000000  0.5533610000000  0.4982630000000 1.0
C      1  0.5280530000000  0.4797920000000  0.5248810000000 1.0
C      1  0.4763180000000  0.4855580000000  0.5201330000000 1.0
C      1  0.4440670000000  0.5198330000000  0.5793690000000 1.0
C      1  0.4719710000000  0.4643470000000  0.4673190000000 1.0
C      1  0.5183520000000  0.5293980000000  0.4771150000000 1.0
END
