TITL C-2778436-5916-136 -0.00168291003223319 125000 -282.806167005044 0 0 49 (C1) n - 1
REM
REM in /home/nfs/bkarasulu/CARBON/AIRSS/Generating-Clusters/REBO/Only-C1/SD-CG/HFTN-CG
REM
REM
REM
REM
REM
REM ./C.cell (11c1c37f851c82e70ff6c80c92926a4b)
REM
REM compiler GCC version 9.2.1 20190827 (Red Hat 9.2.1-1)
REM options -cpp -mtune=generic -march=x86-64 -g -O0 -fpre-include=/usr/include/finclude/math-vector-fortran.h
REM seed 1054807804 255159922 -796724780 758577307 -513077090 -1388568124 1878294080 -1274404168 728484432 -248437068 -1835681431 1575604292 -450979454 -538462052 -1997774632 588815330 -1873609314 1051259689 939748806 1321048793 -1832160349 1656883440 377531737 -1576638850 390127518 -1539252390 433330489 -647452640 248732782 -1401779842 -961114252 -2100567567 -155518901
REM
CELL 1.54180   50.00000   50.00000   50.00000   90.00000   90.00000   90.00000
LATT -1
SFAC C  
C      1  0.4656560000000  0.5447500000000  0.4965000000000 1.0
C      1  0.5802590000000  0.4863770000000  0.5215750000000 1.0
C      1  0.5207980000000  0.4597960000000  0.5567900000000 1.0
C      1  0.5390390000000  0.4777980000000  0.5029690000000 1.0
C      1  0.5003550000000  0.4417970000000  0.5452040000000 1.0
C      1  0.5776090000000  0.5023430000000  0.4994690000000 1.0
C      1  0.5067070000000  0.4811220000000  0.5261060000000 1.0
C      1  0.5204230000000  0.5441560000000  0.5414850000000 1.0
C      1  0.5139880000000  0.5522930000000  0.4660070000000 1.0
C      1  0.4491550000000  0.4514940000000  0.4806910000000 1.0
C      1  0.4473470000000  0.5004200000000  0.5352670000000 1.0
C      1  0.4743220000000  0.4432150000000  0.4635430000000 1.0
C      1  0.5186730000000  0.5967290000000  0.4867960000000 1.0
C      1  0.5088660000000  0.4885340000000  0.4692860000000 1.0
C      1  0.4437330000000  0.5462710000000  0.5190860000000 1.0
C      1  0.5491320000000  0.4621300000000  0.5534650000000 1.0
C      1  0.4519690000000  0.4945020000000  0.5073610000000 1.0
C      1  0.4726120000000  0.4963800000000  0.4292010000000 1.0
C      1  0.5065800000000  0.5724730000000  0.4853540000000 1.0
C      1  0.4938750000000  0.5229490000000  0.4307330000000 1.0
C      1  0.4891870000000  0.5620830000000  0.5054590000000 1.0
C      1  0.4438700000000  0.5312920000000  0.4506390000000 1.0
C      1  0.5596790000000  0.5148340000000  0.4822650000000 1.0
C      1  0.4449010000000  0.5094320000000  0.4340790000000 1.0
C      1  0.4805950000000  0.5002710000000  0.4692370000000 1.0
C      1  0.4720320000000  0.4563190000000  0.5437550000000 1.0
C      1  0.5363790000000  0.5216280000000  0.5369630000000 1.0
C      1  0.5089450000000  0.4285680000000  0.5188340000000 1.0
C      1  0.5053970000000  0.4574790000000  0.4639770000000 1.0
C      1  0.4657880000000  0.5122700000000  0.4897780000000 1.0
C      1  0.4563140000000  0.4672340000000  0.5019060000000 1.0
C      1  0.5353210000000  0.5351990000000  0.4731690000000 1.0
C      1  0.5556640000000  0.4739480000000  0.4818910000000 1.0
C      1  0.4657080000000  0.5429900000000  0.4643180000000 1.0
C      1  0.5236150000000  0.4546750000000  0.5139310000000 1.0
C      1  0.5285390000000  0.5035220000000  0.5163100000000 1.0
C      1  0.5001740000000  0.5586790000000  0.5309750000000 1.0
C      1  0.4965180000000  0.5034540000000  0.4060520000000 1.0
C      1  0.4393370000000  0.5275240000000  0.5387110000000 1.0
C      1  0.5304280000000  0.5039470000000  0.4739930000000 1.0
C      1  0.4789120000000  0.4730330000000  0.4482810000000 1.0
C      1  0.5658250000000  0.4843390000000  0.5461460000000 1.0
C      1  0.4607150000000  0.4817620000000  0.5537570000000 1.0
C      1  0.5068400000000  0.4869190000000  0.5592510000000 1.0
C      1  0.4839560000000  0.4592060000000  0.5132630000000 1.0
C      1  0.4916130000000  0.5406940000000  0.4519280000000 1.0
C      1  0.4814960000000  0.4937040000000  0.5697440000000 1.0
C      1  0.4953930000000  0.4394050000000  0.4901860000000 1.0
C      1  0.5557620000000  0.5100590000000  0.5543150000000 1.0
END
