TITL C-2778425-5191-545 0.0148863049476862 125000 -259.99419315483 0 0 46 (C1) n - 1
REM
REM in /home/nfs/bkarasulu/CARBON/AIRSS/Generating-Clusters/REBO/Only-C1/SD-CG/HFTN-CG
REM
REM
REM
REM
REM
REM ./C.cell (11c1c37f851c82e70ff6c80c92926a4b)
REM
REM compiler GCC version 9.2.1 20190827 (Red Hat 9.2.1-1)
REM options -cpp -mtune=generic -march=x86-64 -g -O0 -fpre-include=/usr/include/finclude/math-vector-fortran.h
REM seed -874400621 -164135141 -1882613659 990550872 1657648637 -1812062362 -1534104086 2124754530 -1351474791 -1042997507 830327670 -447228757 -761290031 1221959910 409580975 912013466 -1622497450 -471604772 -998938207 -1038710368 -1029808562 1482183737 -879504312 1835185411 1996172603 -473477965 -1681219523 -172317994 -971187441 -1503287262 882682040 -46903517 1171500839
REM
CELL 1.54180   50.00000   50.00000   50.00000   90.00000   90.00000   90.00000
LATT -1
SFAC C  
C      1  0.5456950000000  0.5368490000000  0.5222240000000 1.0
C      1  0.4478110000000  0.5094290000000  0.5636410000000 1.0
C      1  0.4678710000000  0.4741880000000  0.4965360000000 1.0
C      1  0.4581200000000  0.5520910000000  0.5345980000000 1.0
C      1  0.5448980000000  0.4310410000000  0.4946110000000 1.0
C      1  0.4842970000000  0.5210840000000  0.5096490000000 1.0
C      1  0.5251180000000  0.4283220000000  0.5131530000000 1.0
C      1  0.4763120000000  0.5499400000000  0.5144020000000 1.0
C      1  0.5401700000000  0.5424470000000  0.4729880000000 1.0
C      1  0.4872680000000  0.4541700000000  0.4943610000000 1.0
C      1  0.5603770000000  0.4931260000000  0.4760180000000 1.0
C      1  0.5008830000000  0.4924140000000  0.5470220000000 1.0
C      1  0.5122990000000  0.5010490000000  0.4535840000000 1.0
C      1  0.5051140000000  0.4731300000000  0.4448670000000 1.0
C      1  0.5265540000000  0.5563350000000  0.4916180000000 1.0
C      1  0.4488270000000  0.4707960000000  0.5166370000000 1.0
C      1  0.4786880000000  0.4758860000000  0.4294410000000 1.0
C      1  0.4783720000000  0.5039360000000  0.5359040000000 1.0
C      1  0.5099380000000  0.5032380000000  0.4847560000000 1.0
C      1  0.5009220000000  0.4532000000000  0.4711930000000 1.0
C      1  0.4757840000000  0.4205050000000  0.5624520000000 1.0
C      1  0.4458710000000  0.5341700000000  0.4638070000000 1.0
C      1  0.4323190000000  0.5565560000000  0.4652330000000 1.0
C      1  0.5277230000000  0.5435110000000  0.5507050000000 1.0
C      1  0.5028190000000  0.5244350000000  0.4325640000000 1.0
C      1  0.4559110000000  0.4625510000000  0.5429470000000 1.0
C      1  0.4763390000000  0.5012170000000  0.4860210000000 1.0
C      1  0.5241950000000  0.5109610000000  0.5432120000000 1.0
C      1  0.5163800000000  0.5229880000000  0.5111560000000 1.0
C      1  0.4904640000000  0.5947840000000  0.4984330000000 1.0
C      1  0.5487250000000  0.5029810000000  0.5218760000000 1.0
C      1  0.4745430000000  0.4404800000000  0.5434470000000 1.0
C      1  0.5607690000000  0.5184970000000  0.4627460000000 1.0
C      1  0.4508680000000  0.4823950000000  0.5625750000000 1.0
C      1  0.4601930000000  0.5105120000000  0.4623000000000 1.0
C      1  0.4490960000000  0.5344840000000  0.5534170000000 1.0
C      1  0.5269850000000  0.4491340000000  0.4546030000000 1.0
C      1  0.5503090000000  0.4449740000000  0.4701480000000 1.0
C      1  0.5337540000000  0.5252130000000  0.4454070000000 1.0
C      1  0.5398230000000  0.4934010000000  0.4963540000000 1.0
C      1  0.5257610000000  0.5644940000000  0.5245010000000 1.0
C      1  0.5050190000000  0.4660340000000  0.5431170000000 1.0
C      1  0.4607640000000  0.4939760000000  0.4394330000000 1.0
C      1  0.4985420000000  0.5693390000000  0.5061970000000 1.0
C      1  0.5689750000000  0.4667870000000  0.4693370000000 1.0
C      1  0.4985320000000  0.4429500000000  0.5208080000000 1.0
END
