TITL C-2778430-5657-1161 0.0020524931875661 125000 -1144.44040137875 0 0 197 (C1) n - 1
REM
REM in /home/nfs/bkarasulu/CARBON/AIRSS/Generating-Clusters/REBO/Only-C1/SD-CG/HFTN-CG
REM
REM
REM
REM
REM
REM ./C.cell (11c1c37f851c82e70ff6c80c92926a4b)
REM
REM compiler GCC version 9.2.1 20190827 (Red Hat 9.2.1-1)
REM options -cpp -mtune=generic -march=x86-64 -g -O0 -fpre-include=/usr/include/finclude/math-vector-fortran.h
REM seed -1230192724 1637141885 -1283541746 -1809876624 -395253399 1920161809 1548459786 -668079194 -1022113296 -1719800562 746612172 -2077429782 1104476437 -354968831 368362116 128799735 69779139 -1302011711 1835496578 -295727556 112517769 -119693632 -1820667169 -1676484549 -101300775 -178253342 1404462403 -888661565 522988246 1408584904 -1957334049 514360040 -528484651
REM
CELL 1.54180   50.00000   50.00000   50.00000   90.00000   90.00000   90.00000
LATT -1
SFAC C  
C      1  0.4533400000000  0.5606650000000  0.4175880000000 1.0
C      1  0.5193650000000  0.3816220000000  0.5181890000000 1.0
C      1  0.4982310000000  0.4837610000000  0.5026050000000 1.0
C      1  0.4609340000000  0.4392470000000  0.4250430000000 1.0
C      1  0.5067580000000  0.4194450000000  0.5207050000000 1.0
C      1  0.5394070000000  0.5336040000000  0.5632460000000 1.0
C      1  0.4677540000000  0.5014450000000  0.4840360000000 1.0
C      1  0.4512160000000  0.4565780000000  0.4882660000000 1.0
C      1  0.4006500000000  0.4927410000000  0.4501010000000 1.0
C      1  0.5059410000000  0.5450790000000  0.4523980000000 1.0
C      1  0.5836060000000  0.5361010000000  0.5060650000000 1.0
C      1  0.4068960000000  0.5559970000000  0.4996970000000 1.0
C      1  0.4139260000000  0.4395600000000  0.5382400000000 1.0
C      1  0.4447960000000  0.4787860000000  0.5916890000000 1.0
C      1  0.4347370000000  0.3978700000000  0.4780230000000 1.0
C      1  0.5771160000000  0.5656900000000  0.4803580000000 1.0
C      1  0.4638780000000  0.5326500000000  0.5836350000000 1.0
C      1  0.5053060000000  0.4634030000000  0.5574890000000 1.0
C      1  0.4514570000000  0.4582100000000  0.4044100000000 1.0
C      1  0.6046910000000  0.4867840000000  0.4942570000000 1.0
C      1  0.5462120000000  0.4436510000000  0.4511430000000 1.0
C      1  0.4612800000000  0.4957160000000  0.4139230000000 1.0
C      1  0.5348140000000  0.4545380000000  0.5627900000000 1.0
C      1  0.6003320000000  0.4667350000000  0.4682100000000 1.0
C      1  0.4328180000000  0.4702110000000  0.5545590000000 1.0
C      1  0.4396880000000  0.4867860000000  0.4915980000000 1.0
C      1  0.5046850000000  0.5679060000000  0.4306640000000 1.0
C      1  0.4138070000000  0.5530030000000  0.4607660000000 1.0
C      1  0.4052680000000  0.5240970000000  0.5414330000000 1.0
C      1  0.4530320000000  0.5644760000000  0.5783000000000 1.0
C      1  0.5672530000000  0.5175360000000  0.5397640000000 1.0
C      1  0.4347600000000  0.5309570000000  0.5673930000000 1.0
C      1  0.5021840000000  0.4390150000000  0.6074040000000 1.0
C      1  0.5200040000000  0.6121500000000  0.4908700000000 1.0
C      1  0.4629080000000  0.5814560000000  0.5576990000000 1.0
C      1  0.5169690000000  0.5487640000000  0.3978460000000 1.0
C      1  0.5327080000000  0.5390950000000  0.4233630000000 1.0
C      1  0.5484140000000  0.5956480000000  0.4894250000000 1.0
C      1  0.5492420000000  0.4649380000000  0.5385120000000 1.0
C      1  0.5218060000000  0.4357490000000  0.4195190000000 1.0
C      1  0.4571080000000  0.4399200000000  0.5172000000000 1.0
C      1  0.5542990000000  0.4497660000000  0.4897230000000 1.0
C      1  0.5258330000000  0.5719750000000  0.4984960000000 1.0
C      1  0.4207380000000  0.4726220000000  0.4679660000000 1.0
C      1  0.5995080000000  0.4629920000000  0.5167580000000 1.0
C      1  0.5172770000000  0.5504250000000  0.5488320000000 1.0
C      1  0.5335490000000  0.5787190000000  0.4279330000000 1.0
C      1  0.5054070000000  0.5355780000000  0.5839570000000 1.0
C      1  0.4850010000000  0.5554040000000  0.4078820000000 1.0
C      1  0.5001270000000  0.4076210000000  0.4376610000000 1.0
C      1  0.4627710000000  0.6013160000000  0.5128790000000 1.0
C      1  0.5038610000000  0.4947080000000  0.5516560000000 1.0
C      1  0.5066200000000  0.4243230000000  0.5765900000000 1.0
C      1  0.5901470000000  0.5065580000000  0.5179240000000 1.0
C      1  0.5316440000000  0.5030680000000  0.4735980000000 1.0
C      1  0.4107080000000  0.5107910000000  0.5683700000000 1.0
C      1  0.5650370000000  0.4785470000000  0.5048070000000 1.0
C      1  0.5037310000000  0.6030800000000  0.5104820000000 1.0
C      1  0.4928370000000  0.4642380000000  0.5883410000000 1.0
C      1  0.4950380000000  0.5611810000000  0.5699190000000 1.0
C      1  0.4858730000000  0.5347380000000  0.5002540000000 1.0
C      1  0.4551340000000  0.5901130000000  0.4301620000000 1.0
C      1  0.5621280000000  0.4320200000000  0.5812430000000 1.0
C      1  0.4200810000000  0.4865110000000  0.5777870000000 1.0
C      1  0.4728230000000  0.4871590000000  0.6008150000000 1.0
C      1  0.4203570000000  0.4243270000000  0.5159360000000 1.0
C      1  0.5691460000000  0.4897080000000  0.4762180000000 1.0
C      1  0.5879610000000  0.4378880000000  0.5077660000000 1.0
C      1  0.4343190000000  0.5398440000000  0.4923330000000 1.0
C      1  0.5098680000000  0.5984000000000  0.5436000000000 1.0
C      1  0.5372820000000  0.4547720000000  0.3988260000000 1.0
C      1  0.5770480000000  0.5158190000000  0.5712080000000 1.0
C      1  0.5419940000000  0.4648990000000  0.5916300000000 1.0
C      1  0.4752430000000  0.4284670000000  0.5892450000000 1.0
C      1  0.4854740000000  0.5901220000000  0.4409650000000 1.0
C      1  0.5869540000000  0.5664590000000  0.5492310000000 1.0
C      1  0.5292990000000  0.4049360000000  0.4330140000000 1.0
C      1  0.4430340000000  0.5087770000000  0.4538070000000 1.0
C      1  0.4121270000000  0.4719610000000  0.5289960000000 1.0
C      1  0.4832020000000  0.5858500000000  0.4691090000000 1.0
C      1  0.4289900000000  0.5466280000000  0.5313650000000 1.0
C      1  0.6020740000000  0.5181850000000  0.4835320000000 1.0
C      1  0.6025890000000  0.5507980000000  0.4741910000000 1.0
C      1  0.4339730000000  0.5435340000000  0.4364930000000 1.0
C      1  0.4532930000000  0.4191840000000  0.5681170000000 1.0
C      1  0.3967220000000  0.5000180000000  0.4836200000000 1.0
C      1  0.4473680000000  0.6106250000000  0.4127130000000 1.0
C      1  0.5541830000000  0.5462940000000  0.5350590000000 1.0
C      1  0.5505220000000  0.4264750000000  0.5513690000000 1.0
C      1  0.5176500000000  0.5146740000000  0.3956640000000 1.0
C      1  0.5247710000000  0.4073430000000  0.5475610000000 1.0
C      1  0.5056780000000  0.5262950000000  0.6136170000000 1.0
C      1  0.4706870000000  0.4940600000000  0.5155400000000 1.0
C      1  0.5175760000000  0.5229700000000  0.4929990000000 1.0
C      1  0.5006490000000  0.4700180000000  0.3963770000000 1.0
C      1  0.4891990000000  0.5228810000000  0.4081260000000 1.0
C      1  0.4500210000000  0.4087400000000  0.5166290000000 1.0
C      1  0.5550400000000  0.5554580000000  0.5044940000000 1.0
C      1  0.4524970000000  0.4009670000000  0.4533920000000 1.0
C      1  0.4514720000000  0.5404070000000  0.4647020000000 1.0
C      1  0.5648470000000  0.5846860000000  0.5346100000000 1.0
C      1  0.4554700000000  0.5286240000000  0.4062380000000 1.0
C      1  0.5271250000000  0.4841340000000  0.3840470000000 1.0
C      1  0.5291920000000  0.4633530000000  0.5150720000000 1.0
C      1  0.4977270000000  0.5722290000000  0.5161100000000 1.0
C      1  0.4659290000000  0.4498290000000  0.5452890000000 1.0
C      1  0.5597300000000  0.5161600000000  0.6009320000000 1.0
C      1  0.4250690000000  0.5000890000000  0.5163090000000 1.0
C      1  0.4629570000000  0.4568580000000  0.5769780000000 1.0
C      1  0.5515310000000  0.3986350000000  0.4492890000000 1.0
C      1  0.5369750000000  0.4995870000000  0.4195030000000 1.0
C      1  0.4967400000000  0.3882700000000  0.5432180000000 1.0
C      1  0.4619960000000  0.4824790000000  0.5457250000000 1.0
C      1  0.5330000000000  0.4331730000000  0.5963840000000 1.0
C      1  0.4319570000000  0.4369160000000  0.5618320000000 1.0
C      1  0.5747920000000  0.5901120000000  0.5034650000000 1.0
C      1  0.5837360000000  0.4406670000000  0.4764300000000 1.0
C      1  0.4014810000000  0.5234240000000  0.5081010000000 1.0
C      1  0.4886190000000  0.4304390000000  0.4218240000000 1.0
C      1  0.5206740000000  0.5094800000000  0.5723720000000 1.0
C      1  0.5344610000000  0.5752490000000  0.5373230000000 1.0
C      1  0.4168610000000  0.5152010000000  0.4324920000000 1.0
C      1  0.5999470000000  0.5268520000000  0.4504960000000 1.0
C      1  0.5800890000000  0.4556850000000  0.5842770000000 1.0
C      1  0.4818510000000  0.5648220000000  0.5382210000000 1.0
C      1  0.4271670000000  0.4280660000000  0.4693150000000 1.0
C      1  0.4886400000000  0.5811740000000  0.5882270000000 1.0
C      1  0.4750640000000  0.5070700000000  0.5653720000000 1.0
C      1  0.5843880000000  0.5488110000000  0.5697510000000 1.0
C      1  0.5929260000000  0.4956970000000  0.4517440000000 1.0
C      1  0.4137710000000  0.5755270000000  0.5266990000000 1.0
C      1  0.5370120000000  0.6133090000000  0.4636330000000 1.0
C      1  0.4809890000000  0.5095300000000  0.4381770000000 1.0
C      1  0.5386730000000  0.5733590000000  0.5850130000000 1.0
C      1  0.4763000000000  0.6039290000000  0.5390170000000 1.0
C      1  0.5317990000000  0.4747330000000  0.4831260000000 1.0
C      1  0.5580230000000  0.4819070000000  0.3979910000000 1.0
C      1  0.5567110000000  0.5463300000000  0.5868460000000 1.0
C      1  0.5747800000000  0.4873520000000  0.4239720000000 1.0
C      1  0.5642410000000  0.5164150000000  0.4328590000000 1.0
C      1  0.4040670000000  0.4698600000000  0.4975670000000 1.0
C      1  0.5153750000000  0.4432300000000  0.4522610000000 1.0
C      1  0.4737140000000  0.4742610000000  0.3946780000000 1.0
C      1  0.4411690000000  0.4174020000000  0.4335130000000 1.0
C      1  0.4902530000000  0.4273130000000  0.5488340000000 1.0
C      1  0.4128860000000  0.4642400000000  0.4359120000000 1.0
C      1  0.5131280000000  0.4753700000000  0.4231610000000 1.0
C      1  0.5622670000000  0.4708180000000  0.4505090000000 1.0
C      1  0.5697660000000  0.4240830000000  0.5243060000000 1.0
C      1  0.5245510000000  0.5898070000000  0.5730400000000 1.0
C      1  0.4662720000000  0.4035230000000  0.5435450000000 1.0
C      1  0.4926410000000  0.4798480000000  0.4433900000000 1.0
C      1  0.4232280000000  0.5611430000000  0.5779000000000 1.0
C      1  0.4256210000000  0.5762760000000  0.4785930000000 1.0
C      1  0.4881660000000  0.3928720000000  0.5103300000000 1.0
C      1  0.4151730000000  0.4333750000000  0.4396040000000 1.0
C      1  0.5794730000000  0.4752850000000  0.5369900000000 1.0
C      1  0.4281510000000  0.4730610000000  0.4106970000000 1.0
C      1  0.4578520000000  0.5461240000000  0.5123560000000 1.0
C      1  0.5083690000000  0.4216350000000  0.4740630000000 1.0
C      1  0.4306080000000  0.5050170000000  0.4068330000000 1.0
C      1  0.4505480000000  0.4490740000000  0.4558920000000 1.0
C      1  0.4760630000000  0.5182930000000  0.5352080000000 1.0
C      1  0.5589370000000  0.5182490000000  0.4630730000000 1.0
C      1  0.5476310000000  0.4967410000000  0.5265350000000 1.0
C      1  0.4174940000000  0.5212990000000  0.4717930000000 1.0
C      1  0.5838040000000  0.5416960000000  0.4260570000000 1.0
C      1  0.5313780000000  0.5121930000000  0.6193260000000 1.0
C      1  0.4423480000000  0.5762060000000  0.5082810000000 1.0
C      1  0.4657560000000  0.6056700000000  0.4836140000000 1.0
C      1  0.5584830000000  0.4512530000000  0.4226550000000 1.0
C      1  0.5625510000000  0.4202350000000  0.4622330000000 1.0
C      1  0.4865210000000  0.5220820000000  0.4680150000000 1.0
C      1  0.4835060000000  0.4022610000000  0.4639870000000 1.0
C      1  0.4132130000000  0.4389750000000  0.4924980000000 1.0
C      1  0.5559340000000  0.5564670000000  0.4343890000000 1.0
C      1  0.5036550000000  0.5330270000000  0.5288960000000 1.0
C      1  0.5549210000000  0.5492620000000  0.4650600000000 1.0
C      1  0.4617490000000  0.4806200000000  0.4578320000000 1.0
C      1  0.5915640000000  0.5641980000000  0.5178420000000 1.0
C      1  0.5266170000000  0.5496260000000  0.4770750000000 1.0
C      1  0.5285280000000  0.4921250000000  0.5960920000000 1.0
C      1  0.4761680000000  0.5585150000000  0.4722290000000 1.0
C      1  0.5378660000000  0.6038350000000  0.4376460000000 1.0
C      1  0.5179350000000  0.5036970000000  0.5218740000000 1.0
C      1  0.4448380000000  0.5944540000000  0.4623160000000 1.0
C      1  0.5303500000000  0.4268270000000  0.4973400000000 1.0
C      1  0.4788410000000  0.5142860000000  0.6045140000000 1.0
C      1  0.5678520000000  0.4852800000000  0.5947820000000 1.0
C      1  0.4821750000000  0.4480080000000  0.4976330000000 1.0
C      1  0.5854370000000  0.4834530000000  0.5653740000000 1.0
C      1  0.4994170000000  0.4581880000000  0.5252770000000 1.0
C      1  0.4651690000000  0.3949990000000  0.4907460000000 1.0
C      1  0.5022790000000  0.4624180000000  0.4759570000000 1.0
C      1  0.4443060000000  0.5179680000000  0.5372720000000 1.0
C      1  0.5229360000000  0.5163710000000  0.4457430000000 1.0
C      1  0.5435280000000  0.4046250000000  0.5186810000000 1.0
END
