TITL C-2778434-4341-410 0.00452290157527376 125000 -388.962046518358 0 0 69 (C1) n - 1
REM
REM in /home/nfs/bkarasulu/CARBON/AIRSS/Generating-Clusters/REBO/Only-C1/SD-CG/HFTN-CG
REM
REM
REM
REM
REM
REM ./C.cell (11c1c37f851c82e70ff6c80c92926a4b)
REM
REM compiler GCC version 9.2.1 20190827 (Red Hat 9.2.1-1)
REM options -cpp -mtune=generic -march=x86-64 -g -O0 -fpre-include=/usr/include/finclude/math-vector-fortran.h
REM seed -1803367429 -745861981 -1419930291 -22089975 1149995352 1682261143 1785303264 -351784582 -343306148 1198115615 -617760292 -456201741 1594273935 -1826092956 299465861 315584063 1804947342 -67284788 -1928441826 -1076401617 -1836994982 1182687220 1207926806 1074197096 1406390658 -88121674 11490200 383602540 1298967375 138960294 -1560551116 319888803 1638359820
REM
CELL 1.54180   50.00000   50.00000   50.00000   90.00000   90.00000   90.00000
LATT -1
SFAC C  
C      1  0.4993990000000  0.5062440000000  0.5628430000000 1.0
C      1  0.5103400000000  0.5682990000000  0.4779020000000 1.0
C      1  0.5605060000000  0.4227600000000  0.5185320000000 1.0
C      1  0.4372090000000  0.4925040000000  0.4748680000000 1.0
C      1  0.5326600000000  0.4649520000000  0.5562710000000 1.0
C      1  0.4840600000000  0.4990130000000  0.5875410000000 1.0
C      1  0.5384530000000  0.4961250000000  0.4644820000000 1.0
C      1  0.4923720000000  0.5232810000000  0.4301580000000 1.0
C      1  0.4940830000000  0.5613150000000  0.4423050000000 1.0
C      1  0.4512010000000  0.5596800000000  0.5281860000000 1.0
C      1  0.5681490000000  0.4574420000000  0.4778170000000 1.0
C      1  0.4558870000000  0.5631300000000  0.4769860000000 1.0
C      1  0.4768950000000  0.5232130000000  0.4976350000000 1.0
C      1  0.5677840000000  0.5247360000000  0.5204090000000 1.0
C      1  0.5549100000000  0.5097260000000  0.5652180000000 1.0
C      1  0.5614630000000  0.4461970000000  0.5033050000000 1.0
C      1  0.4733640000000  0.5563360000000  0.5046120000000 1.0
C      1  0.4960920000000  0.4186070000000  0.5077190000000 1.0
C      1  0.4338620000000  0.5586490000000  0.5026930000000 1.0
C      1  0.5232840000000  0.5373510000000  0.4841120000000 1.0
C      1  0.4678690000000  0.4402880000000  0.5209920000000 1.0
C      1  0.5451440000000  0.4204900000000  0.5412890000000 1.0
C      1  0.4815980000000  0.5758030000000  0.4647640000000 1.0
C      1  0.4999680000000  0.4310230000000  0.4774000000000 1.0
C      1  0.4998400000000  0.5673940000000  0.5164240000000 1.0
C      1  0.5014140000000  0.5220760000000  0.3982040000000 1.0
C      1  0.5296410000000  0.4584810000000  0.4464370000000 1.0
C      1  0.4657910000000  0.5192540000000  0.4420580000000 1.0
C      1  0.4580880000000  0.4698140000000  0.4612980000000 1.0
C      1  0.5155320000000  0.4868160000000  0.4821700000000 1.0
C      1  0.5478820000000  0.4702880000000  0.5163880000000 1.0
C      1  0.5065890000000  0.4533560000000  0.4622360000000 1.0
C      1  0.5672370000000  0.4963640000000  0.5115530000000 1.0
C      1  0.4881820000000  0.4795080000000  0.4674700000000 1.0
C      1  0.5169950000000  0.5027150000000  0.4189330000000 1.0
C      1  0.4687600000000  0.4279980000000  0.4898540000000 1.0
C      1  0.5672000000000  0.4883150000000  0.4808420000000 1.0
C      1  0.4485790000000  0.4429040000000  0.4740110000000 1.0
C      1  0.4588230000000  0.5482610000000  0.5524680000000 1.0
C      1  0.4278460000000  0.5147440000000  0.5210840000000 1.0
C      1  0.5591080000000  0.4829820000000  0.5446450000000 1.0
C      1  0.5196470000000  0.4756320000000  0.5076400000000 1.0
C      1  0.4492120000000  0.5043880000000  0.4243490000000 1.0
C      1  0.4589650000000  0.5172380000000  0.5247070000000 1.0
C      1  0.5665090000000  0.5133560000000  0.5901410000000 1.0
C      1  0.4208210000000  0.5326620000000  0.4997430000000 1.0
C      1  0.5547320000000  0.4474870000000  0.4548070000000 1.0
C      1  0.5266450000000  0.4941330000000  0.5641280000000 1.0
C      1  0.4280100000000  0.5217550000000  0.4743230000000 1.0
C      1  0.4684560000000  0.5063020000000  0.4728400000000 1.0
C      1  0.5599400000000  0.5770930000000  0.5039820000000 1.0
C      1  0.5396450000000  0.5658300000000  0.4929380000000 1.0
C      1  0.5656850000000  0.5164270000000  0.4618680000000 1.0
C      1  0.4474570000000  0.5379590000000  0.4604420000000 1.0
C      1  0.5306410000000  0.4863190000000  0.4356490000000 1.0
C      1  0.4993250000000  0.4372520000000  0.5338440000000 1.0
C      1  0.4902340000000  0.5074800000000  0.5317840000000 1.0
C      1  0.4715360000000  0.5263930000000  0.5615200000000 1.0
C      1  0.5147720000000  0.5421060000000  0.4524040000000 1.0
C      1  0.5608100000000  0.5316530000000  0.5436740000000 1.0
C      1  0.4978220000000  0.4663260000000  0.5226360000000 1.0
C      1  0.4337160000000  0.4644870000000  0.4913650000000 1.0
C      1  0.5090860000000  0.5207510000000  0.5083840000000 1.0
C      1  0.4715460000000  0.4796700000000  0.5291260000000 1.0
C      1  0.5251800000000  0.4389990000000  0.5491290000000 1.0
C      1  0.4339100000000  0.4892220000000  0.5373970000000 1.0
C      1  0.4599200000000  0.4973920000000  0.5557560000000 1.0
C      1  0.4445630000000  0.4637950000000  0.5196880000000 1.0
C      1  0.5171560000000  0.5494610000000  0.5216190000000 1.0
END
