TITL C-2778430-5657-626 -0.000679989310719629 125000 -868.135780455618 0 0 147 (C1) n - 1
REM
REM in /home/nfs/bkarasulu/CARBON/AIRSS/Generating-Clusters/REBO/Only-C1/SD-CG/HFTN-CG
REM
REM
REM
REM
REM
REM ./C.cell (11c1c37f851c82e70ff6c80c92926a4b)
REM
REM compiler GCC version 9.2.1 20190827 (Red Hat 9.2.1-1)
REM options -cpp -mtune=generic -march=x86-64 -g -O0 -fpre-include=/usr/include/finclude/math-vector-fortran.h
REM seed -340676111 168295416 -1506213089 -466691121 -850475656 -1350711435 -172872936 1608744114 488271277 864621893 -1673583264 -1465998461 -489016430 1995887555 -1059968227 -975641356 1461240403 87652921 -707205068 1560922840 -1821271895 940290183 1691556212 -1027138144 308315848 -1064687706 477652115 -1910430880 -1109452979 -1766271278 682426708 -1256615026 -793071796
REM
CELL 1.54180   50.00000   50.00000   50.00000   90.00000   90.00000   90.00000
LATT -1
SFAC C  
C      1  0.4547220000000  0.4969740000000  0.5856440000000 1.0
C      1  0.4605330000000  0.4476000000000  0.5379810000000 1.0
C      1  0.5160810000000  0.5105790000000  0.4576350000000 1.0
C      1  0.4487250000000  0.5331860000000  0.5032450000000 1.0
C      1  0.3952150000000  0.4454500000000  0.4289730000000 1.0
C      1  0.5902170000000  0.5459360000000  0.4844080000000 1.0
C      1  0.4600360000000  0.4758360000000  0.4628840000000 1.0
C      1  0.6012920000000  0.5271110000000  0.5589880000000 1.0
C      1  0.4442770000000  0.4586560000000  0.5897480000000 1.0
C      1  0.5570660000000  0.5539890000000  0.5570590000000 1.0
C      1  0.5051370000000  0.5925560000000  0.4758340000000 1.0
C      1  0.5269090000000  0.4975610000000  0.4826190000000 1.0
C      1  0.4611120000000  0.5781230000000  0.4407860000000 1.0
C      1  0.4181330000000  0.5611360000000  0.5178710000000 1.0
C      1  0.5205660000000  0.4234030000000  0.5647930000000 1.0
C      1  0.5248010000000  0.4481910000000  0.5879170000000 1.0
C      1  0.4598040000000  0.5487150000000  0.5804530000000 1.0
C      1  0.5453000000000  0.5667380000000  0.5340430000000 1.0
C      1  0.4671710000000  0.5031250000000  0.4602010000000 1.0
C      1  0.4897110000000  0.4814660000000  0.5136200000000 1.0
C      1  0.5588330000000  0.4908390000000  0.4820300000000 1.0
C      1  0.5720720000000  0.5358680000000  0.4613270000000 1.0
C      1  0.5671790000000  0.4324930000000  0.5394050000000 1.0
C      1  0.5121760000000  0.4900310000000  0.4361300000000 1.0
C      1  0.5289800000000  0.4122860000000  0.4730570000000 1.0
C      1  0.4572750000000  0.5029860000000  0.5049490000000 1.0
C      1  0.5397050000000  0.5743710000000  0.4934140000000 1.0
C      1  0.4978280000000  0.5384200000000  0.5164430000000 1.0
C      1  0.5133020000000  0.5449620000000  0.5801310000000 1.0
C      1  0.4212510000000  0.5344720000000  0.4126750000000 1.0
C      1  0.4321390000000  0.4393550000000  0.4668320000000 1.0
C      1  0.4456180000000  0.5765290000000  0.5307670000000 1.0
C      1  0.4886040000000  0.4141580000000  0.5708440000000 1.0
C      1  0.4471600000000  0.5709980000000  0.4654750000000 1.0
C      1  0.5731150000000  0.4788080000000  0.4407100000000 1.0
C      1  0.5084440000000  0.4948420000000  0.5730420000000 1.0
C      1  0.5269570000000  0.4657390000000  0.4890870000000 1.0
C      1  0.4391060000000  0.5554310000000  0.4043870000000 1.0
C      1  0.5757230000000  0.5158530000000  0.5305990000000 1.0
C      1  0.5193400000000  0.5943950000000  0.5043230000000 1.0
C      1  0.4756040000000  0.4628840000000  0.4888760000000 1.0
C      1  0.4351190000000  0.4851830000000  0.4926840000000 1.0
C      1  0.4094250000000  0.5039220000000  0.4961090000000 1.0
C      1  0.4415040000000  0.5418890000000  0.4732850000000 1.0
C      1  0.5004160000000  0.5104780000000  0.4144050000000 1.0
C      1  0.5326770000000  0.5528110000000  0.4333520000000 1.0
C      1  0.5030770000000  0.5868980000000  0.5537000000000 1.0
C      1  0.5594740000000  0.4263500000000  0.4766600000000 1.0
C      1  0.4311340000000  0.4647480000000  0.5388750000000 1.0
C      1  0.4945030000000  0.5544160000000  0.4729300000000 1.0
C      1  0.4615400000000  0.5150620000000  0.3872640000000 1.0
C      1  0.4311470000000  0.4567850000000  0.4900170000000 1.0
C      1  0.5180950000000  0.5787910000000  0.5812920000000 1.0
C      1  0.5419630000000  0.4706050000000  0.4177330000000 1.0
C      1  0.4710700000000  0.4410170000000  0.4362860000000 1.0
C      1  0.6101640000000  0.4779280000000  0.5536460000000 1.0
C      1  0.4701950000000  0.4093920000000  0.4813920000000 1.0
C      1  0.4726520000000  0.5859090000000  0.5146650000000 1.0
C      1  0.4175510000000  0.4939790000000  0.5274830000000 1.0
C      1  0.4687670000000  0.4670630000000  0.4139920000000 1.0
C      1  0.5686730000000  0.4278260000000  0.5054020000000 1.0
C      1  0.5408530000000  0.4777790000000  0.5260740000000 1.0
C      1  0.4173090000000  0.4504830000000  0.4430010000000 1.0
C      1  0.4581050000000  0.4296190000000  0.4587890000000 1.0
C      1  0.4875920000000  0.5418570000000  0.4182540000000 1.0
C      1  0.4155460000000  0.5880160000000  0.4377490000000 1.0
C      1  0.5057450000000  0.4660430000000  0.4460940000000 1.0
C      1  0.5184550000000  0.4977380000000  0.6113880000000 1.0
C      1  0.4788480000000  0.5775880000000  0.4872050000000 1.0
C      1  0.4421610000000  0.4879900000000  0.4188830000000 1.0
C      1  0.5299610000000  0.5217010000000  0.4194630000000 1.0
C      1  0.4669920000000  0.4389070000000  0.5079810000000 1.0
C      1  0.4470680000000  0.5213040000000  0.4519610000000 1.0
C      1  0.4813200000000  0.5458370000000  0.5375810000000 1.0
C      1  0.5060170000000  0.5383810000000  0.4467890000000 1.0
C      1  0.4279570000000  0.4425120000000  0.5157350000000 1.0
C      1  0.5929100000000  0.4989730000000  0.5647770000000 1.0
C      1  0.4711150000000  0.4708040000000  0.5978560000000 1.0
C      1  0.4677510000000  0.4942730000000  0.5340760000000 1.0
C      1  0.6251270000000  0.4916560000000  0.5341110000000 1.0
C      1  0.4858640000000  0.5196230000000  0.4994830000000 1.0
C      1  0.5001190000000  0.4301840000000  0.4293970000000 1.0
C      1  0.5582260000000  0.5316250000000  0.4360160000000 1.0
C      1  0.5634890000000  0.4945870000000  0.5543010000000 1.0
C      1  0.4766740000000  0.4962800000000  0.4005590000000 1.0
C      1  0.4380400000000  0.5301710000000  0.5525210000000 1.0
C      1  0.4424290000000  0.4182780000000  0.4991440000000 1.0
C      1  0.5941600000000  0.4532320000000  0.5446140000000 1.0
C      1  0.4923070000000  0.5587130000000  0.5594040000000 1.0
C      1  0.4781240000000  0.4975650000000  0.5628500000000 1.0
C      1  0.4073840000000  0.5693170000000  0.4890930000000 1.0
C      1  0.4424840000000  0.4323420000000  0.5822000000000 1.0
C      1  0.4122760000000  0.5361170000000  0.4877730000000 1.0
C      1  0.5001080000000  0.5203640000000  0.5935730000000 1.0
C      1  0.5752320000000  0.4479210000000  0.4555580000000 1.0
C      1  0.5473670000000  0.4485470000000  0.4371300000000 1.0
C      1  0.5203370000000  0.4667430000000  0.4017960000000 1.0
C      1  0.4949340000000  0.4508740000000  0.4668350000000 1.0
C      1  0.4955600000000  0.4458190000000  0.5612160000000 1.0
C      1  0.5379220000000  0.4509930000000  0.4691470000000 1.0
C      1  0.5080950000000  0.4083160000000  0.5366840000000 1.0
C      1  0.4693130000000  0.5250240000000  0.5904870000000 1.0
C      1  0.4869510000000  0.5703870000000  0.4328230000000 1.0
C      1  0.4386660000000  0.5790270000000  0.4213410000000 1.0
C      1  0.5355840000000  0.5341940000000  0.5628180000000 1.0
C      1  0.4980760000000  0.4228310000000  0.4711660000000 1.0
C      1  0.4971340000000  0.4525260000000  0.4087960000000 1.0
C      1  0.5293420000000  0.4726260000000  0.6056630000000 1.0
C      1  0.4196800000000  0.5827930000000  0.4668510000000 1.0
C      1  0.4525480000000  0.5455740000000  0.5305190000000 1.0
C      1  0.4399350000000  0.5022090000000  0.5488900000000 1.0
C      1  0.4765460000000  0.3978090000000  0.5442090000000 1.0
C      1  0.5205190000000  0.4084300000000  0.5046170000000 1.0
C      1  0.5836770000000  0.5485410000000  0.5634650000000 1.0
C      1  0.5349850000000  0.5026140000000  0.5607460000000 1.0
C      1  0.4516160000000  0.5683050000000  0.5632780000000 1.0
C      1  0.4639680000000  0.5419130000000  0.3977000000000 1.0
C      1  0.5266180000000  0.5486860000000  0.5211150000000 1.0
C      1  0.4343630000000  0.5140380000000  0.4274930000000 1.0
C      1  0.4898460000000  0.5132270000000  0.4731950000000 1.0
C      1  0.5935720000000  0.4977950000000  0.4848680000000 1.0
C      1  0.5587560000000  0.5215420000000  0.4843150000000 1.0
C      1  0.5136660000000  0.5775870000000  0.4468450000000 1.0
C      1  0.4592560000000  0.4238850000000  0.5577420000000 1.0
C      1  0.4408900000000  0.4694500000000  0.4423540000000 1.0
C      1  0.6095370000000  0.5186680000000  0.5276150000000 1.0
C      1  0.4987180000000  0.5941300000000  0.5262390000000 1.0
C      1  0.5272750000000  0.5175550000000  0.5331530000000 1.0
C      1  0.5219370000000  0.4535860000000  0.5183710000000 1.0
C      1  0.4306080000000  0.4788380000000  0.5698730000000 1.0
C      1  0.5539960000000  0.4992480000000  0.4260600000000 1.0
C      1  0.5630650000000  0.5326090000000  0.5104030000000 1.0
C      1  0.5670950000000  0.4778620000000  0.5082900000000 1.0
C      1  0.5617870000000  0.5896900000000  0.5228000000000 1.0
C      1  0.5920300000000  0.4755970000000  0.4659500000000 1.0
C      1  0.6012970000000  0.5223050000000  0.4971600000000 1.0
C      1  0.4133530000000  0.5275160000000  0.5208740000000 1.0
C      1  0.5393040000000  0.4276290000000  0.5212630000000 1.0
C      1  0.5627810000000  0.4646550000000  0.5462230000000 1.0
C      1  0.5698260000000  0.5640370000000  0.5026950000000 1.0
C      1  0.4932840000000  0.4557200000000  0.5326480000000 1.0
C      1  0.4969280000000  0.4673040000000  0.5831220000000 1.0
C      1  0.5164890000000  0.4962200000000  0.5126500000000 1.0
C      1  0.5249620000000  0.4250680000000  0.4418390000000 1.0
C      1  0.4888090000000  0.4142100000000  0.5090540000000 1.0
C      1  0.5274240000000  0.5596830000000  0.4726330000000 1.0
C      1  0.5856630000000  0.4546870000000  0.5123540000000 1.0
END
