TITL C-2778430-5657-383 -0.000929678264335832 125000 -671.578089775136 0 0 115 (C1) n - 1
REM
REM in /home/nfs/bkarasulu/CARBON/AIRSS/Generating-Clusters/REBO/Only-C1/SD-CG/HFTN-CG
REM
REM
REM
REM
REM
REM ./C.cell (11c1c37f851c82e70ff6c80c92926a4b)
REM
REM compiler GCC version 9.2.1 20190827 (Red Hat 9.2.1-1)
REM options -cpp -mtune=generic -march=x86-64 -g -O0 -fpre-include=/usr/include/finclude/math-vector-fortran.h
REM seed -1211269109 1050364300 741534512 1169128966 -829375763 -2122417146 -232698153 -1003615996 1120701225 943599551 1194567682 -1787510101 724181742 -1697674819 -1049254137 577829649 -1304016343 -529674128 552504242 642642117 1712593575 -1138350016 13878579 -1379480527 -449831188 1181669848 -448364376 1870427804 1443024851 -809822962 759788014 -1955861186 795155310
REM
CELL 1.54180   50.00000   50.00000   50.00000   90.00000   90.00000   90.00000
LATT -1
SFAC C  
C      1  0.4773310000000  0.4222910000000  0.4395940000000 1.0
C      1  0.5129610000000  0.5458220000000  0.4762420000000 1.0
C      1  0.5297480000000  0.4778900000000  0.5350600000000 1.0
C      1  0.4667670000000  0.4260770000000  0.5286400000000 1.0
C      1  0.4827540000000  0.5940400000000  0.5405360000000 1.0
C      1  0.4756170000000  0.5710250000000  0.5546190000000 1.0
C      1  0.4494520000000  0.5169820000000  0.5211270000000 1.0
C      1  0.5864530000000  0.5106090000000  0.4709330000000 1.0
C      1  0.5294250000000  0.5671220000000  0.5540040000000 1.0
C      1  0.5671500000000  0.5348940000000  0.4578000000000 1.0
C      1  0.4728730000000  0.5689110000000  0.4543250000000 1.0
C      1  0.4443640000000  0.5182970000000  0.4296140000000 1.0
C      1  0.4954420000000  0.4213630000000  0.5151660000000 1.0
C      1  0.4845000000000  0.5516270000000  0.5781270000000 1.0
C      1  0.4588630000000  0.5242590000000  0.4566840000000 1.0
C      1  0.4891950000000  0.5237840000000  0.4508640000000 1.0
C      1  0.5613750000000  0.5629070000000  0.4720650000000 1.0
C      1  0.4282210000000  0.4765950000000  0.5476650000000 1.0
C      1  0.4068860000000  0.5330550000000  0.5352150000000 1.0
C      1  0.4542700000000  0.4718920000000  0.4945670000000 1.0
C      1  0.5687260000000  0.5090320000000  0.4356020000000 1.0
C      1  0.4527210000000  0.4759050000000  0.4357090000000 1.0
C      1  0.4190480000000  0.5074270000000  0.4339540000000 1.0
C      1  0.5628950000000  0.4683980000000  0.5151410000000 1.0
C      1  0.4352870000000  0.5594130000000  0.4854600000000 1.0
C      1  0.5055560000000  0.4671970000000  0.5879830000000 1.0
C      1  0.5535390000000  0.5109570000000  0.5734790000000 1.0
C      1  0.4703600000000  0.5278130000000  0.4160800000000 1.0
C      1  0.4940800000000  0.4545370000000  0.5223010000000 1.0
C      1  0.4093490000000  0.4634610000000  0.4718060000000 1.0
C      1  0.5403120000000  0.5429740000000  0.4879710000000 1.0
C      1  0.5537420000000  0.4678530000000  0.4885060000000 1.0
C      1  0.4064480000000  0.4864530000000  0.4565480000000 1.0
C      1  0.4760780000000  0.4781280000000  0.4132260000000 1.0
C      1  0.5518860000000  0.5153300000000  0.4894360000000 1.0
C      1  0.4713520000000  0.4448670000000  0.4189500000000 1.0
C      1  0.5483140000000  0.4971650000000  0.4125480000000 1.0
C      1  0.4265580000000  0.4838920000000  0.5015730000000 1.0
C      1  0.5472670000000  0.5431750000000  0.5706670000000 1.0
C      1  0.5318650000000  0.5802130000000  0.4708830000000 1.0
C      1  0.4561770000000  0.4429230000000  0.4789900000000 1.0
C      1  0.5705070000000  0.4214370000000  0.5245530000000 1.0
C      1  0.4999750000000  0.4166260000000  0.4844730000000 1.0
C      1  0.4468500000000  0.4637210000000  0.4562310000000 1.0
C      1  0.5104020000000  0.5005070000000  0.4580330000000 1.0
C      1  0.4744260000000  0.5014220000000  0.5305000000000 1.0
C      1  0.5659510000000  0.4555750000000  0.4621240000000 1.0
C      1  0.4573060000000  0.4510720000000  0.5768250000000 1.0
C      1  0.5819610000000  0.4833100000000  0.4517750000000 1.0
C      1  0.5452030000000  0.5553800000000  0.5173040000000 1.0
C      1  0.4178590000000  0.4446130000000  0.4893650000000 1.0
C      1  0.5256030000000  0.4120870000000  0.4376300000000 1.0
C      1  0.4473230000000  0.5800390000000  0.4999570000000 1.0
C      1  0.5214300000000  0.4786210000000  0.4344490000000 1.0
C      1  0.5343900000000  0.5366970000000  0.5396760000000 1.0
C      1  0.4516640000000  0.5440160000000  0.5714460000000 1.0
C      1  0.5401420000000  0.5159700000000  0.4512580000000 1.0
C      1  0.5832300000000  0.5678750000000  0.4951510000000 1.0
C      1  0.5328670000000  0.5835810000000  0.5052050000000 1.0
C      1  0.4888430000000  0.4458960000000  0.5804780000000 1.0
C      1  0.5055690000000  0.4271640000000  0.4274880000000 1.0
C      1  0.4914870000000  0.5721660000000  0.4750030000000 1.0
C      1  0.4958510000000  0.4968370000000  0.5820380000000 1.0
C      1  0.4438990000000  0.4366790000000  0.5101960000000 1.0
C      1  0.4506880000000  0.5537780000000  0.4624340000000 1.0
C      1  0.4646570000000  0.5535100000000  0.5348720000000 1.0
C      1  0.5537810000000  0.4721820000000  0.4353340000000 1.0
C      1  0.4903530000000  0.5379380000000  0.4954630000000 1.0
C      1  0.5338680000000  0.4834080000000  0.5782340000000 1.0
C      1  0.5185710000000  0.5322160000000  0.4355570000000 1.0
C      1  0.5162460000000  0.5624420000000  0.4460300000000 1.0
C      1  0.5137640000000  0.5471660000000  0.5769740000000 1.0
C      1  0.4448610000000  0.5203820000000  0.4876270000000 1.0
C      1  0.5092150000000  0.4929720000000  0.4893520000000 1.0
C      1  0.4870200000000  0.5059630000000  0.4081640000000 1.0
C      1  0.4148500000000  0.5321930000000  0.4834340000000 1.0
C      1  0.4490420000000  0.4754530000000  0.5659940000000 1.0
C      1  0.5042270000000  0.5018240000000  0.5163230000000 1.0
C      1  0.5817700000000  0.5126670000000  0.5022240000000 1.0
C      1  0.5857520000000  0.5288800000000  0.5305510000000 1.0
C      1  0.4229120000000  0.5036140000000  0.5381580000000 1.0
C      1  0.4748920000000  0.4749520000000  0.5136690000000 1.0
C      1  0.4700740000000  0.4307340000000  0.5562170000000 1.0
C      1  0.5238260000000  0.4328120000000  0.5571130000000 1.0
C      1  0.5026260000000  0.4590390000000  0.4215140000000 1.0
C      1  0.5269590000000  0.4509850000000  0.5140280000000 1.0
C      1  0.4861770000000  0.5541220000000  0.4304920000000 1.0
C      1  0.5209280000000  0.5153100000000  0.5805370000000 1.0
C      1  0.4719210000000  0.5205250000000  0.5813880000000 1.0
C      1  0.4761910000000  0.5153720000000  0.4914800000000 1.0
C      1  0.5323830000000  0.5092650000000  0.5308810000000 1.0
C      1  0.4755130000000  0.4230240000000  0.4678520000000 1.0
C      1  0.4783900000000  0.5575190000000  0.5106450000000 1.0
C      1  0.4377510000000  0.5401200000000  0.5432970000000 1.0
C      1  0.5107710000000  0.4586710000000  0.5495850000000 1.0
C      1  0.5069310000000  0.5951920000000  0.4898610000000 1.0
C      1  0.5170830000000  0.5073080000000  0.4162400000000 1.0
C      1  0.4789720000000  0.5904640000000  0.5077220000000 1.0
C      1  0.5537310000000  0.4459030000000  0.5342570000000 1.0
C      1  0.5578640000000  0.4295320000000  0.4781370000000 1.0
C      1  0.5282240000000  0.4343610000000  0.4905340000000 1.0
C      1  0.5165710000000  0.4131180000000  0.5389570000000 1.0
C      1  0.5731280000000  0.4765030000000  0.5701180000000 1.0
C      1  0.5388120000000  0.4914820000000  0.4843040000000 1.0
C      1  0.5762080000000  0.5553800000000  0.5196940000000 1.0
C      1  0.5765320000000  0.5048820000000  0.5529550000000 1.0
C      1  0.5744430000000  0.4175740000000  0.4997010000000 1.0
C      1  0.5633040000000  0.4967680000000  0.5246090000000 1.0
C      1  0.5479370000000  0.4560990000000  0.5639610000000 1.0
C      1  0.4112420000000  0.5132240000000  0.5078310000000 1.0
C      1  0.4709720000000  0.4956600000000  0.5603700000000 1.0
C      1  0.4284770000000  0.4620440000000  0.5233580000000 1.0
C      1  0.5284180000000  0.4109350000000  0.4664290000000 1.0
C      1  0.5306790000000  0.5878690000000  0.5354240000000 1.0
C      1  0.4025510000000  0.5188170000000  0.4593010000000 1.0
END
