TITL C-2778432-5617-1087 -0.00378196586521785 125000 -420.8160871136 0 0 73 (C1) n - 1
REM
REM in /home/nfs/bkarasulu/CARBON/AIRSS/Generating-Clusters/REBO/Only-C1/SD-CG/HFTN-CG
REM
REM
REM
REM
REM
REM ./C.cell (11c1c37f851c82e70ff6c80c92926a4b)
REM
REM compiler GCC version 9.2.1 20190827 (Red Hat 9.2.1-1)
REM options -cpp -mtune=generic -march=x86-64 -g -O0 -fpre-include=/usr/include/finclude/math-vector-fortran.h
REM seed 272160294 1853914297 567501244 -545240563 1610473584 -2120810391 -973998292 -303484908 1930841348 -348363763 -1555402745 1929784888 456943225 1852779558 1986527500 607908938 -1264886632 -756526775 2053133791 1843326147 -933194078 -1930247944 -726899402 -202051031 1316370100 -188756937 1967220990 1393555738 115240387 249131014 -1303671304 1625045594 1656617715
REM
CELL 1.54180   50.00000   50.00000   50.00000   90.00000   90.00000   90.00000
LATT -1
SFAC C  
C      1  0.4573980000000  0.5444440000000  0.4708410000000 1.0
C      1  0.4362690000000  0.4659000000000  0.4637440000000 1.0
C      1  0.4540160000000  0.4491690000000  0.4486820000000 1.0
C      1  0.5467540000000  0.5185170000000  0.5587920000000 1.0
C      1  0.5012340000000  0.5604120000000  0.4406360000000 1.0
C      1  0.5451500000000  0.5181970000000  0.5013980000000 1.0
C      1  0.5573780000000  0.4728480000000  0.4627930000000 1.0
C      1  0.4765030000000  0.5720430000000  0.5446070000000 1.0
C      1  0.4248450000000  0.4942130000000  0.5017530000000 1.0
C      1  0.4751570000000  0.5706720000000  0.4812420000000 1.0
C      1  0.5540070000000  0.5223170000000  0.5317310000000 1.0
C      1  0.5513340000000  0.4819330000000  0.5437990000000 1.0
C      1  0.5478740000000  0.5503690000000  0.4900080000000 1.0
C      1  0.5452960000000  0.4429840000000  0.5378480000000 1.0
C      1  0.5224030000000  0.4770710000000  0.5709610000000 1.0
C      1  0.5236720000000  0.4933460000000  0.4572400000000 1.0
C      1  0.4853950000000  0.5263290000000  0.4927340000000 1.0
C      1  0.4394010000000  0.5086610000000  0.5481850000000 1.0
C      1  0.4604340000000  0.5003320000000  0.5627540000000 1.0
C      1  0.4990850000000  0.5340680000000  0.4623910000000 1.0
C      1  0.5148020000000  0.4360630000000  0.4937380000000 1.0
C      1  0.5682880000000  0.5321180000000  0.4721760000000 1.0
C      1  0.5534770000000  0.5509430000000  0.5222020000000 1.0
C      1  0.4316590000000  0.4250430000000  0.4883130000000 1.0
C      1  0.5682580000000  0.4599070000000  0.4913390000000 1.0
C      1  0.5071180000000  0.4417570000000  0.5265720000000 1.0
C      1  0.4666200000000  0.5091310000000  0.4337930000000 1.0
C      1  0.4806790000000  0.4448770000000  0.4579170000000 1.0
C      1  0.5281360000000  0.4624740000000  0.4483470000000 1.0
C      1  0.5224690000000  0.4534290000000  0.5547760000000 1.0
C      1  0.4207910000000  0.4509320000000  0.4830270000000 1.0
C      1  0.4884990000000  0.5010070000000  0.5643260000000 1.0
C      1  0.5852560000000  0.5095800000000  0.4874530000000 1.0
C      1  0.5576330000000  0.5338850000000  0.4419310000000 1.0
C      1  0.5238360000000  0.5699450000000  0.4849390000000 1.0
C      1  0.4738410000000  0.4964050000000  0.4868500000000 1.0
C      1  0.4921510000000  0.4699250000000  0.4639970000000 1.0
C      1  0.5856470000000  0.4856280000000  0.4932710000000 1.0
C      1  0.5371960000000  0.5091620000000  0.4335030000000 1.0
C      1  0.4163800000000  0.4671280000000  0.5068530000000 1.0
C      1  0.4864190000000  0.5484810000000  0.5680930000000 1.0
C      1  0.5008390000000  0.5246370000000  0.5807970000000 1.0
C      1  0.4556980000000  0.5497960000000  0.5283530000000 1.0
C      1  0.4979730000000  0.5265680000000  0.5219360000000 1.0
C      1  0.5625160000000  0.5022510000000  0.4554210000000 1.0
C      1  0.4936430000000  0.4265830000000  0.4769210000000 1.0
C      1  0.5345400000000  0.4970970000000  0.4862570000000 1.0
C      1  0.4853890000000  0.4914170000000  0.4245720000000 1.0
C      1  0.4436790000000  0.4943910000000  0.4768170000000 1.0
C      1  0.4945100000000  0.5030510000000  0.4617060000000 1.0
C      1  0.5231370000000  0.4749530000000  0.5040080000000 1.0
C      1  0.5006680000000  0.5737260000000  0.4668830000000 1.0
C      1  0.5264500000000  0.4862030000000  0.5322750000000 1.0
C      1  0.5050250000000  0.5568500000000  0.5339630000000 1.0
C      1  0.4565950000000  0.5423270000000  0.5019900000000 1.0
C      1  0.4772000000000  0.4456970000000  0.5427550000000 1.0
C      1  0.5266690000000  0.5060150000000  0.5746980000000 1.0
C      1  0.5359730000000  0.5655940000000  0.5375770000000 1.0
C      1  0.4273650000000  0.5106440000000  0.5241130000000 1.0
C      1  0.5477900000000  0.4555710000000  0.5139370000000 1.0
C      1  0.4748500000000  0.5326730000000  0.5441650000000 1.0
C      1  0.4795940000000  0.5769180000000  0.5108260000000 1.0
C      1  0.4792390000000  0.4464970000000  0.5084350000000 1.0
C      1  0.4941020000000  0.4706140000000  0.4958950000000 1.0
C      1  0.4487580000000  0.4391920000000  0.5330190000000 1.0
C      1  0.5371760000000  0.4480270000000  0.4766000000000 1.0
C      1  0.5061810000000  0.4741180000000  0.4268900000000 1.0
C      1  0.5042410000000  0.5012320000000  0.5397460000000 1.0
C      1  0.4535520000000  0.4251610000000  0.5059720000000 1.0
C      1  0.5241310000000  0.5384330000000  0.4392090000000 1.0
C      1  0.5110660000000  0.5781690000000  0.5093600000000 1.0
C      1  0.4246810000000  0.4550320000000  0.5318920000000 1.0
C      1  0.4540100000000  0.5189180000000  0.4574560000000 1.0
END
