TITL C-2778431-5191-1425 0.00312238513153611 125000 -779.993474207913 0 0 137 (C1) n - 1
REM
REM in /home/nfs/bkarasulu/CARBON/AIRSS/Generating-Clusters/REBO/Only-C1/SD-CG/HFTN-CG
REM
REM
REM
REM
REM
REM ./C.cell (11c1c37f851c82e70ff6c80c92926a4b)
REM
REM compiler GCC version 9.2.1 20190827 (Red Hat 9.2.1-1)
REM options -cpp -mtune=generic -march=x86-64 -g -O0 -fpre-include=/usr/include/finclude/math-vector-fortran.h
REM seed 131103589 -966483592 1247431451 -728554424 -1984155186 -33542305 1176242274 -1267647004 -1834610768 1270207804 1482405696 384949119 -1321983126 -271846056 71631137 39853400 1347279049 1541469169 -905143918 1949639899 -540731106 164952902 -278625083 -835563508 -1498232178 2025808371 1842666791 -653124083 121933619 -3125395 1187614514 183799024 1935492684
REM
CELL 1.54180   50.00000   50.00000   50.00000   90.00000   90.00000   90.00000
LATT -1
SFAC C  
C      1  0.5429610000000  0.5340380000000  0.5990830000000 1.0
C      1  0.5761700000000  0.5394410000000  0.4602340000000 1.0
C      1  0.4122720000000  0.5119410000000  0.5227660000000 1.0
C      1  0.5360510000000  0.5063380000000  0.5123850000000 1.0
C      1  0.4751660000000  0.4855220000000  0.4849260000000 1.0
C      1  0.5039400000000  0.4180970000000  0.4798610000000 1.0
C      1  0.5198830000000  0.5870950000000  0.5150480000000 1.0
C      1  0.4921090000000  0.5078450000000  0.5957220000000 1.0
C      1  0.5715280000000  0.5819630000000  0.5243830000000 1.0
C      1  0.6016410000000  0.5135160000000  0.5014640000000 1.0
C      1  0.4802170000000  0.5737420000000  0.5386090000000 1.0
C      1  0.5431840000000  0.5146310000000  0.5527840000000 1.0
C      1  0.4765150000000  0.4301600000000  0.5535480000000 1.0
C      1  0.4406630000000  0.5291830000000  0.5162510000000 1.0
C      1  0.5842630000000  0.4590450000000  0.4939850000000 1.0
C      1  0.5318020000000  0.4335780000000  0.5669060000000 1.0
C      1  0.4479610000000  0.5112470000000  0.4175230000000 1.0
C      1  0.5186780000000  0.4996550000000  0.4040630000000 1.0
C      1  0.4373980000000  0.5595220000000  0.4441270000000 1.0
C      1  0.5118040000000  0.5035000000000  0.5612270000000 1.0
C      1  0.5962470000000  0.4832500000000  0.5027240000000 1.0
C      1  0.5545110000000  0.4416650000000  0.5451480000000 1.0
C      1  0.5094560000000  0.4620180000000  0.5063910000000 1.0
C      1  0.5824080000000  0.5261620000000  0.5552860000000 1.0
C      1  0.4815250000000  0.4614890000000  0.4648900000000 1.0
C      1  0.5319920000000  0.4706770000000  0.5963200000000 1.0
C      1  0.4607730000000  0.5994660000000  0.4708770000000 1.0
C      1  0.4671110000000  0.4962420000000  0.5758190000000 1.0
C      1  0.4978940000000  0.5078920000000  0.4834040000000 1.0
C      1  0.4718830000000  0.4216140000000  0.5117810000000 1.0
C      1  0.5806130000000  0.4949020000000  0.5630980000000 1.0
C      1  0.5443550000000  0.5439130000000  0.5365130000000 1.0
C      1  0.4659200000000  0.5668980000000  0.4483180000000 1.0
C      1  0.4655130000000  0.5271650000000  0.5869060000000 1.0
C      1  0.4217580000000  0.5077790000000  0.4350090000000 1.0
C      1  0.5168910000000  0.5242210000000  0.5872330000000 1.0
C      1  0.4505380000000  0.4723750000000  0.5907790000000 1.0
C      1  0.5019440000000  0.5641720000000  0.5624480000000 1.0
C      1  0.4799880000000  0.4682270000000  0.5353880000000 1.0
C      1  0.5525730000000  0.5333600000000  0.4430620000000 1.0
C      1  0.4788640000000  0.4173250000000  0.4727170000000 1.0
C      1  0.4640900000000  0.4999810000000  0.4452700000000 1.0
C      1  0.5396220000000  0.4289650000000  0.4939950000000 1.0
C      1  0.4384710000000  0.4296800000000  0.5139350000000 1.0
C      1  0.4127050000000  0.4559640000000  0.4822420000000 1.0
C      1  0.5331410000000  0.5883380000000  0.4565140000000 1.0
C      1  0.4794350000000  0.5519860000000  0.4668290000000 1.0
C      1  0.5311960000000  0.4996690000000  0.4633710000000 1.0
C      1  0.4276700000000  0.4906900000000  0.5777110000000 1.0
C      1  0.4061680000000  0.5234050000000  0.4588190000000 1.0
C      1  0.5606260000000  0.4739260000000  0.5223680000000 1.0
C      1  0.5353270000000  0.4422720000000  0.5928860000000 1.0
C      1  0.5438960000000  0.5236840000000  0.4777360000000 1.0
C      1  0.4498960000000  0.5298460000000  0.4525030000000 1.0
C      1  0.4881570000000  0.5904030000000  0.4717640000000 1.0
C      1  0.5101600000000  0.5189290000000  0.5308290000000 1.0
C      1  0.5146990000000  0.4853020000000  0.5259200000000 1.0
C      1  0.5051450000000  0.5307990000000  0.4074910000000 1.0
C      1  0.4349450000000  0.4377770000000  0.4751000000000 1.0
C      1  0.4798660000000  0.5079360000000  0.4061200000000 1.0
C      1  0.5032460000000  0.5352080000000  0.4680360000000 1.0
C      1  0.5147050000000  0.4151740000000  0.5109790000000 1.0
C      1  0.5199700000000  0.5067780000000  0.4358000000000 1.0
C      1  0.4499960000000  0.4104830000000  0.4884910000000 1.0
C      1  0.4681500000000  0.5551760000000  0.4966540000000 1.0
C      1  0.4164110000000  0.4832990000000  0.4954070000000 1.0
C      1  0.5649350000000  0.5168110000000  0.5159780000000 1.0
C      1  0.5552160000000  0.4535370000000  0.4770210000000 1.0
C      1  0.4252820000000  0.4674260000000  0.4456070000000 1.0
C      1  0.5076990000000  0.5899690000000  0.5409350000000 1.0
C      1  0.4533560000000  0.4736270000000  0.4541900000000 1.0
C      1  0.5245180000000  0.4417940000000  0.5286530000000 1.0
C      1  0.5512780000000  0.4839580000000  0.5769360000000 1.0
C      1  0.4800070000000  0.4519670000000  0.5070190000000 1.0
C      1  0.5045890000000  0.4439140000000  0.5550280000000 1.0
C      1  0.5785800000000  0.5368140000000  0.4920240000000 1.0
C      1  0.4327730000000  0.4650520000000  0.5557640000000 1.0
C      1  0.5512090000000  0.5524340000000  0.5041300000000 1.0
C      1  0.4910930000000  0.4080510000000  0.5326510000000 1.0
C      1  0.5588700000000  0.5376860000000  0.5729970000000 1.0
C      1  0.4993040000000  0.5696920000000  0.4964160000000 1.0
C      1  0.5097400000000  0.4212290000000  0.4342970000000 1.0
C      1  0.4531630000000  0.4471610000000  0.5361460000000 1.0
C      1  0.5055030000000  0.5824570000000  0.4493180000000 1.0
C      1  0.5526970000000  0.4834880000000  0.4927360000000 1.0
C      1  0.4820340000000  0.4608890000000  0.5868050000000 1.0
C      1  0.5605520000000  0.4677310000000  0.4258280000000 1.0
C      1  0.4776420000000  0.4410280000000  0.4406840000000 1.0
C      1  0.5299880000000  0.4268970000000  0.4612230000000 1.0
C      1  0.4338760000000  0.5173760000000  0.5831570000000 1.0
C      1  0.5693790000000  0.5026060000000  0.4740020000000 1.0
C      1  0.5828060000000  0.5010810000000  0.4504430000000 1.0
C      1  0.4663480000000  0.4576450000000  0.4127410000000 1.0
C      1  0.5565910000000  0.4435000000000  0.4476760000000 1.0
C      1  0.4465190000000  0.5743690000000  0.5063330000000 1.0
C      1  0.5412750000000  0.4828390000000  0.5442460000000 1.0
C      1  0.5838400000000  0.4941910000000  0.5315200000000 1.0
C      1  0.5471900000000  0.5130320000000  0.4180760000000 1.0
C      1  0.4207310000000  0.5688580000000  0.4657780000000 1.0
C      1  0.4473220000000  0.4979100000000  0.4922230000000 1.0
C      1  0.4463790000000  0.4835670000000  0.5212990000000 1.0
C      1  0.4647000000000  0.4960830000000  0.5451770000000 1.0
C      1  0.5971810000000  0.5314340000000  0.5269720000000 1.0
C      1  0.4929920000000  0.4998260000000  0.4517300000000 1.0
C      1  0.5713680000000  0.4622110000000  0.5601760000000 1.0
C      1  0.4103420000000  0.5381120000000  0.5036340000000 1.0
C      1  0.5352450000000  0.4350320000000  0.4225790000000 1.0
C      1  0.5297820000000  0.4651000000000  0.4276010000000 1.0
C      1  0.5736140000000  0.5571010000000  0.5368290000000 1.0
C      1  0.5047630000000  0.4791540000000  0.6007510000000 1.0
C      1  0.4922790000000  0.4780370000000  0.4036370000000 1.0
C      1  0.4106210000000  0.4906260000000  0.4626750000000 1.0
C      1  0.4512520000000  0.5285370000000  0.4838310000000 1.0
C      1  0.5458640000000  0.5681370000000  0.4741500000000 1.0
C      1  0.4744300000000  0.5437210000000  0.5634560000000 1.0
C      1  0.5274960000000  0.5492240000000  0.4521990000000 1.0
C      1  0.5628900000000  0.4412060000000  0.5138950000000 1.0
C      1  0.4989080000000  0.4761200000000  0.5614320000000 1.0
C      1  0.5093750000000  0.4701730000000  0.4478510000000 1.0
C      1  0.4530140000000  0.5828860000000  0.5311060000000 1.0
C      1  0.5215030000000  0.5440190000000  0.4934170000000 1.0
C      1  0.4398840000000  0.4456460000000  0.4295190000000 1.0
C      1  0.4542040000000  0.4446780000000  0.5749440000000 1.0
C      1  0.4977870000000  0.4459380000000  0.4140000000000 1.0
C      1  0.5000390000000  0.5532710000000  0.4325060000000 1.0
C      1  0.5142110000000  0.4779450000000  0.4808280000000 1.0
C      1  0.4531280000000  0.4225510000000  0.4507500000000 1.0
C      1  0.4068850000000  0.5453330000000  0.4765510000000 1.0
C      1  0.5477590000000  0.5911440000000  0.5135450000000 1.0
C      1  0.4157470000000  0.4802240000000  0.5298990000000 1.0
C      1  0.4366700000000  0.5871750000000  0.4825340000000 1.0
C      1  0.4723580000000  0.5341480000000  0.4268350000000 1.0
C      1  0.5268020000000  0.5484780000000  0.5655320000000 1.0
C      1  0.5699560000000  0.4936880000000  0.4261770000000 1.0
C      1  0.4894950000000  0.5412000000000  0.5324180000000 1.0
C      1  0.4491920000000  0.4585360000000  0.4982880000000 1.0
C      1  0.4613180000000  0.5261800000000  0.5369260000000 1.0
END
