TITL C-2778428-5639-320 -0.00225103561374014 125000 -868.821393066477 0 0 148 (C1) n - 1
REM
REM in /home/nfs/bkarasulu/CARBON/AIRSS/Generating-Clusters/REBO/Only-C1/SD-CG/HFTN-CG
REM
REM
REM
REM
REM
REM ./C.cell (11c1c37f851c82e70ff6c80c92926a4b)
REM
REM compiler GCC version 9.2.1 20190827 (Red Hat 9.2.1-1)
REM options -cpp -mtune=generic -march=x86-64 -g -O0 -fpre-include=/usr/include/finclude/math-vector-fortran.h
REM seed 1751872248 -1862912831 1365466250 1212530614 974754911 1580416215 1394130206 15025452 -1628348325 1318555320 -908680585 221490982 1501178336 786708788 -965983978 2081276595 653576562 -548209506 1661143365 920214616 1597219516 207230964 1386125163 746429546 665615918 -17883864 1670458883 -882550187 983999301 -1928708487 1725458642 641355212 -2083898626
REM
CELL 1.54180   50.00000   50.00000   50.00000   90.00000   90.00000   90.00000
LATT -1
SFAC C  
C      1  0.4634190000000  0.5061990000000  0.4387470000000 1.0
C      1  0.5017660000000  0.4448580000000  0.5332650000000 1.0
C      1  0.5387250000000  0.5219650000000  0.5781560000000 1.0
C      1  0.4466740000000  0.5608820000000  0.4100700000000 1.0
C      1  0.4787380000000  0.4933230000000  0.4147890000000 1.0
C      1  0.5147490000000  0.5905240000000  0.5202290000000 1.0
C      1  0.4755960000000  0.4844960000000  0.5943460000000 1.0
C      1  0.4700890000000  0.5560470000000  0.3958570000000 1.0
C      1  0.4057560000000  0.4867540000000  0.5044110000000 1.0
C      1  0.5711620000000  0.4221440000000  0.5060340000000 1.0
C      1  0.4467380000000  0.4500990000000  0.5612800000000 1.0
C      1  0.5348600000000  0.4196000000000  0.4288530000000 1.0
C      1  0.5567090000000  0.4849250000000  0.4222640000000 1.0
C      1  0.5017000000000  0.5587470000000  0.4828640000000 1.0
C      1  0.5393800000000  0.4650530000000  0.4707860000000 1.0
C      1  0.4476410000000  0.4156940000000  0.4859800000000 1.0
C      1  0.5499510000000  0.4276320000000  0.5774950000000 1.0
C      1  0.4737750000000  0.5659280000000  0.4853610000000 1.0
C      1  0.3876090000000  0.5419320000000  0.5108380000000 1.0
C      1  0.4586220000000  0.5507770000000  0.5083310000000 1.0
C      1  0.4696560000000  0.4887810000000  0.4661430000000 1.0
C      1  0.4360730000000  0.4752800000000  0.5435090000000 1.0
C      1  0.4560590000000  0.4546060000000  0.4504580000000 1.0
C      1  0.4611510000000  0.5197080000000  0.5464670000000 1.0
C      1  0.5341610000000  0.4361180000000  0.5118400000000 1.0
C      1  0.4883940000000  0.4701250000000  0.5450700000000 1.0
C      1  0.3919140000000  0.4919580000000  0.5553980000000 1.0
C      1  0.5178430000000  0.4934050000000  0.4528850000000 1.0
C      1  0.4987960000000  0.4884730000000  0.4017330000000 1.0
C      1  0.5161780000000  0.4454260000000  0.4384090000000 1.0
C      1  0.5847280000000  0.5188930000000  0.5124780000000 1.0
C      1  0.4659400000000  0.4763580000000  0.5287880000000 1.0
C      1  0.5231020000000  0.5394010000000  0.4091950000000 1.0
C      1  0.5485100000000  0.5602650000000  0.4496590000000 1.0
C      1  0.5248090000000  0.4731390000000  0.4306940000000 1.0
C      1  0.5443310000000  0.5660500000000  0.5558210000000 1.0
C      1  0.6077640000000  0.4863450000000  0.5129490000000 1.0
C      1  0.4771590000000  0.6057680000000  0.4573370000000 1.0
C      1  0.5387600000000  0.4048210000000  0.4652670000000 1.0
C      1  0.5762620000000  0.4374940000000  0.4480380000000 1.0
C      1  0.5557930000000  0.5802760000000  0.4982000000000 1.0
C      1  0.5676860000000  0.5032850000000  0.4988340000000 1.0
C      1  0.5352340000000  0.5052330000000  0.5261790000000 1.0
C      1  0.5354740000000  0.4975820000000  0.5975780000000 1.0
C      1  0.4715330000000  0.4341240000000  0.5444190000000 1.0
C      1  0.4652760000000  0.4375520000000  0.4297080000000 1.0
C      1  0.5186480000000  0.4971550000000  0.5019900000000 1.0
C      1  0.4064690000000  0.5682210000000  0.5145750000000 1.0
C      1  0.4589430000000  0.5670040000000  0.5384910000000 1.0
C      1  0.5035230000000  0.4346620000000  0.5834910000000 1.0
C      1  0.5572560000000  0.5416550000000  0.5642410000000 1.0
C      1  0.4853710000000  0.5239200000000  0.5344620000000 1.0
C      1  0.5111220000000  0.4522530000000  0.4696660000000 1.0
C      1  0.4254450000000  0.4308980000000  0.4811080000000 1.0
C      1  0.4943190000000  0.4044160000000  0.5050920000000 1.0
C      1  0.4511400000000  0.5375290000000  0.4637670000000 1.0
C      1  0.5304590000000  0.4418020000000  0.5456200000000 1.0
C      1  0.4581360000000  0.5994860000000  0.5011790000000 1.0
C      1  0.4493580000000  0.5096880000000  0.4783830000000 1.0
C      1  0.5231100000000  0.4158050000000  0.5747410000000 1.0
C      1  0.5434840000000  0.5772890000000  0.5294540000000 1.0
C      1  0.5749950000000  0.5136550000000  0.5636370000000 1.0
C      1  0.4651480000000  0.5959640000000  0.5326480000000 1.0
C      1  0.4235630000000  0.4622380000000  0.4933730000000 1.0
C      1  0.5041450000000  0.4426470000000  0.5005270000000 1.0
C      1  0.4300350000000  0.4549310000000  0.4610750000000 1.0
C      1  0.3905390000000  0.5458720000000  0.5432970000000 1.0
C      1  0.5457050000000  0.4816260000000  0.4956460000000 1.0
C      1  0.5146700000000  0.4799630000000  0.6007410000000 1.0
C      1  0.5051050000000  0.5423100000000  0.4603570000000 1.0
C      1  0.4788050000000  0.5361810000000  0.4435150000000 1.0
C      1  0.5252590000000  0.3978280000000  0.5181820000000 1.0
C      1  0.4955090000000  0.4670020000000  0.5749460000000 1.0
C      1  0.4380080000000  0.5834370000000  0.4888270000000 1.0
C      1  0.5899150000000  0.4806810000000  0.4675970000000 1.0
C      1  0.6047680000000  0.5176110000000  0.4646120000000 1.0
C      1  0.5302340000000  0.4901920000000  0.4021940000000 1.0
C      1  0.5358400000000  0.5801440000000  0.4341620000000 1.0
C      1  0.4910030000000  0.5478720000000  0.4155750000000 1.0
C      1  0.5962980000000  0.5056770000000  0.5383470000000 1.0
C      1  0.4948250000000  0.5310020000000  0.5970070000000 1.0
C      1  0.5779080000000  0.4571920000000  0.5388620000000 1.0
C      1  0.4746850000000  0.5120660000000  0.5947200000000 1.0
C      1  0.5273150000000  0.5026560000000  0.5587750000000 1.0
C      1  0.6073280000000  0.4967940000000  0.4864530000000 1.0
C      1  0.4535790000000  0.4320220000000  0.5218990000000 1.0
C      1  0.5985310000000  0.4596540000000  0.5157950000000 1.0
C      1  0.4494140000000  0.4579490000000  0.5102250000000 1.0
C      1  0.4613390000000  0.5555190000000  0.5654760000000 1.0
C      1  0.5293650000000  0.5350610000000  0.5355950000000 1.0
C      1  0.5768060000000  0.5616230000000  0.4869670000000 1.0
C      1  0.5905980000000  0.4408420000000  0.4957280000000 1.0
C      1  0.4304370000000  0.5577330000000  0.4782510000000 1.0
C      1  0.4042460000000  0.5465540000000  0.4811660000000 1.0
C      1  0.4903720000000  0.4255810000000  0.4324500000000 1.0
C      1  0.5903370000000  0.5447880000000  0.5044710000000 1.0
C      1  0.4313760000000  0.5631450000000  0.5225450000000 1.0
C      1  0.5845860000000  0.5295360000000  0.4480780000000 1.0
C      1  0.5446950000000  0.4788470000000  0.5441450000000 1.0
C      1  0.4940240000000  0.5525230000000  0.5737020000000 1.0
C      1  0.5372860000000  0.4097960000000  0.5440530000000 1.0
C      1  0.4576990000000  0.4631620000000  0.5873690000000 1.0
C      1  0.5825670000000  0.4807070000000  0.5564880000000 1.0
C      1  0.5505510000000  0.4580600000000  0.5678010000000 1.0
C      1  0.5601510000000  0.4638170000000  0.4469080000000 1.0
C      1  0.5680610000000  0.5166630000000  0.4273460000000 1.0
C      1  0.5606460000000  0.4147620000000  0.4444170000000 1.0
C      1  0.5096440000000  0.4511320000000  0.6085470000000 1.0
C      1  0.5596990000000  0.4879590000000  0.5800230000000 1.0
C      1  0.4509070000000  0.5698360000000  0.4404790000000 1.0
C      1  0.4220280000000  0.4980830000000  0.4773460000000 1.0
C      1  0.3944450000000  0.5115230000000  0.5745800000000 1.0
C      1  0.5201990000000  0.5710730000000  0.5709870000000 1.0
C      1  0.4891430000000  0.5099940000000  0.5058950000000 1.0
C      1  0.4073810000000  0.4836530000000  0.5348410000000 1.0
C      1  0.4767180000000  0.4266940000000  0.4897890000000 1.0
C      1  0.5047470000000  0.5393180000000  0.5463870000000 1.0
C      1  0.5512420000000  0.4615960000000  0.5179320000000 1.0
C      1  0.4255950000000  0.4318070000000  0.5667600000000 1.0
C      1  0.5408470000000  0.5106120000000  0.4559960000000 1.0
C      1  0.4101030000000  0.5031990000000  0.4502860000000 1.0
C      1  0.5006280000000  0.3746330000000  0.5146810000000 1.0
C      1  0.5606180000000  0.6071460000000  0.4908590000000 1.0
C      1  0.5655200000000  0.4265060000000  0.5350060000000 1.0
C      1  0.5445330000000  0.4091410000000  0.4941560000000 1.0
C      1  0.4545240000000  0.5239840000000  0.5765980000000 1.0
C      1  0.4247280000000  0.4993550000000  0.4013960000000 1.0
C      1  0.5321280000000  0.5373360000000  0.4538840000000 1.0
C      1  0.5417260000000  0.5195680000000  0.4099190000000 1.0
C      1  0.5168360000000  0.5693580000000  0.4167470000000 1.0
C      1  0.4785460000000  0.4566160000000  0.4732660000000 1.0
C      1  0.4896420000000  0.6021300000000  0.5139520000000 1.0
C      1  0.5909100000000  0.4515760000000  0.4692840000000 1.0
C      1  0.3921600000000  0.5216560000000  0.4656020000000 1.0
C      1  0.5744060000000  0.5544950000000  0.4595210000000 1.0
C      1  0.4309710000000  0.5091510000000  0.4293400000000 1.0
C      1  0.4404230000000  0.5059750000000  0.5302760000000 1.0
C      1  0.4579260000000  0.5196120000000  0.5059260000000 1.0
C      1  0.3886050000000  0.5131080000000  0.4953150000000 1.0
C      1  0.4402380000000  0.5382650000000  0.4331250000000 1.0
C      1  0.5110860000000  0.4069140000000  0.4476920000000 1.0
C      1  0.5230600000000  0.5712250000000  0.4964140000000 1.0
C      1  0.4984930000000  0.4954080000000  0.4763570000000 1.0
C      1  0.4037200000000  0.5375340000000  0.5670090000000 1.0
C      1  0.4299100000000  0.5452470000000  0.5746740000000 1.0
C      1  0.4662270000000  0.5809260000000  0.4607940000000 1.0
C      1  0.5638560000000  0.4945700000000  0.4602750000000 1.0
C      1  0.4745850000000  0.5583640000000  0.3688570000000 1.0
END
