TITL C-2778426-5645-1198 0.00138379886616693 125000 -364.787017971835 0 0 64 (C1) n - 1
REM
REM in /home/nfs/bkarasulu/CARBON/AIRSS/Generating-Clusters/REBO/Only-C1/SD-CG/HFTN-CG
REM
REM
REM
REM
REM
REM ./C.cell (11c1c37f851c82e70ff6c80c92926a4b)
REM
REM compiler GCC version 9.2.1 20190827 (Red Hat 9.2.1-1)
REM options -cpp -mtune=generic -march=x86-64 -g -O0 -fpre-include=/usr/include/finclude/math-vector-fortran.h
REM seed 158039444 543969111 1439359049 -458561280 2038721500 -2017870513 -1368145371 -1419662915 -1440044852 -364998335 -314507274 -1088432015 -171472198 -1085008631 1200816934 -1286187526 1990135394 15155839 1627996522 -1282546099 -89553401 -2136696942 1873662035 1813431837 -700542754 493836783 -1079616498 1632737025 542493482 -1161251696 -1560798195 1619163722 -309618610
REM
CELL 1.54180   50.00000   50.00000   50.00000   90.00000   90.00000   90.00000
LATT -1
SFAC C  
C      1  0.4776360000000  0.5546660000000  0.4568420000000 1.0
C      1  0.5597740000000  0.4699990000000  0.4861790000000 1.0
C      1  0.4245820000000  0.5064590000000  0.4699680000000 1.0
C      1  0.5729070000000  0.5207690000000  0.4969690000000 1.0
C      1  0.4881570000000  0.4281200000000  0.5049910000000 1.0
C      1  0.4246880000000  0.4989330000000  0.4973260000000 1.0
C      1  0.4910380000000  0.4348150000000  0.5340090000000 1.0
C      1  0.5539740000000  0.5396690000000  0.4770180000000 1.0
C      1  0.4793920000000  0.4594880000000  0.5423050000000 1.0
C      1  0.4570950000000  0.5089560000000  0.5183910000000 1.0
C      1  0.4662750000000  0.5263600000000  0.4662590000000 1.0
C      1  0.5574470000000  0.4666590000000  0.5443730000000 1.0
C      1  0.4240500000000  0.5459070000000  0.5290670000000 1.0
C      1  0.5161580000000  0.4598590000000  0.4523290000000 1.0
C      1  0.5364990000000  0.4542820000000  0.4951670000000 1.0
C      1  0.4983530000000  0.4727100000000  0.5570300000000 1.0
C      1  0.4708020000000  0.4975700000000  0.4703380000000 1.0
C      1  0.4868470000000  0.4597240000000  0.5030310000000 1.0
C      1  0.5306970000000  0.4616040000000  0.5578990000000 1.0
C      1  0.5169130000000  0.4685400000000  0.5114910000000 1.0
C      1  0.4707010000000  0.5659430000000  0.5192110000000 1.0
C      1  0.4372430000000  0.4741260000000  0.5047780000000 1.0
C      1  0.5352870000000  0.5580850000000  0.4576650000000 1.0
C      1  0.5505000000000  0.4918190000000  0.4713950000000 1.0
C      1  0.4516910000000  0.4635470000000  0.4330200000000 1.0
C      1  0.5444720000000  0.5322140000000  0.5626390000000 1.0
C      1  0.4542200000000  0.4515960000000  0.4589580000000 1.0
C      1  0.4578890000000  0.4919210000000  0.4328390000000 1.0
C      1  0.4962040000000  0.5582390000000  0.5406790000000 1.0
C      1  0.4960500000000  0.5472140000000  0.5667300000000 1.0
C      1  0.5107270000000  0.4800190000000  0.4291980000000 1.0
C      1  0.5189500000000  0.4894720000000  0.5736660000000 1.0
C      1  0.4669870000000  0.4973750000000  0.5551270000000 1.0
C      1  0.5250210000000  0.5490450000000  0.5255890000000 1.0
C      1  0.4748230000000  0.4672890000000  0.4734990000000 1.0
C      1  0.4376830000000  0.5071170000000  0.4460610000000 1.0
C      1  0.4673430000000  0.5611000000000  0.4856100000000 1.0
C      1  0.4852930000000  0.5093940000000  0.5660560000000 1.0
C      1  0.5732600000000  0.4791170000000  0.5268960000000 1.0
C      1  0.4428810000000  0.5654000000000  0.5318240000000 1.0
C      1  0.5298220000000  0.5170220000000  0.5286810000000 1.0
C      1  0.5204240000000  0.4888770000000  0.4666320000000 1.0
C      1  0.5165870000000  0.4330880000000  0.5478320000000 1.0
C      1  0.4562320000000  0.4770870000000  0.5304910000000 1.0
C      1  0.5042230000000  0.4196600000000  0.4829960000000 1.0
C      1  0.5003960000000  0.5365970000000  0.4839650000000 1.0
C      1  0.5853990000000  0.4628700000000  0.4912140000000 1.0
C      1  0.5426780000000  0.5190870000000  0.4535600000000 1.0
C      1  0.4696000000000  0.5306540000000  0.5000070000000 1.0
C      1  0.5085770000000  0.5533590000000  0.4581430000000 1.0
C      1  0.4809700000000  0.4925030000000  0.5031570000000 1.0
C      1  0.4390480000000  0.4536990000000  0.4850560000000 1.0
C      1  0.5795000000000  0.4982130000000  0.5089700000000 1.0
C      1  0.5590710000000  0.5395850000000  0.5439840000000 1.0
C      1  0.5219560000000  0.4401950000000  0.4732540000000 1.0
C      1  0.5352950000000  0.5002640000000  0.4261410000000 1.0
C      1  0.5058760000000  0.5068140000000  0.4868910000000 1.0
C      1  0.5166430000000  0.5212610000000  0.5722700000000 1.0
C      1  0.4855000000000  0.4992930000000  0.4332060000000 1.0
C      1  0.5192030000000  0.4970820000000  0.5139600000000 1.0
C      1  0.4269440000000  0.5203480000000  0.5185740000000 1.0
C      1  0.5110670000000  0.5180250000000  0.4402810000000 1.0
C      1  0.5001590000000  0.5553250000000  0.5073550000000 1.0
C      1  0.5543240000000  0.5439720000000  0.5109610000000 1.0
END
