TITL C-2778433-5640-814 1.24267925575715e-06 125000 -74.914751101987 0 0 14 (Cs) n - 1
REM
REM in /home/nfs/bkarasulu/CARBON/AIRSS/Generating-Clusters/REBO/Only-C1/SD-CG/HFTN-CG
REM
REM
REM
REM
REM
REM ./C.cell (11c1c37f851c82e70ff6c80c92926a4b)
REM
REM compiler GCC version 9.2.1 20190827 (Red Hat 9.2.1-1)
REM options -cpp -mtune=generic -march=x86-64 -g -O0 -fpre-include=/usr/include/finclude/math-vector-fortran.h
REM seed 1654697022 623264985 229428644 -1369734883 -811311904 1456170012 223158381 -630425868 -828534783 -831949769 -1890700732 -567810039 1038067823 -2002775416 1415730746 -792505188 1254254610 821509383 -674931922 -1486986895 -588076972 -1151120241 288236063 -120480380 575511040 -1666726665 1333927616 -1179598409 81796430 1742114416 -362310653 -1510682182 -1402227103
REM
CELL 1.54180   50.00000   50.00000   50.00000   90.00000   90.00000   90.00000
LATT -1
SFAC C  
C      1  0.5077330000000  0.4480330000000  0.4590280000000 1.0
C      1  0.4931090000000  0.5941070000000  0.5550150000000 1.0
C      1  0.4905120000000  0.4449110000000  0.5042560000000 1.0
C      1  0.4811070000000  0.4305470000000  0.5240560000000 1.0
C      1  0.4995490000000  0.5534370000000  0.5219040000000 1.0
C      1  0.5034250000000  0.4880830000000  0.4861520000000 1.0
C      1  0.5134780000000  0.5069820000000  0.4663610000000 1.0
C      1  0.5144720000000  0.4365960000000  0.4364310000000 1.0
C      1  0.5131830000000  0.5330630000000  0.4772520000000 1.0
C      1  0.4968270000000  0.5038720000000  0.5100550000000 1.0
C      1  0.5029250000000  0.5321160000000  0.5045460000000 1.0
C      1  0.4868320000000  0.4940860000000  0.5332170000000 1.0
C      1  0.4963030000000  0.5739350000000  0.5385930000000 1.0
C      1  0.5005450000000  0.4602330000000  0.4831330000000 1.0
END
