TITL C-2778431-5191-1206 0.000117265117270994 125000 -951.207608033793 0 0 166 (C1) n - 1
REM
REM in /home/nfs/bkarasulu/CARBON/AIRSS/Generating-Clusters/REBO/Only-C1/SD-CG/HFTN-CG
REM
REM
REM
REM
REM
REM ./C.cell (11c1c37f851c82e70ff6c80c92926a4b)
REM
REM compiler GCC version 9.2.1 20190827 (Red Hat 9.2.1-1)
REM options -cpp -mtune=generic -march=x86-64 -g -O0 -fpre-include=/usr/include/finclude/math-vector-fortran.h
REM seed -100588197 -421180281 -1940257512 230469182 -1554150797 891002188 -972725931 -1056215753 792330454 -936482757 1222995436 -213289190 683866307 1896480381 -873149586 1921805416 -2063623378 -1816570585 488384730 -61571072 150060975 4411270 -999158612 -1911953332 505272481 -1317577345 800056553 616595883 -630385119 451924409 1554050231 93434193 -1007943376
REM
CELL 1.54180   50.00000   50.00000   50.00000   90.00000   90.00000   90.00000
LATT -1
SFAC C  
C      1  0.4628460000000  0.4739570000000  0.5368590000000 1.0
C      1  0.4219730000000  0.4455430000000  0.4498170000000 1.0
C      1  0.5054150000000  0.5013640000000  0.5631540000000 1.0
C      1  0.4858150000000  0.4745930000000  0.5602980000000 1.0
C      1  0.4311580000000  0.5213510000000  0.4850410000000 1.0
C      1  0.4613230000000  0.5845660000000  0.5300390000000 1.0
C      1  0.4812070000000  0.4253400000000  0.4879180000000 1.0
C      1  0.5860520000000  0.5673880000000  0.4870780000000 1.0
C      1  0.4028410000000  0.5084430000000  0.4896580000000 1.0
C      1  0.5383670000000  0.3965220000000  0.5049880000000 1.0
C      1  0.5786320000000  0.4885730000000  0.5489990000000 1.0
C      1  0.5058880000000  0.4416300000000  0.4307520000000 1.0
C      1  0.4433550000000  0.5678530000000  0.5524370000000 1.0
C      1  0.4802260000000  0.4058620000000  0.5424560000000 1.0
C      1  0.6002600000000  0.5071570000000  0.5381280000000 1.0
C      1  0.4009870000000  0.5563050000000  0.5050450000000 1.0
C      1  0.5359320000000  0.4758890000000  0.5561610000000 1.0
C      1  0.5363700000000  0.4742310000000  0.4514900000000 1.0
C      1  0.4148710000000  0.4217870000000  0.4673020000000 1.0
C      1  0.5437150000000  0.5913570000000  0.5044880000000 1.0
C      1  0.5475970000000  0.4162420000000  0.4379000000000 1.0
C      1  0.5178950000000  0.4817430000000  0.4086610000000 1.0
C      1  0.5127410000000  0.6011880000000  0.4928660000000 1.0
C      1  0.5639950000000  0.4247870000000  0.4653060000000 1.0
C      1  0.5425270000000  0.5018040000000  0.4797260000000 1.0
C      1  0.5055920000000  0.5458360000000  0.4853120000000 1.0
C      1  0.5185530000000  0.5561020000000  0.5732230000000 1.0
C      1  0.4584540000000  0.4834750000000  0.4401340000000 1.0
C      1  0.4082330000000  0.5567300000000  0.4727440000000 1.0
C      1  0.5326780000000  0.4372310000000  0.4867080000000 1.0
C      1  0.5412130000000  0.5584370000000  0.4952110000000 1.0
C      1  0.4391900000000  0.5449270000000  0.5041400000000 1.0
C      1  0.4876210000000  0.4961260000000  0.4814530000000 1.0
C      1  0.5914210000000  0.5293420000000  0.4388880000000 1.0
C      1  0.5393930000000  0.5144930000000  0.5962280000000 1.0
C      1  0.4432400000000  0.5139110000000  0.5672170000000 1.0
C      1  0.5848960000000  0.5261860000000  0.5154110000000 1.0
C      1  0.4925730000000  0.5815600000000  0.5371150000000 1.0
C      1  0.5154230000000  0.5276800000000  0.4032750000000 1.0
C      1  0.6031550000000  0.4994190000000  0.5050200000000 1.0
C      1  0.5337600000000  0.6237900000000  0.5020430000000 1.0
C      1  0.5098250000000  0.5274190000000  0.5848380000000 1.0
C      1  0.4871160000000  0.4939790000000  0.4497750000000 1.0
C      1  0.4667920000000  0.5492900000000  0.4937350000000 1.0
C      1  0.4800330000000  0.5653210000000  0.4366180000000 1.0
C      1  0.4513510000000  0.4589400000000  0.4598130000000 1.0
C      1  0.4612590000000  0.4236210000000  0.4416670000000 1.0
C      1  0.4513760000000  0.5127290000000  0.4516780000000 1.0
C      1  0.4738060000000  0.5163360000000  0.5148450000000 1.0
C      1  0.5530960000000  0.5297900000000  0.5196080000000 1.0
C      1  0.5202620000000  0.4159040000000  0.4361510000000 1.0
C      1  0.5235220000000  0.4204310000000  0.5569550000000 1.0
C      1  0.5516320000000  0.5455920000000  0.4110310000000 1.0
C      1  0.5260720000000  0.4636600000000  0.4277760000000 1.0
C      1  0.5660660000000  0.4868160000000  0.4981670000000 1.0
C      1  0.5043170000000  0.4617000000000  0.6020270000000 1.0
C      1  0.4910730000000  0.5429300000000  0.5473260000000 1.0
C      1  0.4569590000000  0.4479800000000  0.4219490000000 1.0
C      1  0.4823440000000  0.4611310000000  0.4171730000000 1.0
C      1  0.4708910000000  0.5011480000000  0.6045270000000 1.0
C      1  0.5766930000000  0.5795710000000  0.4568000000000 1.0
C      1  0.5769570000000  0.4521870000000  0.4511520000000 1.0
C      1  0.4077170000000  0.4775100000000  0.5417580000000 1.0
C      1  0.4850300000000  0.4441490000000  0.5869430000000 1.0
C      1  0.4617360000000  0.4810690000000  0.5835940000000 1.0
C      1  0.4798030000000  0.4085660000000  0.4639540000000 1.0
C      1  0.6012930000000  0.5556520000000  0.4585340000000 1.0
C      1  0.5678470000000  0.5063200000000  0.5813920000000 1.0
C      1  0.3885240000000  0.4984660000000  0.4646830000000 1.0
C      1  0.4061440000000  0.4727070000000  0.4582520000000 1.0
C      1  0.4309690000000  0.4693260000000  0.4272360000000 1.0
C      1  0.5440830000000  0.4465960000000  0.5109070000000 1.0
C      1  0.5248700000000  0.4469460000000  0.5310050000000 1.0
C      1  0.5211620000000  0.4747150000000  0.4801090000000 1.0
C      1  0.5181330000000  0.5486560000000  0.5182350000000 1.0
C      1  0.5657150000000  0.4968500000000  0.4115080000000 1.0
C      1  0.5969580000000  0.4714890000000  0.4646120000000 1.0
C      1  0.4672090000000  0.4252980000000  0.5176560000000 1.0
C      1  0.4102930000000  0.5101540000000  0.5424840000000 1.0
C      1  0.4770540000000  0.4350740000000  0.5550330000000 1.0
C      1  0.5459850000000  0.5380420000000  0.5721660000000 1.0
C      1  0.4755040000000  0.5956830000000  0.4521210000000 1.0
C      1  0.4328680000000  0.5454280000000  0.5748370000000 1.0
C      1  0.5075190000000  0.3987750000000  0.5434580000000 1.0
C      1  0.5329920000000  0.5137830000000  0.4270740000000 1.0
C      1  0.5205920000000  0.4893800000000  0.5904190000000 1.0
C      1  0.5193120000000  0.5267610000000  0.5446020000000 1.0
C      1  0.4519630000000  0.5250690000000  0.4033380000000 1.0
C      1  0.4256890000000  0.5675780000000  0.5256940000000 1.0
C      1  0.4488590000000  0.5258070000000  0.5975890000000 1.0
C      1  0.5687700000000  0.5463770000000  0.4553600000000 1.0
C      1  0.5120570000000  0.4526570000000  0.5613510000000 1.0
C      1  0.5734060000000  0.5764870000000  0.5097300000000 1.0
C      1  0.4726530000000  0.5245320000000  0.4710610000000 1.0
C      1  0.5262660000000  0.4872220000000  0.5279840000000 1.0
C      1  0.5355370000000  0.4073750000000  0.4749350000000 1.0
C      1  0.4808970000000  0.5227350000000  0.4035210000000 1.0
C      1  0.5931630000000  0.5010460000000  0.4512860000000 1.0
C      1  0.4265130000000  0.4561310000000  0.5578130000000 1.0
C      1  0.5694770000000  0.5254920000000  0.4156140000000 1.0
C      1  0.5303280000000  0.5118090000000  0.5093070000000 1.0
C      1  0.4431370000000  0.4705690000000  0.4862460000000 1.0
C      1  0.4814340000000  0.5317970000000  0.5944640000000 1.0
C      1  0.5583110000000  0.4881480000000  0.5254290000000 1.0
C      1  0.6030010000000  0.4704140000000  0.4915980000000 1.0
C      1  0.4479310000000  0.5614270000000  0.4370370000000 1.0
C      1  0.4907810000000  0.4860510000000  0.6189440000000 1.0
C      1  0.4385200000000  0.5480280000000  0.4644690000000 1.0
C      1  0.5702750000000  0.4502420000000  0.5217090000000 1.0
C      1  0.5017100000000  0.5183670000000  0.4990600000000 1.0
C      1  0.5465300000000  0.5772340000000  0.4673140000000 1.0
C      1  0.5763450000000  0.4786300000000  0.4318150000000 1.0
C      1  0.4262590000000  0.4515030000000  0.5045250000000 1.0
C      1  0.4050070000000  0.5271380000000  0.5147370000000 1.0
C      1  0.5735420000000  0.4592860000000  0.5483130000000 1.0
C      1  0.5680310000000  0.5570950000000  0.5337090000000 1.0
C      1  0.4041890000000  0.4744800000000  0.4922530000000 1.0
C      1  0.5069630000000  0.5766710000000  0.4729480000000 1.0
C      1  0.5534970000000  0.4218980000000  0.5443070000000 1.0
C      1  0.4551570000000  0.4493950000000  0.5724350000000 1.0
C      1  0.4501650000000  0.5917300000000  0.4352690000000 1.0
C      1  0.4917940000000  0.4481210000000  0.5272400000000 1.0
C      1  0.4445640000000  0.4477120000000  0.5302110000000 1.0
C      1  0.4509050000000  0.5006590000000  0.4958280000000 1.0
C      1  0.5180610000000  0.3842560000000  0.5208210000000 1.0
C      1  0.4739390000000  0.5710590000000  0.4755760000000 1.0
C      1  0.4352690000000  0.5292690000000  0.5314870000000 1.0
C      1  0.5025680000000  0.4474480000000  0.4800100000000 1.0
C      1  0.4539880000000  0.5908460000000  0.5040380000000 1.0
C      1  0.5249150000000  0.5839020000000  0.5368040000000 1.0
C      1  0.4894900000000  0.4944660000000  0.4160490000000 1.0
C      1  0.5241700000000  0.5773730000000  0.4470460000000 1.0
C      1  0.5362230000000  0.4592110000000  0.5922980000000 1.0
C      1  0.4942410000000  0.5435030000000  0.4549030000000 1.0
C      1  0.5818170000000  0.5090110000000  0.4798940000000 1.0
C      1  0.4828270000000  0.4472270000000  0.4545570000000 1.0
C      1  0.4647360000000  0.5248990000000  0.5439020000000 1.0
C      1  0.4942450000000  0.5535340000000  0.4100570000000 1.0
C      1  0.5934560000000  0.4467390000000  0.5034420000000 1.0
C      1  0.5255860000000  0.5642800000000  0.4181230000000 1.0
C      1  0.4302600000000  0.4787280000000  0.5810560000000 1.0
C      1  0.5182310000000  0.5388410000000  0.4382760000000 1.0
C      1  0.5957220000000  0.5404310000000  0.5442980000000 1.0
C      1  0.4920780000000  0.5700360000000  0.5671840000000 1.0
C      1  0.5469090000000  0.5010550000000  0.4465530000000 1.0
C      1  0.5434880000000  0.5647800000000  0.5517430000000 1.0
C      1  0.5054970000000  0.3616390000000  0.5121790000000 1.0
C      1  0.4845590000000  0.5547420000000  0.5175000000000 1.0
C      1  0.5443200000000  0.5073360000000  0.5573920000000 1.0
C      1  0.4216270000000  0.4985910000000  0.4424790000000 1.0
C      1  0.5072240000000  0.4004500000000  0.4573930000000 1.0
C      1  0.5512410000000  0.4473250000000  0.5670930000000 1.0
C      1  0.4389750000000  0.4916070000000  0.5444010000000 1.0
C      1  0.5056590000000  0.4739750000000  0.5093790000000 1.0
C      1  0.4649690000000  0.5556610000000  0.5764180000000 1.0
C      1  0.4415380000000  0.4069500000000  0.5060370000000 1.0
C      1  0.4388790000000  0.5320650000000  0.4279820000000 1.0
C      1  0.5602430000000  0.4107260000000  0.5175870000000 1.0
C      1  0.4743080000000  0.4777650000000  0.5071710000000 1.0
C      1  0.4227990000000  0.4230000000000  0.4934440000000 1.0
C      1  0.5573270000000  0.5329820000000  0.4800510000000 1.0
C      1  0.3931490000000  0.4679060000000  0.5195820000000 1.0
C      1  0.4129890000000  0.5305410000000  0.4507800000000 1.0
C      1  0.4796220000000  0.6028530000000  0.4851930000000 1.0
C      1  0.4235270000000  0.5798470000000  0.4934670000000 1.0
C      1  0.5775650000000  0.4216380000000  0.4950400000000 1.0
END
