TITL C-2778422-5617-1335 -0.0069159848019736 125000 -1045.56289529366 0 0 178 (C1) n - 1
REM
REM in /home/nfs/bkarasulu/CARBON/AIRSS/Generating-Clusters/REBO/Only-C1/SD-CG/HFTN-CG
REM
REM
REM
REM
REM
REM ./C.cell (11c1c37f851c82e70ff6c80c92926a4b)
REM
REM compiler GCC version 9.2.1 20190827 (Red Hat 9.2.1-1)
REM options -cpp -mtune=generic -march=x86-64 -g -O0 -fpre-include=/usr/include/finclude/math-vector-fortran.h
REM seed 827026770 -858759856 -1812487468 943518742 2056530214 1777088376 -720430326 -1682215704 60376358 1604896555 -2049132811 1542686501 -452122975 -258372758 179366586 -1075318831 -1515457433 605314466 -1016432594 433762758 1353579886 1258309563 -1861916836 -1213087592 -736284821 1226339385 1278273721 -1235722108 -1969690516 -1513272606 1285303647 -1009626805 -359646062
REM
CELL 1.54180   50.00000   50.00000   50.00000   90.00000   90.00000   90.00000
LATT -1
SFAC C  
C      1  0.4613980000000  0.5525670000000  0.5036150000000 1.0
C      1  0.5242690000000  0.4237990000000  0.4779050000000 1.0
C      1  0.5206610000000  0.4088640000000  0.5371800000000 1.0
C      1  0.4895980000000  0.5806310000000  0.5133420000000 1.0
C      1  0.5730750000000  0.4358440000000  0.5348700000000 1.0
C      1  0.5275110000000  0.4531540000000  0.4310410000000 1.0
C      1  0.5091930000000  0.4129810000000  0.4378350000000 1.0
C      1  0.4494300000000  0.4411650000000  0.5959960000000 1.0
C      1  0.5953620000000  0.5045560000000  0.4490810000000 1.0
C      1  0.5411570000000  0.5000890000000  0.5466760000000 1.0
C      1  0.4791160000000  0.4615980000000  0.5717590000000 1.0
C      1  0.5391270000000  0.5198900000000  0.4649470000000 1.0
C      1  0.5415280000000  0.5085250000000  0.6028020000000 1.0
C      1  0.4415560000000  0.5176700000000  0.4452520000000 1.0
C      1  0.5170300000000  0.5061390000000  0.6229790000000 1.0
C      1  0.6082070000000  0.4908530000000  0.5371550000000 1.0
C      1  0.5702740000000  0.5252030000000  0.5593410000000 1.0
C      1  0.6047620000000  0.5166210000000  0.5213300000000 1.0
C      1  0.5226380000000  0.6150800000000  0.5128470000000 1.0
C      1  0.4776400000000  0.4085100000000  0.4502320000000 1.0
C      1  0.5377090000000  0.5562320000000  0.5048360000000 1.0
C      1  0.4860040000000  0.5007170000000  0.6189900000000 1.0
C      1  0.5503640000000  0.5412930000000  0.5818020000000 1.0
C      1  0.4663560000000  0.5329240000000  0.5603050000000 1.0
C      1  0.5133050000000  0.5370040000000  0.4567890000000 1.0
C      1  0.4448860000000  0.4812750000000  0.5692250000000 1.0
C      1  0.5592740000000  0.5460220000000  0.5256630000000 1.0
C      1  0.5607540000000  0.5840150000000  0.5129050000000 1.0
C      1  0.4610320000000  0.4974150000000  0.5198960000000 1.0
C      1  0.4664770000000  0.5918890000000  0.4689410000000 1.0
C      1  0.4481800000000  0.5633580000000  0.4225780000000 1.0
C      1  0.5406900000000  0.6017270000000  0.4962270000000 1.0
C      1  0.4911070000000  0.5026600000000  0.3868520000000 1.0
C      1  0.5218340000000  0.5669830000000  0.5929660000000 1.0
C      1  0.4115570000000  0.5110250000000  0.4532270000000 1.0
C      1  0.4025870000000  0.4796150000000  0.5143310000000 1.0
C      1  0.4906830000000  0.5254250000000  0.5039600000000 1.0
C      1  0.4590080000000  0.4182210000000  0.5250610000000 1.0
C      1  0.4789620000000  0.3961690000000  0.5121150000000 1.0
C      1  0.6001820000000  0.4487200000000  0.5206240000000 1.0
C      1  0.5550250000000  0.4754580000000  0.4994090000000 1.0
C      1  0.4079460000000  0.4563470000000  0.4681740000000 1.0
C      1  0.4812020000000  0.5535580000000  0.4254720000000 1.0
C      1  0.4345100000000  0.5182700000000  0.5261310000000 1.0
C      1  0.5977600000000  0.5657270000000  0.4822720000000 1.0
C      1  0.5983780000000  0.4491240000000  0.4725800000000 1.0
C      1  0.4794690000000  0.5344700000000  0.3906170000000 1.0
C      1  0.5095210000000  0.6099640000000  0.4529950000000 1.0
C      1  0.4255430000000  0.4305860000000  0.5426890000000 1.0
C      1  0.5874100000000  0.5686620000000  0.5085990000000 1.0
C      1  0.5230920000000  0.4793800000000  0.5031470000000 1.0
C      1  0.4056180000000  0.5418730000000  0.5127950000000 1.0
C      1  0.5266720000000  0.4841790000000  0.4270520000000 1.0
C      1  0.5582670000000  0.4208310000000  0.4559250000000 1.0
C      1  0.4768720000000  0.5425590000000  0.5300460000000 1.0
C      1  0.5733200000000  0.4994040000000  0.5036220000000 1.0
C      1  0.5163660000000  0.4971930000000  0.4553050000000 1.0
C      1  0.4457130000000  0.5325470000000  0.4843520000000 1.0
C      1  0.4221760000000  0.4281890000000  0.5101150000000 1.0
C      1  0.6075810000000  0.5396790000000  0.4783350000000 1.0
C      1  0.4633550000000  0.5167660000000  0.4118410000000 1.0
C      1  0.5414490000000  0.4052090000000  0.4886280000000 1.0
C      1  0.4380760000000  0.4682070000000  0.4590640000000 1.0
C      1  0.5134810000000  0.5634150000000  0.5668860000000 1.0
C      1  0.5610450000000  0.4422700000000  0.5660220000000 1.0
C      1  0.5929000000000  0.5417570000000  0.5226470000000 1.0
C      1  0.5223560000000  0.5829550000000  0.5478940000000 1.0
C      1  0.4994110000000  0.4256480000000  0.4949340000000 1.0
C      1  0.4438850000000  0.4519600000000  0.5052870000000 1.0
C      1  0.5015500000000  0.5049040000000  0.5446500000000 1.0
C      1  0.4421080000000  0.4551600000000  0.5502580000000 1.0
C      1  0.6183640000000  0.5087140000000  0.4726570000000 1.0
C      1  0.3940770000000  0.4837770000000  0.4618960000000 1.0
C      1  0.5372440000000  0.4226030000000  0.4362070000000 1.0
C      1  0.4311050000000  0.4945060000000  0.4226220000000 1.0
C      1  0.5077270000000  0.5625110000000  0.4729160000000 1.0
C      1  0.5644270000000  0.5142360000000  0.5276230000000 1.0
C      1  0.4196190000000  0.4647530000000  0.4309370000000 1.0
C      1  0.5554780000000  0.4939840000000  0.4215560000000 1.0
C      1  0.5542150000000  0.5232930000000  0.4147830000000 1.0
C      1  0.4770390000000  0.4049060000000  0.4795730000000 1.0
C      1  0.4844920000000  0.6096100000000  0.4529380000000 1.0
C      1  0.4662960000000  0.4739170000000  0.4571410000000 1.0
C      1  0.5600420000000  0.4729700000000  0.5405500000000 1.0
C      1  0.4896010000000  0.4374130000000  0.4396950000000 1.0
C      1  0.4264790000000  0.5040370000000  0.5626170000000 1.0
C      1  0.4814580000000  0.4419620000000  0.3878150000000 1.0
C      1  0.5531960000000  0.4638730000000  0.4703570000000 1.0
C      1  0.4972410000000  0.4559280000000  0.5997840000000 1.0
C      1  0.4359270000000  0.5335670000000  0.4161080000000 1.0
C      1  0.4748370000000  0.5689100000000  0.5754440000000 1.0
C      1  0.5127260000000  0.4343840000000  0.5214080000000 1.0
C      1  0.5372200000000  0.5477330000000  0.4225230000000 1.0
C      1  0.5822760000000  0.5433920000000  0.4478650000000 1.0
C      1  0.4823450000000  0.4696450000000  0.4074590000000 1.0
C      1  0.5508880000000  0.4651520000000  0.5807570000000 1.0
C      1  0.5077420000000  0.5387210000000  0.4260260000000 1.0
C      1  0.5758900000000  0.5718650000000  0.4615960000000 1.0
C      1  0.4910020000000  0.4000200000000  0.5407110000000 1.0
C      1  0.4727590000000  0.4874460000000  0.5504850000000 1.0
C      1  0.4690470000000  0.5625790000000  0.3952650000000 1.0
C      1  0.6074960000000  0.4616940000000  0.4972650000000 1.0
C      1  0.5308410000000  0.4625180000000  0.5284870000000 1.0
C      1  0.3894500000000  0.4972240000000  0.4921400000000 1.0
C      1  0.5248850000000  0.5145120000000  0.5215880000000 1.0
C      1  0.5500130000000  0.5813020000000  0.5417090000000 1.0
C      1  0.4414680000000  0.4044250000000  0.5502790000000 1.0
C      1  0.4806720000000  0.5129680000000  0.4399140000000 1.0
C      1  0.4859110000000  0.5410270000000  0.5852580000000 1.0
C      1  0.4085960000000  0.5147750000000  0.4085510000000 1.0
C      1  0.4292200000000  0.5639710000000  0.5020320000000 1.0
C      1  0.5787750000000  0.4850440000000  0.4367830000000 1.0
C      1  0.4365160000000  0.5743960000000  0.4492900000000 1.0
C      1  0.4615000000000  0.5923820000000  0.5026360000000 1.0
C      1  0.4602690000000  0.4902060000000  0.3958770000000 1.0
C      1  0.5824820000000  0.5171030000000  0.4779580000000 1.0
C      1  0.5431970000000  0.3972570000000  0.5145530000000 1.0
C      1  0.3929120000000  0.5257880000000  0.4935350000000 1.0
C      1  0.5616010000000  0.4888350000000  0.5906500000000 1.0
C      1  0.4974900000000  0.5315790000000  0.6107580000000 1.0
C      1  0.5271510000000  0.4499060000000  0.4633980000000 1.0
C      1  0.4915250000000  0.4921810000000  0.5046170000000 1.0
C      1  0.4010950000000  0.5346190000000  0.4677450000000 1.0
C      1  0.5198460000000  0.4662560000000  0.5782330000000 1.0
C      1  0.6063430000000  0.4921580000000  0.4975450000000 1.0
C      1  0.5767540000000  0.4625330000000  0.4547820000000 1.0
C      1  0.5798730000000  0.4997270000000  0.5728300000000 1.0
C      1  0.4359110000000  0.4758060000000  0.5139400000000 1.0
C      1  0.5066620000000  0.5974920000000  0.5288130000000 1.0
C      1  0.5360460000000  0.5171980000000  0.4968280000000 1.0
C      1  0.4944650000000  0.4706930000000  0.3756740000000 1.0
C      1  0.4286110000000  0.4370570000000  0.4485500000000 1.0
C      1  0.5111770000000  0.4734060000000  0.4753850000000 1.0
C      1  0.4654190000000  0.5413770000000  0.4511440000000 1.0
C      1  0.4678960000000  0.5882800000000  0.5937880000000 1.0
C      1  0.4749420000000  0.5608800000000  0.4742620000000 1.0
C      1  0.5538440000000  0.4105210000000  0.5434210000000 1.0
C      1  0.4809280000000  0.4691080000000  0.4823180000000 1.0
C      1  0.4541930000000  0.5865630000000  0.5332990000000 1.0
C      1  0.4374670000000  0.5307920000000  0.5635060000000 1.0
C      1  0.4725630000000  0.5702270000000  0.5477180000000 1.0
C      1  0.4754870000000  0.4774440000000  0.6091600000000 1.0
C      1  0.4664680000000  0.4453220000000  0.5375180000000 1.0
C      1  0.4489120000000  0.4147800000000  0.4937090000000 1.0
C      1  0.5408600000000  0.4199310000000  0.5734120000000 1.0
C      1  0.5195290000000  0.4333630000000  0.5872100000000 1.0
C      1  0.5048180000000  0.5547940000000  0.5042160000000 1.0
C      1  0.4925840000000  0.5156110000000  0.4717300000000 1.0
C      1  0.5482260000000  0.5636940000000  0.4431330000000 1.0
C      1  0.4285740000000  0.5785950000000  0.5392220000000 1.0
C      1  0.5321420000000  0.5149870000000  0.5707430000000 1.0
C      1  0.4929410000000  0.4532660000000  0.5358930000000 1.0
C      1  0.4046420000000  0.4512290000000  0.4979670000000 1.0
C      1  0.4502190000000  0.4701700000000  0.5978200000000 1.0
C      1  0.5105720000000  0.4747990000000  0.5513250000000 1.0
C      1  0.4246980000000  0.5526470000000  0.4699700000000 1.0
C      1  0.5618410000000  0.5257660000000  0.4449570000000 1.0
C      1  0.5062820000000  0.5319240000000  0.5618250000000 1.0
C      1  0.5042310000000  0.5066100000000  0.4165850000000 1.0
C      1  0.4420600000000  0.4658220000000  0.4070190000000 1.0
C      1  0.5859440000000  0.4811740000000  0.5515220000000 1.0
C      1  0.4717150000000  0.4416150000000  0.4942360000000 1.0
C      1  0.4236820000000  0.5480490000000  0.5392370000000 1.0
C      1  0.4806190000000  0.4625910000000  0.4352710000000 1.0
C      1  0.4357640000000  0.5892830000000  0.4801560000000 1.0
C      1  0.5734960000000  0.4304540000000  0.4784130000000 1.0
C      1  0.4574880000000  0.4385070000000  0.4077270000000 1.0
C      1  0.5304750000000  0.5402750000000  0.6093410000000 1.0
C      1  0.5636020000000  0.5584210000000  0.5571280000000 1.0
C      1  0.3920370000000  0.4974120000000  0.4305850000000 1.0
C      1  0.5253280000000  0.5901260000000  0.4693140000000 1.0
C      1  0.4713770000000  0.4307200000000  0.5781290000000 1.0
C      1  0.4527000000000  0.5065130000000  0.4878250000000 1.0
C      1  0.5471190000000  0.5673700000000  0.4771000000000 1.0
C      1  0.5642680000000  0.4443330000000  0.5038350000000 1.0
C      1  0.4710360000000  0.4072710000000  0.5613510000000 1.0
C      1  0.4123270000000  0.4984670000000  0.5368770000000 1.0
C      1  0.4526340000000  0.4237950000000  0.4329500000000 1.0
END
