TITL C-2778423-5760-795 -0.001659918250989 125000 -646.101415712975 0 0 113 (C1) n - 1
REM
REM in /home/nfs/bkarasulu/CARBON/AIRSS/Generating-Clusters/REBO/Only-C1/SD-CG/HFTN-CG
REM
REM
REM
REM
REM
REM ./C.cell (11c1c37f851c82e70ff6c80c92926a4b)
REM
REM compiler GCC version 9.2.1 20190827 (Red Hat 9.2.1-1)
REM options -cpp -mtune=generic -march=x86-64 -g -O0 -fpre-include=/usr/include/finclude/math-vector-fortran.h
REM seed -2111262129 -1976239020 773058143 -1374547409 1085668209 1566752080 -564611682 1617547216 -839825613 1466379607 -1111290688 866065990 -1283697956 967792317 -852493768 -1668454753 940955656 -196059813 -1539979552 2057897951 -1436567768 992141093 786110815 -1892483576 95547597 -1242465938 2040544414 434894142 -1757801448 -588117688 -409008068 -1378098257 -917131078
REM
CELL 1.54180   50.00000   50.00000   50.00000   90.00000   90.00000   90.00000
LATT -1
SFAC C  
C      1  0.4836240000000  0.4662770000000  0.5428770000000 1.0
C      1  0.5793730000000  0.5120190000000  0.4397320000000 1.0
C      1  0.4558690000000  0.5446790000000  0.5591520000000 1.0
C      1  0.5316100000000  0.5166500000000  0.5686040000000 1.0
C      1  0.4999600000000  0.5320390000000  0.4169670000000 1.0
C      1  0.5220120000000  0.4788260000000  0.4119100000000 1.0
C      1  0.4456760000000  0.4183500000000  0.5068340000000 1.0
C      1  0.4658370000000  0.4967480000000  0.5871660000000 1.0
C      1  0.5745220000000  0.5429960000000  0.4454050000000 1.0
C      1  0.5968420000000  0.4891500000000  0.5140470000000 1.0
C      1  0.5413620000000  0.4830890000000  0.4368130000000 1.0
C      1  0.4843080000000  0.5825440000000  0.5208800000000 1.0
C      1  0.5585760000000  0.5504240000000  0.5113130000000 1.0
C      1  0.3953840000000  0.5363060000000  0.4884310000000 1.0
C      1  0.4635680000000  0.4784770000000  0.4252380000000 1.0
C      1  0.4520790000000  0.5451410000000  0.4447080000000 1.0
C      1  0.5278920000000  0.5343430000000  0.4736220000000 1.0
C      1  0.5459500000000  0.5686600000000  0.5322360000000 1.0
C      1  0.5562830000000  0.4446840000000  0.5443750000000 1.0
C      1  0.4235600000000  0.5030120000000  0.4438050000000 1.0
C      1  0.4682370000000  0.5597850000000  0.4681700000000 1.0
C      1  0.4898320000000  0.4899060000000  0.5196840000000 1.0
C      1  0.4984450000000  0.5519830000000  0.4715020000000 1.0
C      1  0.5870500000000  0.5323080000000  0.4904250000000 1.0
C      1  0.4324530000000  0.5166580000000  0.5179220000000 1.0
C      1  0.4082650000000  0.4811320000000  0.5478340000000 1.0
C      1  0.4501880000000  0.4511540000000  0.4404370000000 1.0
C      1  0.5181610000000  0.4970290000000  0.5015250000000 1.0
C      1  0.5119380000000  0.4865800000000  0.4497460000000 1.0
C      1  0.4928250000000  0.5196870000000  0.4614620000000 1.0
C      1  0.4817350000000  0.4734150000000  0.4505370000000 1.0
C      1  0.4140010000000  0.4884050000000  0.4939680000000 1.0
C      1  0.4541560000000  0.5787180000000  0.4905150000000 1.0
C      1  0.4690730000000  0.5391180000000  0.4950730000000 1.0
C      1  0.4542280000000  0.5106970000000  0.5383370000000 1.0
C      1  0.5050110000000  0.5169300000000  0.5482830000000 1.0
C      1  0.5468040000000  0.5005470000000  0.4833240000000 1.0
C      1  0.5122420000000  0.4664910000000  0.4751720000000 1.0
C      1  0.5522270000000  0.5024630000000  0.5468490000000 1.0
C      1  0.4965280000000  0.5198130000000  0.4944990000000 1.0
C      1  0.5915160000000  0.5017990000000  0.4842140000000 1.0
C      1  0.4790030000000  0.5270830000000  0.5317760000000 1.0
C      1  0.5172060000000  0.5523250000000  0.4277300000000 1.0
C      1  0.5795130000000  0.5231840000000  0.5502840000000 1.0
C      1  0.5600720000000  0.4938070000000  0.4537930000000 1.0
C      1  0.5492210000000  0.5679400000000  0.4766020000000 1.0
C      1  0.4826320000000  0.5273150000000  0.5715370000000 1.0
C      1  0.4448940000000  0.4615740000000  0.5744400000000 1.0
C      1  0.5230810000000  0.5172880000000  0.4460760000000 1.0
C      1  0.4992760000000  0.5007070000000  0.5840330000000 1.0
C      1  0.5494450000000  0.5417540000000  0.5535990000000 1.0
C      1  0.4640800000000  0.4982890000000  0.5018080000000 1.0
C      1  0.5316650000000  0.5596990000000  0.4511890000000 1.0
C      1  0.5284110000000  0.4699520000000  0.5163060000000 1.0
C      1  0.5622740000000  0.4313810000000  0.4521780000000 1.0
C      1  0.4691330000000  0.5322460000000  0.4233840000000 1.0
C      1  0.5284270000000  0.4315750000000  0.5296750000000 1.0
C      1  0.4443600000000  0.4495580000000  0.5124430000000 1.0
C      1  0.5054490000000  0.4568200000000  0.5748710000000 1.0
C      1  0.5815950000000  0.4670530000000  0.5484910000000 1.0
C      1  0.5242870000000  0.4830450000000  0.5691960000000 1.0
C      1  0.5001420000000  0.4182350000000  0.5394650000000 1.0
C      1  0.5226720000000  0.4501100000000  0.4247940000000 1.0
C      1  0.4312080000000  0.5677970000000  0.5048990000000 1.0
C      1  0.5574260000000  0.4342570000000  0.5119290000000 1.0
C      1  0.5047470000000  0.5013930000000  0.4068530000000 1.0
C      1  0.3961540000000  0.5092650000000  0.4889570000000 1.0
C      1  0.5492790000000  0.5256630000000  0.4322380000000 1.0
C      1  0.4177300000000  0.4797080000000  0.5207800000000 1.0
C      1  0.4433010000000  0.5210710000000  0.4879450000000 1.0
C      1  0.4656760000000  0.5568020000000  0.5218060000000 1.0
C      1  0.5409040000000  0.4612330000000  0.4876360000000 1.0
C      1  0.5021900000000  0.4214680000000  0.4659920000000 1.0
C      1  0.5042750000000  0.5479890000000  0.5234720000000 1.0
C      1  0.5194200000000  0.5581740000000  0.5496130000000 1.0
C      1  0.5031760000000  0.4524810000000  0.5202620000000 1.0
C      1  0.4244880000000  0.5603430000000  0.4576500000000 1.0
C      1  0.4698520000000  0.4960530000000  0.4700510000000 1.0
C      1  0.5480780000000  0.4380600000000  0.4296520000000 1.0
C      1  0.5980270000000  0.5404630000000  0.5648120000000 1.0
C      1  0.5897400000000  0.5196590000000  0.5195010000000 1.0
C      1  0.4382320000000  0.4834690000000  0.4753900000000 1.0
C      1  0.5102990000000  0.5580210000000  0.5002640000000 1.0
C      1  0.4775590000000  0.4201690000000  0.4792080000000 1.0
C      1  0.4280720000000  0.4840700000000  0.5686940000000 1.0
C      1  0.4762020000000  0.4700940000000  0.5732300000000 1.0
C      1  0.4882460000000  0.4673390000000  0.4943290000000 1.0
C      1  0.4488750000000  0.4806420000000  0.5236050000000 1.0
C      1  0.4585400000000  0.4358190000000  0.5636330000000 1.0
C      1  0.5054660000000  0.5947660000000  0.5149250000000 1.0
C      1  0.5425410000000  0.4734570000000  0.5432000000000 1.0
C      1  0.4366710000000  0.5589210000000  0.5348830000000 1.0
C      1  0.4672810000000  0.4398120000000  0.5322350000000 1.0
C      1  0.4593110000000  0.4389950000000  0.4660680000000 1.0
C      1  0.4585360000000  0.4616250000000  0.4869530000000 1.0
C      1  0.4352950000000  0.5221310000000  0.4592730000000 1.0
C      1  0.4298480000000  0.4739360000000  0.4457450000000 1.0
C      1  0.5884640000000  0.4912060000000  0.5593580000000 1.0
C      1  0.5038090000000  0.4475440000000  0.4484510000000 1.0
C      1  0.5732620000000  0.5512210000000  0.4734040000000 1.0
C      1  0.5317890000000  0.5196490000000  0.5289940000000 1.0
C      1  0.4737440000000  0.5023260000000  0.4128720000000 1.0
C      1  0.5337470000000  0.5802690000000  0.5024920000000 1.0
C      1  0.4901630000000  0.4317880000000  0.5638060000000 1.0
C      1  0.4134830000000  0.5574040000000  0.4843710000000 1.0
C      1  0.4453990000000  0.5133420000000  0.5686860000000 1.0
C      1  0.4791550000000  0.4147830000000  0.5128440000000 1.0
C      1  0.5499460000000  0.4306870000000  0.4811720000000 1.0
C      1  0.5426950000000  0.5284250000000  0.5005780000000 1.0
C      1  0.5253030000000  0.4123010000000  0.4768450000000 1.0
C      1  0.5692350000000  0.4769550000000  0.4885780000000 1.0
C      1  0.4880070000000  0.5568000000000  0.5588630000000 1.0
C      1  0.5791080000000  0.4601830000000  0.5157360000000 1.0
END
