TITL C-2778425-5191-632 -0.00258985850174206 125000 -170.712473653526 0 0 32 (C1) n - 1
REM
REM in /home/nfs/bkarasulu/CARBON/AIRSS/Generating-Clusters/REBO/Only-C1/SD-CG/HFTN-CG
REM
REM
REM
REM
REM
REM ./C.cell (11c1c37f851c82e70ff6c80c92926a4b)
REM
REM compiler GCC version 9.2.1 20190827 (Red Hat 9.2.1-1)
REM options -cpp -mtune=generic -march=x86-64 -g -O0 -fpre-include=/usr/include/finclude/math-vector-fortran.h
REM seed 1788653995 1966995675 2098857766 -1729644135 -1344614399 -234003857 -778055669 1865865892 -441772794 17646677 -336950213 -1711758244 224411470 -931941820 1208924663 -1088818570 1366395928 1305462439 47006535 -1904823790 -1766822551 1482457771 502733394 -653747019 -1284813631 369082258 -1956340721 834442772 1571874661 178970295 -2144414953 343297480 1603950803
REM
CELL 1.54180   50.00000   50.00000   50.00000   90.00000   90.00000   90.00000
LATT -1
SFAC C  
C      1  0.5761450000000  0.5487170000000  0.5174760000000 1.0
C      1  0.4709590000000  0.4507290000000  0.4073550000000 1.0
C      1  0.5396210000000  0.5239900000000  0.5379100000000 1.0
C      1  0.5061600000000  0.5382130000000  0.4261450000000 1.0
C      1  0.4716470000000  0.4692580000000  0.5043430000000 1.0
C      1  0.4538030000000  0.5374380000000  0.4924970000000 1.0
C      1  0.4603680000000  0.5135690000000  0.4827350000000 1.0
C      1  0.5412170000000  0.5297740000000  0.4898090000000 1.0
C      1  0.5274490000000  0.4127520000000  0.4492500000000 1.0
C      1  0.4783510000000  0.4883610000000  0.4812680000000 1.0
C      1  0.4709830000000  0.5613620000000  0.5378080000000 1.0
C      1  0.4485310000000  0.4787580000000  0.5274340000000 1.0
C      1  0.4732850000000  0.4625730000000  0.4306180000000 1.0
C      1  0.5071660000000  0.4971740000000  0.4867320000000 1.0
C      1  0.4851780000000  0.5415560000000  0.5504650000000 1.0
C      1  0.5393910000000  0.4529290000000  0.5374760000000 1.0
C      1  0.5285160000000  0.4445880000000  0.4914070000000 1.0
C      1  0.4903260000000  0.5116620000000  0.5475540000000 1.0
C      1  0.5186970000000  0.4877230000000  0.5112940000000 1.0
C      1  0.4606770000000  0.4953310000000  0.5512650000000 1.0
C      1  0.4730720000000  0.4420800000000  0.4984750000000 1.0
C      1  0.5181830000000  0.5058110000000  0.5336300000000 1.0
C      1  0.5131650000000  0.5286210000000  0.4495060000000 1.0
C      1  0.4756280000000  0.4745000000000  0.4540430000000 1.0
C      1  0.5206090000000  0.5184270000000  0.4743320000000 1.0
C      1  0.5461330000000  0.5325910000000  0.5629230000000 1.0
C      1  0.4544100000000  0.5867060000000  0.5261080000000 1.0
C      1  0.5279780000000  0.4285430000000  0.4701590000000 1.0
C      1  0.4551450000000  0.5587130000000  0.5096100000000 1.0
C      1  0.5532160000000  0.5342660000000  0.5148820000000 1.0
C      1  0.5290800000000  0.4614380000000  0.5137180000000 1.0
C      1  0.4849100000000  0.4818450000000  0.5317730000000 1.0
END
