TITL C-2778433-5640-425 -0.00329970318360843 125000 -569.948897487134 0 0 97 (C1) n - 1
REM
REM in /home/nfs/bkarasulu/CARBON/AIRSS/Generating-Clusters/REBO/Only-C1/SD-CG/HFTN-CG
REM
REM
REM
REM
REM
REM ./C.cell (11c1c37f851c82e70ff6c80c92926a4b)
REM
REM compiler GCC version 9.2.1 20190827 (Red Hat 9.2.1-1)
REM options -cpp -mtune=generic -march=x86-64 -g -O0 -fpre-include=/usr/include/finclude/math-vector-fortran.h
REM seed -1905684337 441371936 -1728449057 -203677169 -1016459817 358635385 -212731104 -1711699467 1824998624 -1290706037 624161901 -152859357 -1057766679 1815831161 1286679742 -2091427304 1280714428 1764111696 963961403 1776364753 1445863718 -925354430 -769330628 765200918 -2120352713 69620172 1781886991 -1952558815 -1368210222 1391146147 -692392567 -329089600 -2122453694
REM
CELL 1.54180   50.00000   50.00000   50.00000   90.00000   90.00000   90.00000
LATT -1
SFAC C  
C      1  0.5179180000000  0.4727290000000  0.4223190000000 1.0
C      1  0.5565010000000  0.5159770000000  0.4529240000000 1.0
C      1  0.4774820000000  0.4657300000000  0.5102830000000 1.0
C      1  0.4134620000000  0.5343500000000  0.5269580000000 1.0
C      1  0.4562110000000  0.4536990000000  0.4968500000000 1.0
C      1  0.4634830000000  0.5814940000000  0.5138830000000 1.0
C      1  0.4541960000000  0.5467950000000  0.5891450000000 1.0
C      1  0.4794260000000  0.4875060000000  0.4649170000000 1.0
C      1  0.5138450000000  0.5210460000000  0.4841100000000 1.0
C      1  0.5713090000000  0.5297610000000  0.4744740000000 1.0
C      1  0.4752700000000  0.5062910000000  0.4271200000000 1.0
C      1  0.4589980000000  0.5652150000000  0.5374600000000 1.0
C      1  0.4290410000000  0.5042040000000  0.4360160000000 1.0
C      1  0.4864660000000  0.5103260000000  0.4876980000000 1.0
C      1  0.5671530000000  0.5350560000000  0.5422620000000 1.0
C      1  0.5107740000000  0.5079370000000  0.5274160000000 1.0
C      1  0.5193420000000  0.4375190000000  0.5323200000000 1.0
C      1  0.4586150000000  0.4624660000000  0.4353120000000 1.0
C      1  0.5241830000000  0.5162220000000  0.4532080000000 1.0
C      1  0.5271580000000  0.5469170000000  0.4664760000000 1.0
C      1  0.5021130000000  0.4267010000000  0.4380640000000 1.0
C      1  0.4320100000000  0.4660750000000  0.4820680000000 1.0
C      1  0.4206090000000  0.5069330000000  0.5171630000000 1.0
C      1  0.5517880000000  0.4371700000000  0.4677010000000 1.0
C      1  0.5827690000000  0.5181380000000  0.5284480000000 1.0
C      1  0.4832440000000  0.5629730000000  0.5539760000000 1.0
C      1  0.4644750000000  0.4273750000000  0.4767250000000 1.0
C      1  0.5128120000000  0.5020940000000  0.5595970000000 1.0
C      1  0.4854570000000  0.4743340000000  0.5839930000000 1.0
C      1  0.4287680000000  0.5288720000000  0.4478010000000 1.0
C      1  0.5912570000000  0.5088120000000  0.4833270000000 1.0
C      1  0.4619350000000  0.4869550000000  0.5787850000000 1.0
C      1  0.5350040000000  0.4304070000000  0.5033730000000 1.0
C      1  0.4198150000000  0.3999870000000  0.5633510000000 1.0
C      1  0.5700620000000  0.4907670000000  0.4486780000000 1.0
C      1  0.5130670000000  0.5590600000000  0.5383180000000 1.0
C      1  0.4403220000000  0.5317930000000  0.5694220000000 1.0
C      1  0.5627110000000  0.4985450000000  0.5578710000000 1.0
C      1  0.4444150000000  0.4996040000000  0.5346600000000 1.0
C      1  0.5401200000000  0.5260340000000  0.4179070000000 1.0
C      1  0.4931930000000  0.5369410000000  0.5253300000000 1.0
C      1  0.5302480000000  0.4303750000000  0.4440280000000 1.0
C      1  0.5187820000000  0.5759920000000  0.5132120000000 1.0
C      1  0.4445680000000  0.5035740000000  0.5633630000000 1.0
C      1  0.4726270000000  0.5558330000000  0.4683340000000 1.0
C      1  0.4823360000000  0.4885770000000  0.5311580000000 1.0
C      1  0.5620210000000  0.5530010000000  0.4870860000000 1.0
C      1  0.4875660000000  0.5175440000000  0.5752930000000 1.0
C      1  0.4527670000000  0.4898700000000  0.4304210000000 1.0
C      1  0.5260110000000  0.5273070000000  0.5765880000000 1.0
C      1  0.5020190000000  0.5395180000000  0.5933670000000 1.0
C      1  0.5024300000000  0.4582390000000  0.4996000000000 1.0
C      1  0.5021540000000  0.5203100000000  0.4288970000000 1.0
C      1  0.5848110000000  0.4967580000000  0.5090540000000 1.0
C      1  0.5185470000000  0.5747970000000  0.4396250000000 1.0
C      1  0.4474830000000  0.4502800000000  0.4584250000000 1.0
C      1  0.4929750000000  0.4651850000000  0.4554130000000 1.0
C      1  0.4893430000000  0.4543620000000  0.4250110000000 1.0
C      1  0.5378170000000  0.4517070000000  0.5556670000000 1.0
C      1  0.5530120000000  0.4705740000000  0.4627060000000 1.0
C      1  0.4236880000000  0.4940740000000  0.4911940000000 1.0
C      1  0.5044510000000  0.4481100000000  0.4734990000000 1.0
C      1  0.5603150000000  0.4684000000000  0.5438810000000 1.0
C      1  0.5161050000000  0.5770910000000  0.4735730000000 1.0
C      1  0.5274240000000  0.4695730000000  0.5102350000000 1.0
C      1  0.5489760000000  0.4970100000000  0.5297630000000 1.0
C      1  0.5388890000000  0.5480070000000  0.4342840000000 1.0
C      1  0.4913900000000  0.5788940000000  0.4950630000000 1.0
C      1  0.5968420000000  0.4917020000000  0.4601750000000 1.0
C      1  0.5026320000000  0.4196230000000  0.5099980000000 1.0
C      1  0.4450530000000  0.5440050000000  0.4639570000000 1.0
C      1  0.5367060000000  0.4590140000000  0.4382930000000 1.0
C      1  0.5722790000000  0.4690990000000  0.5134630000000 1.0
C      1  0.4778480000000  0.5175680000000  0.5465310000000 1.0
C      1  0.5327250000000  0.5086880000000  0.5049340000000 1.0
C      1  0.4550450000000  0.4125980000000  0.5260460000000 1.0
C      1  0.4224770000000  0.5554350000000  0.5082470000000 1.0
C      1  0.5612540000000  0.4478330000000  0.4973360000000 1.0
C      1  0.5424350000000  0.5711740000000  0.4942710000000 1.0
C      1  0.5368800000000  0.5470780000000  0.5523010000000 1.0
C      1  0.4358350000000  0.5474270000000  0.5450560000000 1.0
C      1  0.5075370000000  0.4692080000000  0.5375400000000 1.0
C      1  0.5139640000000  0.4714700000000  0.5694350000000 1.0
C      1  0.5003480000000  0.5500680000000  0.4243910000000 1.0
C      1  0.5238960000000  0.4995830000000  0.4169580000000 1.0
C      1  0.4472670000000  0.5431750000000  0.4958850000000 1.0
C      1  0.4871910000000  0.5661720000000  0.4482690000000 1.0
C      1  0.4727640000000  0.4189400000000  0.5072830000000 1.0
C      1  0.4591720000000  0.5143180000000  0.5077250000000 1.0
C      1  0.5575430000000  0.5253730000000  0.5723850000000 1.0
C      1  0.4524420000000  0.4999650000000  0.4775260000000 1.0
C      1  0.5438330000000  0.4826760000000  0.4889810000000 1.0
C      1  0.4873190000000  0.4145720000000  0.4606120000000 1.0
C      1  0.4372880000000  0.4062420000000  0.5448480000000 1.0
C      1  0.5155410000000  0.4171150000000  0.4787050000000 1.0
C      1  0.4801680000000  0.5562690000000  0.5817050000000 1.0
C      1  0.4801770000000  0.5478390000000  0.5006930000000 1.0
END
