TITL C-2778422-5617-280 -0.00012410521968936 125000 -926.447343182869 0 0 159 (C1) n - 1
REM
REM in /home/nfs/bkarasulu/CARBON/AIRSS/Generating-Clusters/REBO/Only-C1/SD-CG/HFTN-CG
REM
REM
REM
REM
REM
REM ./C.cell (11c1c37f851c82e70ff6c80c92926a4b)
REM
REM compiler GCC version 9.2.1 20190827 (Red Hat 9.2.1-1)
REM options -cpp -mtune=generic -march=x86-64 -g -O0 -fpre-include=/usr/include/finclude/math-vector-fortran.h
REM seed 1078923952 -1384209134 374094335 1413546079 1532439827 -363292953 -1898427365 1769820876 1389686504 -1674004104 850777997 1797367572 2012782839 -1202308129 -1773498040 -1976744172 -1885690621 -40121641 -909155535 -365982728 -1712808775 2035212141 1347757588 -2057325612 -1956144444 -1200469678 -459070585 -880989806 336558955 -1097242547 1987248394 1856332796 847723740
REM
CELL 1.54180   50.00000   50.00000   50.00000   90.00000   90.00000   90.00000
LATT -1
SFAC C  
C      1  0.5420190000000  0.4416200000000  0.4375870000000 1.0
C      1  0.5722010000000  0.5837130000000  0.5391690000000 1.0
C      1  0.5131730000000  0.4598990000000  0.3929360000000 1.0
C      1  0.4792430000000  0.4530760000000  0.5824100000000 1.0
C      1  0.3992540000000  0.4743630000000  0.4960670000000 1.0
C      1  0.5068530000000  0.5281440000000  0.5630070000000 1.0
C      1  0.6003440000000  0.5248680000000  0.4744110000000 1.0
C      1  0.5299740000000  0.5539830000000  0.4353560000000 1.0
C      1  0.4273720000000  0.5080710000000  0.4404050000000 1.0
C      1  0.4203260000000  0.5435650000000  0.5757240000000 1.0
C      1  0.4383000000000  0.4422470000000  0.5610160000000 1.0
C      1  0.5362400000000  0.4907390000000  0.5021140000000 1.0
C      1  0.5019360000000  0.3968430000000  0.4780970000000 1.0
C      1  0.4231590000000  0.5636580000000  0.4981480000000 1.0
C      1  0.5550080000000  0.5197440000000  0.4722890000000 1.0
C      1  0.4945130000000  0.6027010000000  0.4543830000000 1.0
C      1  0.5174210000000  0.5721250000000  0.4800400000000 1.0
C      1  0.5230260000000  0.4539320000000  0.4966380000000 1.0
C      1  0.4699180000000  0.4921860000000  0.4937890000000 1.0
C      1  0.5595150000000  0.4292730000000  0.5546290000000 1.0
C      1  0.5674760000000  0.4932690000000  0.4061450000000 1.0
C      1  0.4873990000000  0.5365400000000  0.4304180000000 1.0
C      1  0.5297290000000  0.3888360000000  0.4865870000000 1.0
C      1  0.5658740000000  0.4192690000000  0.4981820000000 1.0
C      1  0.4697400000000  0.4033070000000  0.4697120000000 1.0
C      1  0.5512630000000  0.5157570000000  0.4999670000000 1.0
C      1  0.5113640000000  0.5502510000000  0.4997280000000 1.0
C      1  0.4593500000000  0.5819930000000  0.4277140000000 1.0
C      1  0.4909050000000  0.4189990000000  0.5283780000000 1.0
C      1  0.4880550000000  0.5866340000000  0.4308460000000 1.0
C      1  0.5149390000000  0.5798220000000  0.5573390000000 1.0
C      1  0.5068140000000  0.4484370000000  0.4189740000000 1.0
C      1  0.5895260000000  0.5262830000000  0.4420150000000 1.0
C      1  0.5753250000000  0.5304290000000  0.5191730000000 1.0
C      1  0.4299450000000  0.4260420000000  0.4904760000000 1.0
C      1  0.4501060000000  0.5177630000000  0.5323660000000 1.0
C      1  0.4398680000000  0.5768830000000  0.4479500000000 1.0
C      1  0.4764160000000  0.5744330000000  0.5664610000000 1.0
C      1  0.4567170000000  0.4192150000000  0.5487210000000 1.0
C      1  0.4533330000000  0.4893440000000  0.4519290000000 1.0
C      1  0.4877990000000  0.5422650000000  0.5309730000000 1.0
C      1  0.4266890000000  0.4820510000000  0.5512810000000 1.0
C      1  0.4306310000000  0.4427720000000  0.5299970000000 1.0
C      1  0.5370150000000  0.5712730000000  0.4601460000000 1.0
C      1  0.6108150000000  0.4979510000000  0.4604630000000 1.0
C      1  0.5838160000000  0.5413420000000  0.5459210000000 1.0
C      1  0.5418180000000  0.5034050000000  0.5526930000000 1.0
C      1  0.4383090000000  0.5406550000000  0.5160240000000 1.0
C      1  0.4177440000000  0.5626900000000  0.5540280000000 1.0
C      1  0.5140830000000  0.5244760000000  0.4420840000000 1.0
C      1  0.4800800000000  0.4001900000000  0.5021530000000 1.0
C      1  0.5370020000000  0.5404730000000  0.5147670000000 1.0
C      1  0.5439700000000  0.5178850000000  0.4448310000000 1.0
C      1  0.4439310000000  0.4458810000000  0.4462520000000 1.0
C      1  0.4835250000000  0.4506350000000  0.4679230000000 1.0
C      1  0.4406220000000  0.5236740000000  0.5935110000000 1.0
C      1  0.4634130000000  0.4314410000000  0.4837360000000 1.0
C      1  0.4082970000000  0.5451890000000  0.5299390000000 1.0
C      1  0.4220370000000  0.4700620000000  0.5197990000000 1.0
C      1  0.5641780000000  0.5535550000000  0.4999960000000 1.0
C      1  0.4834330000000  0.4524980000000  0.5257590000000 1.0
C      1  0.5955490000000  0.4774700000000  0.4533460000000 1.0
C      1  0.5127130000000  0.4918070000000  0.3986780000000 1.0
C      1  0.5367810000000  0.3696280000000  0.5052810000000 1.0
C      1  0.5264880000000  0.4699600000000  0.4366840000000 1.0
C      1  0.4748400000000  0.3826200000000  0.5283710000000 1.0
C      1  0.5032260000000  0.5970290000000  0.4813670000000 1.0
C      1  0.5045180000000  0.4241900000000  0.4614080000000 1.0
C      1  0.5089660000000  0.5651140000000  0.5287620000000 1.0
C      1  0.4388430000000  0.4777790000000  0.4920340000000 1.0
C      1  0.5755690000000  0.5023860000000  0.5490470000000 1.0
C      1  0.5713560000000  0.4491000000000  0.5118040000000 1.0
C      1  0.4532120000000  0.5256950000000  0.5625950000000 1.0
C      1  0.4565680000000  0.5013770000000  0.3985560000000 1.0
C      1  0.5349830000000  0.5359780000000  0.5452820000000 1.0
C      1  0.5938640000000  0.4683820000000  0.5173140000000 1.0
C      1  0.4320060000000  0.4527820000000  0.4726190000000 1.0
C      1  0.4929520000000  0.5247110000000  0.4954680000000 1.0
C      1  0.5988380000000  0.5158940000000  0.5042500000000 1.0
C      1  0.5397210000000  0.3600460000000  0.5303040000000 1.0
C      1  0.4966360000000  0.4506540000000  0.4968410000000 1.0
C      1  0.5040710000000  0.4928910000000  0.4909370000000 1.0
C      1  0.4412220000000  0.5312340000000  0.4238650000000 1.0
C      1  0.5623340000000  0.5457090000000  0.4428900000000 1.0
C      1  0.4866450000000  0.4316580000000  0.5593650000000 1.0
C      1  0.5706170000000  0.5185370000000  0.5756840000000 1.0
C      1  0.5350710000000  0.4260330000000  0.4587580000000 1.0
C      1  0.4659660000000  0.5525820000000  0.5131870000000 1.0
C      1  0.4614960000000  0.5904590000000  0.5468410000000 1.0
C      1  0.5063860000000  0.4719870000000  0.5875820000000 1.0
C      1  0.4738680000000  0.5984490000000  0.5203870000000 1.0
C      1  0.4993120000000  0.5115910000000  0.5258050000000 1.0
C      1  0.5072180000000  0.5682340000000  0.4172060000000 1.0
C      1  0.4873910000000  0.4963000000000  0.5971880000000 1.0
C      1  0.4562530000000  0.4951710000000  0.5881500000000 1.0
C      1  0.5926690000000  0.4952000000000  0.5262420000000 1.0
C      1  0.4993540000000  0.6062640000000  0.5090860000000 1.0
C      1  0.5444880000000  0.5942070000000  0.5524370000000 1.0
C      1  0.5366660000000  0.4524790000000  0.5464140000000 1.0
C      1  0.5441300000000  0.4619860000000  0.5187850000000 1.0
C      1  0.4777110000000  0.5428020000000  0.5607260000000 1.0
C      1  0.4621510000000  0.5413310000000  0.4382230000000 1.0
C      1  0.5307290000000  0.3638020000000  0.5556760000000 1.0
C      1  0.5934110000000  0.5111590000000  0.4191700000000 1.0
C      1  0.4862070000000  0.5110640000000  0.3999340000000 1.0
C      1  0.4906280000000  0.4317160000000  0.4335750000000 1.0
C      1  0.5537010000000  0.5617580000000  0.5575980000000 1.0
C      1  0.4052640000000  0.5218370000000  0.5051590000000 1.0
C      1  0.5524120000000  0.5402940000000  0.5809120000000 1.0
C      1  0.3963450000000  0.4994070000000  0.4841840000000 1.0
C      1  0.4239200000000  0.5869420000000  0.5137840000000 1.0
C      1  0.4625740000000  0.5243560000000  0.4851890000000 1.0
C      1  0.5559590000000  0.4554550000000  0.5737700000000 1.0
C      1  0.5581820000000  0.4556920000000  0.4169300000000 1.0
C      1  0.4988310000000  0.4983720000000  0.4290650000000 1.0
C      1  0.5137660000000  0.4893400000000  0.5439130000000 1.0
C      1  0.5241810000000  0.5405360000000  0.5875400000000 1.0
C      1  0.5757920000000  0.5815300000000  0.5117060000000 1.0
C      1  0.4592780000000  0.4382540000000  0.5137610000000 1.0
C      1  0.5358680000000  0.4795350000000  0.5757330000000 1.0
C      1  0.4625060000000  0.4961900000000  0.5238590000000 1.0
C      1  0.5049160000000  0.5636800000000  0.5811980000000 1.0
C      1  0.4395900000000  0.4626510000000  0.4237310000000 1.0
C      1  0.4537720000000  0.5775150000000  0.4766580000000 1.0
C      1  0.4798960000000  0.4793390000000  0.4500610000000 1.0
C      1  0.5101700000000  0.3791670000000  0.5650310000000 1.0
C      1  0.4148680000000  0.5211280000000  0.4654950000000 1.0
C      1  0.5834810000000  0.5831460000000  0.4819810000000 1.0
C      1  0.4602360000000  0.5311060000000  0.6172080000000 1.0
C      1  0.5407180000000  0.4698070000000  0.4742150000000 1.0
C      1  0.4534710000000  0.4703850000000  0.5684440000000 1.0
C      1  0.4648340000000  0.5782840000000  0.5016620000000 1.0
C      1  0.4900670000000  0.4998740000000  0.5643250000000 1.0
C      1  0.5207000000000  0.5971960000000  0.5287840000000 1.0
C      1  0.4327050000000  0.5844040000000  0.5420250000000 1.0
C      1  0.4641100000000  0.4246800000000  0.4444950000000 1.0
C      1  0.5621800000000  0.4722930000000  0.4545530000000 1.0
C      1  0.4557010000000  0.5455960000000  0.4663940000000 1.0
C      1  0.4212590000000  0.5138290000000  0.5597310000000 1.0
C      1  0.5082680000000  0.4580310000000  0.5563810000000 1.0
C      1  0.4391350000000  0.4115950000000  0.5202350000000 1.0
C      1  0.3960750000000  0.4866700000000  0.5451540000000 1.0
C      1  0.5103020000000  0.4796170000000  0.4624320000000 1.0
C      1  0.5496790000000  0.4918310000000  0.4317860000000 1.0
C      1  0.4756810000000  0.4771390000000  0.5432440000000 1.0
C      1  0.5609830000000  0.5856460000000  0.4622900000000 1.0
C      1  0.4229450000000  0.5541520000000  0.4677090000000 1.0
C      1  0.5794050000000  0.5512130000000  0.4707930000000 1.0
C      1  0.5477180000000  0.4099630000000  0.4790570000000 1.0
C      1  0.3956480000000  0.5156500000000  0.5369640000000 1.0
C      1  0.5720400000000  0.4214220000000  0.5302810000000 1.0
C      1  0.5424610000000  0.4754920000000  0.3960560000000 1.0
C      1  0.4908830000000  0.3930750000000  0.5508090000000 1.0
C      1  0.4341700000000  0.5098430000000  0.4910610000000 1.0
C      1  0.4381560000000  0.4896400000000  0.4151660000000 1.0
C      1  0.4933430000000  0.5443340000000  0.4004590000000 1.0
C      1  0.4824610000000  0.5187410000000  0.6183360000000 1.0
C      1  0.5839400000000  0.4640870000000  0.4279170000000 1.0
C      1  0.5986850000000  0.4942180000000  0.3930740000000 1.0
END
