TITL C-2778424-3986-331 -0.00389248265962664 125000 -584.851926469529 0 0 102 (C1) n - 1
REM
REM in /home/nfs/bkarasulu/CARBON/AIRSS/Generating-Clusters/REBO/Only-C1/SD-CG/HFTN-CG
REM
REM
REM
REM
REM
REM ./C.cell (11c1c37f851c82e70ff6c80c92926a4b)
REM
REM compiler GCC version 9.2.1 20190827 (Red Hat 9.2.1-1)
REM options -cpp -mtune=generic -march=x86-64 -g -O0 -fpre-include=/usr/include/finclude/math-vector-fortran.h
REM seed -598977300 -494581520 -869264312 -1350369540 293871231 -1670513570 1856632932 1078773990 1018374811 -1554222210 664731351 -235119524 2108188952 -698056947 -352189817 1033919001 1520740318 932349654 1522984785 -891087478 -1876308142 2000486162 1464889956 -1580194554 239868417 1099894248 -546181026 1168578293 300919692 389960644 161489025 1034642593 484753988
REM
CELL 1.54180   50.00000   50.00000   50.00000   90.00000   90.00000   90.00000
LATT -1
SFAC C  
C      1  0.5175270000000  0.4299180000000  0.5508330000000 1.0
C      1  0.4916980000000  0.4283510000000  0.4855530000000 1.0
C      1  0.4447130000000  0.4377130000000  0.5453940000000 1.0
C      1  0.4681030000000  0.4711790000000  0.5200580000000 1.0
C      1  0.4959840000000  0.4588830000000  0.4767030000000 1.0
C      1  0.5009370000000  0.5092830000000  0.5027240000000 1.0
C      1  0.4501090000000  0.5034070000000  0.5100540000000 1.0
C      1  0.5424130000000  0.5723760000000  0.5212640000000 1.0
C      1  0.4515790000000  0.4439850000000  0.5193350000000 1.0
C      1  0.4842030000000  0.4974610000000  0.4185660000000 1.0
C      1  0.4891660000000  0.5669800000000  0.5288270000000 1.0
C      1  0.5106120000000  0.5278450000000  0.4575220000000 1.0
C      1  0.5751900000000  0.4750940000000  0.5282940000000 1.0
C      1  0.4855580000000  0.4705340000000  0.5869060000000 1.0
C      1  0.4675930000000  0.5501840000000  0.4259280000000 1.0
C      1  0.4297470000000  0.4559310000000  0.4856880000000 1.0
C      1  0.5131430000000  0.5525400000000  0.5742510000000 1.0
C      1  0.4762710000000  0.4150080000000  0.4594980000000 1.0
C      1  0.4968560000000  0.5541700000000  0.4120710000000 1.0
C      1  0.4560210000000  0.4696850000000  0.4167070000000 1.0
C      1  0.4861060000000  0.4444600000000  0.4495170000000 1.0
C      1  0.4826430000000  0.5556120000000  0.4625280000000 1.0
C      1  0.5344510000000  0.4468220000000  0.5121670000000 1.0
C      1  0.5486360000000  0.5208070000000  0.5764680000000 1.0
C      1  0.5718780000000  0.4921630000000  0.4925230000000 1.0
C      1  0.5496800000000  0.5037230000000  0.4897130000000 1.0
C      1  0.4492130000000  0.4115190000000  0.4640200000000 1.0
C      1  0.4916080000000  0.4480330000000  0.5635580000000 1.0
C      1  0.5662000000000  0.4465720000000  0.5175990000000 1.0
C      1  0.5194200000000  0.4644850000000  0.5258090000000 1.0
C      1  0.4659680000000  0.4903650000000  0.5792070000000 1.0
C      1  0.4971120000000  0.5366330000000  0.5924070000000 1.0
C      1  0.4984890000000  0.5715510000000  0.5602070000000 1.0
C      1  0.5520980000000  0.4808030000000  0.5463470000000 1.0
C      1  0.4914000000000  0.5262620000000  0.4311810000000 1.0
C      1  0.5724620000000  0.5361520000000  0.4843820000000 1.0
C      1  0.5327980000000  0.5961680000000  0.5334510000000 1.0
C      1  0.4371730000000  0.4288600000000  0.4854450000000 1.0
C      1  0.5510690000000  0.5497900000000  0.5368300000000 1.0
C      1  0.5133380000000  0.4831170000000  0.4911760000000 1.0
C      1  0.4767050000000  0.5194060000000  0.5819880000000 1.0
C      1  0.4411350000000  0.5565680000000  0.4681040000000 1.0
C      1  0.4507100000000  0.4989650000000  0.4243320000000 1.0
C      1  0.4537290000000  0.4849430000000  0.5485700000000 1.0
C      1  0.5979910000000  0.5222880000000  0.4921510000000 1.0
C      1  0.4960420000000  0.5623980000000  0.4882670000000 1.0
C      1  0.5361190000000  0.4453410000000  0.4440860000000 1.0
C      1  0.5611740000000  0.4386480000000  0.4661880000000 1.0
C      1  0.5527020000000  0.5343800000000  0.4637240000000 1.0
C      1  0.5685110000000  0.5289520000000  0.5177990000000 1.0
C      1  0.4892960000000  0.4637630000000  0.4215120000000 1.0
C      1  0.5297680000000  0.4335970000000  0.4749170000000 1.0
C      1  0.4225220000000  0.5256100000000  0.5281200000000 1.0
C      1  0.4717810000000  0.5206200000000  0.4959770000000 1.0
C      1  0.5538140000000  0.4774600000000  0.4600550000000 1.0
C      1  0.5351880000000  0.4667550000000  0.4776580000000 1.0
C      1  0.5376220000000  0.5194580000000  0.5145900000000 1.0
C      1  0.5226990000000  0.5866520000000  0.4717670000000 1.0
C      1  0.4416030000000  0.5009200000000  0.4518080000000 1.0
C      1  0.5209650000000  0.5312830000000  0.4877580000000 1.0
C      1  0.4947550000000  0.4646990000000  0.5360110000000 1.0
C      1  0.5070010000000  0.4999930000000  0.5515730000000 1.0
C      1  0.5334030000000  0.4576730000000  0.5626550000000 1.0
C      1  0.4589300000000  0.4548020000000  0.5622540000000 1.0
C      1  0.4279350000000  0.5029720000000  0.5441200000000 1.0
C      1  0.4891430000000  0.5015010000000  0.4654560000000 1.0
C      1  0.5298140000000  0.5016910000000  0.5361580000000 1.0
C      1  0.5900700000000  0.5022180000000  0.5185080000000 1.0
C      1  0.4347950000000  0.5249160000000  0.4707060000000 1.0
C      1  0.5511370000000  0.4343640000000  0.5456990000000 1.0
C      1  0.5071320000000  0.4115670000000  0.5285170000000 1.0
C      1  0.4648030000000  0.4210550000000  0.5028440000000 1.0
C      1  0.5420120000000  0.4949890000000  0.5736280000000 1.0
C      1  0.4492130000000  0.5632640000000  0.4420010000000 1.0
C      1  0.4617480000000  0.5218940000000  0.5344690000000 1.0
C      1  0.5019820000000  0.5633180000000  0.4414490000000 1.0
C      1  0.5145170000000  0.5034940000000  0.4079450000000 1.0
C      1  0.4258790000000  0.4817120000000  0.4999910000000 1.0
C      1  0.4484070000000  0.4747460000000  0.4677240000000 1.0
C      1  0.5172930000000  0.4901090000000  0.4505650000000 1.0
C      1  0.4823200000000  0.5144710000000  0.5520140000000 1.0
C      1  0.4597870000000  0.5712950000000  0.5187260000000 1.0
C      1  0.5387590000000  0.5436380000000  0.5628180000000 1.0
C      1  0.5774430000000  0.4403020000000  0.4882260000000 1.0
C      1  0.4804090000000  0.4036360000000  0.5246930000000 1.0
C      1  0.5299340000000  0.5563400000000  0.4578440000000 1.0
C      1  0.4566080000000  0.5510410000000  0.4940250000000 1.0
C      1  0.4573660000000  0.4565810000000  0.4440700000000 1.0
C      1  0.5131300000000  0.4793020000000  0.5760280000000 1.0
C      1  0.4971480000000  0.5940430000000  0.4922150000000 1.0
C      1  0.5007690000000  0.5418320000000  0.5135210000000 1.0
C      1  0.5303400000000  0.5672980000000  0.4962730000000 1.0
C      1  0.5465090000000  0.5077980000000  0.4500490000000 1.0
C      1  0.5184130000000  0.4212230000000  0.5015260000000 1.0
C      1  0.4685190000000  0.5279260000000  0.4638510000000 1.0
C      1  0.5355420000000  0.5083580000000  0.4200130000000 1.0
C      1  0.4214070000000  0.5152630000000  0.4968530000000 1.0
C      1  0.4437320000000  0.5472560000000  0.5316840000000 1.0
C      1  0.5055700000000  0.5945080000000  0.5403150000000 1.0
C      1  0.5176130000000  0.4650200000000  0.4360480000000 1.0
C      1  0.4756640000000  0.5990850000000  0.5092100000000 1.0
C      1  0.4738090000000  0.4803780000000  0.4876400000000 1.0
END
