TITL C-2778431-5191-174 -3.90004205958294e-05 125000 -782.655024233345 0 0 137 (C1) n - 1
REM
REM in /home/nfs/bkarasulu/CARBON/AIRSS/Generating-Clusters/REBO/Only-C1/SD-CG/HFTN-CG
REM
REM
REM
REM
REM
REM ./C.cell (11c1c37f851c82e70ff6c80c92926a4b)
REM
REM compiler GCC version 9.2.1 20190827 (Red Hat 9.2.1-1)
REM options -cpp -mtune=generic -march=x86-64 -g -O0 -fpre-include=/usr/include/finclude/math-vector-fortran.h
REM seed -126370409 -1433614776 -1098080337 -94088899 1589262078 -1688159120 1904897374 -128762378 -471371625 1222911781 -1379413189 273304471 -2063798427 1678295906 459310839 -1937651537 1189967756 1453674057 -594604287 2024077971 -1350908116 -1857876159 977497540 -1422596379 363791033 -1138601511 1408455780 -785552950 760855902 -1353783485 -1244437522 266097451 -521771060
REM
CELL 1.54180   50.00000   50.00000   50.00000   90.00000   90.00000   90.00000
LATT -1
SFAC C  
C      1  0.5216130000000  0.4982850000000  0.5776240000000 1.0
C      1  0.4954770000000  0.5341830000000  0.4549970000000 1.0
C      1  0.4432830000000  0.5624800000000  0.4476220000000 1.0
C      1  0.4675770000000  0.5838240000000  0.5551180000000 1.0
C      1  0.4987490000000  0.5689800000000  0.5578610000000 1.0
C      1  0.4942530000000  0.4255740000000  0.4333070000000 1.0
C      1  0.5221170000000  0.5992870000000  0.4703580000000 1.0
C      1  0.5841590000000  0.5070340000000  0.5334140000000 1.0
C      1  0.4808990000000  0.5040780000000  0.4883480000000 1.0
C      1  0.5406240000000  0.5028660000000  0.4722450000000 1.0
C      1  0.5108490000000  0.4846710000000  0.5502920000000 1.0
C      1  0.5241560000000  0.4307040000000  0.5770350000000 1.0
C      1  0.5232070000000  0.4120960000000  0.5483950000000 1.0
C      1  0.5895560000000  0.5443910000000  0.4888010000000 1.0
C      1  0.5233230000000  0.5073580000000  0.4469500000000 1.0
C      1  0.4744060000000  0.5641590000000  0.4331290000000 1.0
C      1  0.5091470000000  0.5140020000000  0.4018970000000 1.0
C      1  0.4423640000000  0.4345870000000  0.4460130000000 1.0
C      1  0.4176360000000  0.5446670000000  0.4952360000000 1.0
C      1  0.4976180000000  0.4396580000000  0.5853290000000 1.0
C      1  0.5444120000000  0.4717400000000  0.4666880000000 1.0
C      1  0.5603390000000  0.4920480000000  0.5483770000000 1.0
C      1  0.5739650000000  0.5328830000000  0.4615780000000 1.0
C      1  0.5916850000000  0.5130450000000  0.4914020000000 1.0
C      1  0.4382060000000  0.4613020000000  0.5199310000000 1.0
C      1  0.5167710000000  0.4302350000000  0.4584960000000 1.0
C      1  0.5651240000000  0.4969140000000  0.5062500000000 1.0
C      1  0.4949030000000  0.3805160000000  0.4881800000000 1.0
C      1  0.4669720000000  0.5949540000000  0.5027110000000 1.0
C      1  0.4722940000000  0.4216290000000  0.4557710000000 1.0
C      1  0.5399140000000  0.4150470000000  0.4784330000000 1.0
C      1  0.5117440000000  0.5295210000000  0.5549260000000 1.0
C      1  0.4391430000000  0.4383720000000  0.4785950000000 1.0
C      1  0.5324750000000  0.4924840000000  0.5287320000000 1.0
C      1  0.4062900000000  0.4919940000000  0.4821260000000 1.0
C      1  0.4692430000000  0.4517230000000  0.4696840000000 1.0
C      1  0.5253400000000  0.5423610000000  0.5836160000000 1.0
C      1  0.5448470000000  0.5365210000000  0.5497800000000 1.0
C      1  0.5531910000000  0.4677710000000  0.5048260000000 1.0
C      1  0.4292760000000  0.5823140000000  0.5019240000000 1.0
C      1  0.4243480000000  0.5150580000000  0.5687540000000 1.0
C      1  0.4923270000000  0.4216750000000  0.4822240000000 1.0
C      1  0.5267750000000  0.4131240000000  0.5158740000000 1.0
C      1  0.4602330000000  0.4970050000000  0.4651060000000 1.0
C      1  0.5071180000000  0.5593250000000  0.4242220000000 1.0
C      1  0.5379650000000  0.4425650000000  0.4342140000000 1.0
C      1  0.5802930000000  0.4380750000000  0.4588920000000 1.0
C      1  0.4503900000000  0.4323800000000  0.5230030000000 1.0
C      1  0.5341450000000  0.5042660000000  0.4153190000000 1.0
C      1  0.4235580000000  0.5371800000000  0.5455640000000 1.0
C      1  0.5481680000000  0.5532070000000  0.4843970000000 1.0
C      1  0.4734100000000  0.4736240000000  0.4466920000000 1.0
C      1  0.5109440000000  0.5538370000000  0.5164420000000 1.0
C      1  0.4488520000000  0.4926960000000  0.5695720000000 1.0
C      1  0.5293940000000  0.5387290000000  0.4345860000000 1.0
C      1  0.5513000000000  0.4336360000000  0.5042650000000 1.0
C      1  0.4758790000000  0.5781800000000  0.4642330000000 1.0
C      1  0.4844290000000  0.4694210000000  0.4074720000000 1.0
C      1  0.4505850000000  0.5084940000000  0.5395230000000 1.0
C      1  0.5584730000000  0.5207880000000  0.4336980000000 1.0
C      1  0.4955270000000  0.5251880000000  0.5254660000000 1.0
C      1  0.4848990000000  0.4945840000000  0.6087510000000 1.0
C      1  0.5733900000000  0.4990870000000  0.4673410000000 1.0
C      1  0.4910280000000  0.4647650000000  0.5964590000000 1.0
C      1  0.4961240000000  0.5167200000000  0.5901120000000 1.0
C      1  0.5496680000000  0.4481490000000  0.5748250000000 1.0
C      1  0.5272800000000  0.4582020000000  0.5252470000000 1.0
C      1  0.5003690000000  0.5978830000000  0.4968450000000 1.0
C      1  0.4696080000000  0.3921340000000  0.4958630000000 1.0
C      1  0.4246760000000  0.4780720000000  0.5386610000000 1.0
C      1  0.5176000000000  0.5554940000000  0.4861250000000 1.0
C      1  0.4178760000000  0.5083280000000  0.5298620000000 1.0
C      1  0.4542560000000  0.5037290000000  0.4330450000000 1.0
C      1  0.4647530000000  0.5585930000000  0.5750850000000 1.0
C      1  0.4786520000000  0.4299050000000  0.5659930000000 1.0
C      1  0.5339500000000  0.5996630000000  0.4989840000000 1.0
C      1  0.4791960000000  0.4190280000000  0.5136770000000 1.0
C      1  0.4230880000000  0.4638000000000  0.4906980000000 1.0
C      1  0.5571690000000  0.5723510000000  0.5376520000000 1.0
C      1  0.5549050000000  0.5810870000000  0.4998810000000 1.0
C      1  0.5695230000000  0.4635310000000  0.5551370000000 1.0
C      1  0.5254930000000  0.4725430000000  0.4240510000000 1.0
C      1  0.4442660000000  0.4126260000000  0.4966720000000 1.0
C      1  0.5773370000000  0.4658030000000  0.4731420000000 1.0
C      1  0.4902880000000  0.4441790000000  0.4141710000000 1.0
C      1  0.4497180000000  0.5900320000000  0.4758220000000 1.0
C      1  0.6033410000000  0.4890460000000  0.5125180000000 1.0
C      1  0.5392440000000  0.5868790000000  0.4523760000000 1.0
C      1  0.4640520000000  0.5401500000000  0.4631530000000 1.0
C      1  0.4872670000000  0.5059940000000  0.5593630000000 1.0
C      1  0.4247970000000  0.5593820000000  0.5251510000000 1.0
C      1  0.4935630000000  0.5498560000000  0.5859520000000 1.0
C      1  0.5874520000000  0.4635690000000  0.5041580000000 1.0
C      1  0.4878650000000  0.5764600000000  0.5202360000000 1.0
C      1  0.5762670000000  0.5594690000000  0.5123160000000 1.0
C      1  0.5062120000000  0.5652560000000  0.4569640000000 1.0
C      1  0.4449120000000  0.4617780000000  0.4353650000000 1.0
C      1  0.4495410000000  0.5828860000000  0.5294830000000 1.0
C      1  0.4949240000000  0.4238470000000  0.5386210000000 1.0
C      1  0.5141860000000  0.4614580000000  0.4698730000000 1.0
C      1  0.4980990000000  0.4565700000000  0.5434400000000 1.0
C      1  0.4835540000000  0.5542090000000  0.4873970000000 1.0
C      1  0.4648330000000  0.5375210000000  0.5030410000000 1.0
C      1  0.5543400000000  0.5286930000000  0.4994100000000 1.0
C      1  0.5560630000000  0.4249760000000  0.4531750000000 1.0
C      1  0.4600520000000  0.4466670000000  0.5500710000000 1.0
C      1  0.4745090000000  0.5026500000000  0.5206640000000 1.0
C      1  0.5492400000000  0.5052260000000  0.5742540000000 1.0
C      1  0.5196710000000  0.3913830000000  0.4921020000000 1.0
C      1  0.4427550000000  0.5224850000000  0.4916240000000 1.0
C      1  0.5044560000000  0.5174720000000  0.4806040000000 1.0
C      1  0.5117900000000  0.4396640000000  0.5031970000000 1.0
C      1  0.4456790000000  0.5352710000000  0.4283510000000 1.0
C      1  0.4796130000000  0.5313570000000  0.4249560000000 1.0
C      1  0.4784890000000  0.5494260000000  0.5387400000000 1.0
C      1  0.4886550000000  0.4600060000000  0.4924120000000 1.0
C      1  0.4155420000000  0.5003280000000  0.4563190000000 1.0
C      1  0.5708510000000  0.4939500000000  0.4274060000000 1.0
C      1  0.4233390000000  0.5686160000000  0.4717740000000 1.0
C      1  0.5662380000000  0.5328980000000  0.5295990000000 1.0
C      1  0.4333580000000  0.5255960000000  0.4588760000000 1.0
C      1  0.4810900000000  0.4996780000000  0.4125040000000 1.0
C      1  0.4544130000000  0.5371860000000  0.5545490000000 1.0
C      1  0.5550130000000  0.5341650000000  0.5819220000000 1.0
C      1  0.5740930000000  0.4434620000000  0.5280230000000 1.0
C      1  0.4717410000000  0.4767500000000  0.5512260000000 1.0
C      1  0.5445530000000  0.4359880000000  0.5433580000000 1.0
C      1  0.5278890000000  0.5101740000000  0.5022960000000 1.0
C      1  0.4684740000000  0.4731920000000  0.5103130000000 1.0
C      1  0.5030940000000  0.4799930000000  0.4458160000000 1.0
C      1  0.4055660000000  0.5134950000000  0.5020720000000 1.0
C      1  0.5565340000000  0.4711110000000  0.4351130000000 1.0
C      1  0.4444560000000  0.4898780000000  0.4930260000000 1.0
C      1  0.5505030000000  0.5554030000000  0.4520360000000 1.0
C      1  0.5274790000000  0.5641600000000  0.5427970000000 1.0
C      1  0.4228300000000  0.4798060000000  0.4378710000000 1.0
C      1  0.4611490000000  0.4795640000000  0.5945210000000 1.0
END
