TITL C-2778432-5617-300 0.0610341889136989 125000 -621.325552427075 0 0 105 (C1) n - 1
REM
REM in /home/nfs/bkarasulu/CARBON/AIRSS/Generating-Clusters/REBO/Only-C1/SD-CG/HFTN-CG
REM
REM
REM
REM
REM
REM ./C.cell (11c1c37f851c82e70ff6c80c92926a4b)
REM
REM compiler GCC version 9.2.1 20190827 (Red Hat 9.2.1-1)
REM options -cpp -mtune=generic -march=x86-64 -g -O0 -fpre-include=/usr/include/finclude/math-vector-fortran.h
REM seed -1256118551 -1746325014 -1676395786 989295982 1862588241 702984398 -1257757935 -1993914256 1569570298 277577934 1509568901 -778484330 1795597327 -1116135638 -665559406 1508814226 1827090560 767460096 500431677 -419758608 -1598967392 -184368014 -1107057965 1156612377 -1380609884 671319220 754528331 -160745460 1135059021 -1630698950 494319505 1694834984 887815117
REM
CELL 1.54180   50.00000   50.00000   50.00000   90.00000   90.00000   90.00000
LATT -1
SFAC C  
C      1  0.4272220000000  0.4953780000000  0.4786860000000 1.0
C      1  0.5365620000000  0.4827590000000  0.5271760000000 1.0
C      1  0.4682270000000  0.4333310000000  0.4539790000000 1.0
C      1  0.4882200000000  0.6173310000000  0.4976580000000 1.0
C      1  0.5330180000000  0.4558340000000  0.5599810000000 1.0
C      1  0.5605190000000  0.4344270000000  0.4838620000000 1.0
C      1  0.5161050000000  0.4799510000000  0.4133810000000 1.0
C      1  0.5450440000000  0.5234030000000  0.4935560000000 1.0
C      1  0.5169610000000  0.4639550000000  0.4412670000000 1.0
C      1  0.5715760000000  0.4772130000000  0.4595710000000 1.0
C      1  0.4832600000000  0.5144570000000  0.4108480000000 1.0
C      1  0.4837390000000  0.4633460000000  0.5745240000000 1.0
C      1  0.5919050000000  0.5174090000000  0.4973710000000 1.0
C      1  0.4600450000000  0.4303020000000  0.5411760000000 1.0
C      1  0.4743750000000  0.4569460000000  0.5030500000000 1.0
C      1  0.5448370000000  0.5601760000000  0.5439650000000 1.0
C      1  0.4269740000000  0.5246990000000  0.4756850000000 1.0
C      1  0.4756240000000  0.5104830000000  0.5881920000000 1.0
C      1  0.5143710000000  0.4751330000000  0.5811600000000 1.0
C      1  0.4660790000000  0.4882320000000  0.4494050000000 1.0
C      1  0.4575890000000  0.4850190000000  0.5761280000000 1.0
C      1  0.4937660000000  0.5218010000000  0.4849880000000 1.0
C      1  0.5172520000000  0.5277620000000  0.5073390000000 1.0
C      1  0.5626920000000  0.4724260000000  0.5583150000000 1.0
C      1  0.4709670000000  0.5521840000000  0.5196780000000 1.0
C      1  0.5581520000000  0.5192630000000  0.5644570000000 1.0
C      1  0.5398090000000  0.4941290000000  0.5681530000000 1.0
C      1  0.5121890000000  0.4252290000000  0.4911040000000 1.0
C      1  0.5139110000000  0.5063810000000  0.4348240000000 1.0
C      1  0.5180500000000  0.5736200000000  0.5372370000000 1.0
C      1  0.5566600000000  0.4962120000000  0.4412380000000 1.0
C      1  0.4686420000000  0.5213050000000  0.5339650000000 1.0
C      1  0.4714470000000  0.4863420000000  0.5295830000000 1.0
C      1  0.5139500000000  0.5584510000000  0.4741800000000 1.0
C      1  0.4875520000000  0.4368770000000  0.4296390000000 1.0
C      1  0.4224610000000  0.5359710000000  0.5034290000000 1.0
C      1  0.4338190000000  0.4658510000000  0.5657900000000 1.0
C      1  0.4341040000000  0.5737890000000  0.5465200000000 1.0
C      1  0.5210030000000  0.5569040000000  0.4459520000000 1.0
C      1  0.5491150000000  0.4638400000000  0.4913950000000 1.0
C      1  0.5426270000000  0.4489280000000  0.5279150000000 1.0
C      1  0.4473830000000  0.5370570000000  0.4601290000000 1.0
C      1  0.5149110000000  0.5782710000000  0.5088840000000 1.0
C      1  0.4281230000000  0.4317260000000  0.4855840000000 1.0
C      1  0.4961240000000  0.4787320000000  0.4591520000000 1.0
C      1  0.4225730000000  0.4914160000000  0.5103030000000 1.0
C      1  0.5009990000000  0.4565260000000  0.5132740000000 1.0
C      1  0.5023630000000  0.5254440000000  0.5358870000000 1.0
C      1  0.4863490000000  0.4247230000000  0.5323890000000 1.0
C      1  0.5852500000000  0.4861530000000  0.5497580000000 1.0
C      1  0.5062240000000  0.4465180000000  0.5435790000000 1.0
C      1  0.5060160000000  0.5440530000000  0.4250550000000 1.0
C      1  0.4615550000000  0.4230620000000  0.4861640000000 1.0
C      1  0.5151710000000  0.4246800000000  0.4355360000000 1.0
C      1  0.4881980000000  0.4194370000000  0.5043720000000 1.0
C      1  0.4623270000000  0.5630680000000  0.4523230000000 1.0
C      1  0.4064470000000  0.5351590000000  0.5268080000000 1.0
C      1  0.5440460000000  0.5430920000000  0.5669910000000 1.0
C      1  0.4779540000000  0.5757100000000  0.4719990000000 1.0
C      1  0.4942330000000  0.4776150000000  0.5465040000000 1.0
C      1  0.4416930000000  0.4767820000000  0.4630150000000 1.0
C      1  0.5061990000000  0.5084680000000  0.5842850000000 1.0
C      1  0.4537600000000  0.5162990000000  0.5629480000000 1.0
C      1  0.4475730000000  0.5134490000000  0.5079390000000 1.0
C      1  0.5427040000000  0.5257580000000  0.4318920000000 1.0
C      1  0.4945990000000  0.5911520000000  0.4930560000000 1.0
C      1  0.4244840000000  0.5237070000000  0.5599550000000 1.0
C      1  0.4568920000000  0.5718800000000  0.5315590000000 1.0
C      1  0.5641130000000  0.5477160000000  0.4806330000000 1.0
C      1  0.5066940000000  0.4405980000000  0.4645620000000 1.0
C      1  0.5809090000000  0.4907760000000  0.4834030000000 1.0
C      1  0.4440080000000  0.4333960000000  0.5139750000000 1.0
C      1  0.5435100000000  0.4997840000000  0.4095800000000 1.0
C      1  0.5170380000000  0.5388350000000  0.5794610000000 1.0
C      1  0.5072120000000  0.5503140000000  0.5531700000000 1.0
C      1  0.4081030000000  0.5039650000000  0.5386020000000 1.0
C      1  0.5372840000000  0.4281500000000  0.5042320000000 1.0
C      1  0.4868140000000  0.5520470000000  0.4936830000000 1.0
C      1  0.5796200000000  0.5145050000000  0.5455260000000 1.0
C      1  0.5390050000000  0.5627780000000  0.4947450000000 1.0
C      1  0.5084030000000  0.5064890000000  0.4649000000000 1.0
C      1  0.5414790000000  0.4427100000000  0.4402850000000 1.0
C      1  0.5160160000000  0.5196690000000  0.4033000000000 1.0
C      1  0.5790300000000  0.5302740000000  0.5206760000000 1.0
C      1  0.5587520000000  0.5513090000000  0.5197750000000 1.0
C      1  0.4407150000000  0.4488110000000  0.4637880000000 1.0
C      1  0.4217700000000  0.4739040000000  0.5389270000000 1.0
C      1  0.4754570000000  0.5398050000000  0.4317930000000 1.0
C      1  0.5633390000000  0.4491760000000  0.4571660000000 1.0
C      1  0.4783860000000  0.4571410000000  0.4740650000000 1.0
C      1  0.5574900000000  0.4997850000000  0.5064240000000 1.0
C      1  0.4163470000000  0.5523470000000  0.5509040000000 1.0
C      1  0.4881010000000  0.4610600000000  0.4138950000000 1.0
C      1  0.5114930000000  0.5015640000000  0.5517630000000 1.0
C      1  0.4751970000000  0.4875760000000  0.4194790000000 1.0
C      1  0.5481710000000  0.5644250000000  0.4398150000000 1.0
C      1  0.4698470000000  0.5175980000000  0.4554840000000 1.0
C      1  0.4772860000000  0.5008010000000  0.5009570000000 1.0
C      1  0.5675730000000  0.4698790000000  0.5183290000000 1.0
C      1  0.4487340000000  0.4644680000000  0.5238010000000 1.0
C      1  0.4575280000000  0.4470050000000  0.5638380000000 1.0
C      1  0.5394090000000  0.5151860000000  0.4639800000000 1.0
C      1  0.5694820000000  0.5562790000000  0.4554710000000 1.0
C      1  0.5213950000000  0.4676780000000  0.4937660000000 1.0
C      1  0.5097210000000  0.4952100000000  0.5101840000000 1.0
END
