TITL C-2778433-5640-884 -0.00785243891933103 125000 -918.881449423486 0 0 161 (C1) n - 1
REM
REM in /home/nfs/bkarasulu/CARBON/AIRSS/Generating-Clusters/REBO/Only-C1/SD-CG/HFTN-CG
REM
REM
REM
REM
REM
REM ./C.cell (11c1c37f851c82e70ff6c80c92926a4b)
REM
REM compiler GCC version 9.2.1 20190827 (Red Hat 9.2.1-1)
REM options -cpp -mtune=generic -march=x86-64 -g -O0 -fpre-include=/usr/include/finclude/math-vector-fortran.h
REM seed 1590344821 80495896 -701308105 -2143127738 834457081 32466834 1026532378 238579883 342467362 -2067826672 991732810 1714571561 761180925 -1685339124 -1915303457 452193389 1334755772 1413629810 1189838728 218788423 328157478 1456991707 215690220 -242818182 351804862 -1201189076 109001687 -1428857980 -540222515 996882921 41492848 320964780 -2065706906
REM
CELL 1.54180   50.00000   50.00000   50.00000   90.00000   90.00000   90.00000
LATT -1
SFAC C  
C      1  0.5332310000000  0.5974650000000  0.4700390000000 1.0
C      1  0.4944950000000  0.5697510000000  0.5513110000000 1.0
C      1  0.5882960000000  0.5437580000000  0.4595160000000 1.0
C      1  0.5198880000000  0.4946260000000  0.6006560000000 1.0
C      1  0.5445720000000  0.4583170000000  0.4251580000000 1.0
C      1  0.4981820000000  0.4071110000000  0.5195080000000 1.0
C      1  0.4610060000000  0.3995860000000  0.5508190000000 1.0
C      1  0.4919580000000  0.4784360000000  0.4788530000000 1.0
C      1  0.5411760000000  0.5140830000000  0.5303220000000 1.0
C      1  0.5437310000000  0.5200860000000  0.3919400000000 1.0
C      1  0.4130810000000  0.4434690000000  0.5027300000000 1.0
C      1  0.5376440000000  0.5253340000000  0.5011270000000 1.0
C      1  0.5668180000000  0.5178450000000  0.4545670000000 1.0
C      1  0.4377770000000  0.4512650000000  0.5452190000000 1.0
C      1  0.5098630000000  0.4332820000000  0.5297180000000 1.0
C      1  0.5654600000000  0.4951760000000  0.4292570000000 1.0
C      1  0.4321640000000  0.5918980000000  0.5261650000000 1.0
C      1  0.5716370000000  0.5241190000000  0.5050210000000 1.0
C      1  0.5741300000000  0.4660140000000  0.4346760000000 1.0
C      1  0.5261570000000  0.5815980000000  0.5525400000000 1.0
C      1  0.4953970000000  0.4849090000000  0.3926430000000 1.0
C      1  0.4680650000000  0.5405050000000  0.5576320000000 1.0
C      1  0.4208410000000  0.5147110000000  0.4451070000000 1.0
C      1  0.6047300000000  0.4870700000000  0.4651390000000 1.0
C      1  0.4646130000000  0.4246160000000  0.4452290000000 1.0
C      1  0.4957130000000  0.5502520000000  0.4084110000000 1.0
C      1  0.5331310000000  0.4666770000000  0.4543390000000 1.0
C      1  0.4718620000000  0.4633630000000  0.5953650000000 1.0
C      1  0.4769510000000  0.5180540000000  0.5032440000000 1.0
C      1  0.5595840000000  0.4781080000000  0.5703090000000 1.0
C      1  0.5187170000000  0.5352700000000  0.4003820000000 1.0
C      1  0.5167250000000  0.5415460000000  0.4711680000000 1.0
C      1  0.4974060000000  0.5572310000000  0.4356200000000 1.0
C      1  0.4299860000000  0.4259500000000  0.4805350000000 1.0
C      1  0.5181260000000  0.5753100000000  0.5196870000000 1.0
C      1  0.4664000000000  0.5159290000000  0.5416520000000 1.0
C      1  0.4303610000000  0.5279530000000  0.5599520000000 1.0
C      1  0.5691320000000  0.5598350000000  0.5220940000000 1.0
C      1  0.4894900000000  0.4445070000000  0.4788590000000 1.0
C      1  0.4918230000000  0.4252440000000  0.4370220000000 1.0
C      1  0.4700070000000  0.4804830000000  0.5150060000000 1.0
C      1  0.4873920000000  0.4115950000000  0.4911110000000 1.0
C      1  0.5746180000000  0.4590870000000  0.5485990000000 1.0
C      1  0.4501380000000  0.4639890000000  0.4150740000000 1.0
C      1  0.5483730000000  0.5027410000000  0.5908540000000 1.0
C      1  0.4790830000000  0.4449130000000  0.5675860000000 1.0
C      1  0.4601360000000  0.4177230000000  0.4753550000000 1.0
C      1  0.4585080000000  0.4299100000000  0.5504340000000 1.0
C      1  0.4471120000000  0.5037050000000  0.4174080000000 1.0
C      1  0.4920450000000  0.5619850000000  0.4774550000000 1.0
C      1  0.5274140000000  0.4831720000000  0.5632050000000 1.0
C      1  0.5943940000000  0.5209400000000  0.5311520000000 1.0
C      1  0.5497370000000  0.4385500000000  0.5592950000000 1.0
C      1  0.4379950000000  0.5708370000000  0.5060400000000 1.0
C      1  0.5841460000000  0.4895050000000  0.5411350000000 1.0
C      1  0.4479220000000  0.5593680000000  0.5428750000000 1.0
C      1  0.4738420000000  0.4493650000000  0.5281910000000 1.0
C      1  0.4590540000000  0.5202160000000  0.4770410000000 1.0
C      1  0.5720350000000  0.5088850000000  0.5667460000000 1.0
C      1  0.4460730000000  0.5888490000000  0.5572820000000 1.0
C      1  0.4957650000000  0.5389980000000  0.5765160000000 1.0
C      1  0.5668500000000  0.4316160000000  0.5300810000000 1.0
C      1  0.5296180000000  0.5464000000000  0.5340070000000 1.0
C      1  0.4278880000000  0.5298610000000  0.4193670000000 1.0
C      1  0.5327410000000  0.4299940000000  0.4385250000000 1.0
C      1  0.5661690000000  0.5334140000000  0.5435330000000 1.0
C      1  0.4637800000000  0.4426090000000  0.4990610000000 1.0
C      1  0.4045250000000  0.4885640000000  0.5568870000000 1.0
C      1  0.4870160000000  0.5948290000000  0.4863500000000 1.0
C      1  0.4559170000000  0.4891140000000  0.4855730000000 1.0
C      1  0.5198300000000  0.4044920000000  0.4860740000000 1.0
C      1  0.5444880000000  0.5767030000000  0.4475040000000 1.0
C      1  0.4286610000000  0.5601610000000  0.4751090000000 1.0
C      1  0.4460640000000  0.4858140000000  0.5922820000000 1.0
C      1  0.4313830000000  0.4834260000000  0.4368960000000 1.0
C      1  0.4525380000000  0.4788930000000  0.5443460000000 1.0
C      1  0.4499690000000  0.5650980000000  0.4490780000000 1.0
C      1  0.5117870000000  0.6130170000000  0.4886620000000 1.0
C      1  0.4455560000000  0.5521950000000  0.4188590000000 1.0
C      1  0.4665360000000  0.5580130000000  0.5163810000000 1.0
C      1  0.4306010000000  0.5286130000000  0.4682060000000 1.0
C      1  0.5039980000000  0.4521770000000  0.5977120000000 1.0
C      1  0.4778990000000  0.4707640000000  0.4427870000000 1.0
C      1  0.5449910000000  0.4926510000000  0.4047320000000 1.0
C      1  0.5326060000000  0.4817080000000  0.5312630000000 1.0
C      1  0.5222700000000  0.5152220000000  0.4534480000000 1.0
C      1  0.5269080000000  0.4534310000000  0.5759360000000 1.0
C      1  0.5461670000000  0.5565320000000  0.4981170000000 1.0
C      1  0.4210600000000  0.5451850000000  0.5366010000000 1.0
C      1  0.5678070000000  0.4251950000000  0.4966180000000 1.0
C      1  0.6048860000000  0.4776870000000  0.4933700000000 1.0
C      1  0.5691130000000  0.5233850000000  0.4120660000000 1.0
C      1  0.5036570000000  0.4644400000000  0.5374450000000 1.0
C      1  0.4674970000000  0.5456980000000  0.4012900000000 1.0
C      1  0.5326540000000  0.5329460000000  0.4279920000000 1.0
C      1  0.5512350000000  0.5547870000000  0.4291440000000 1.0
C      1  0.4747820000000  0.5163230000000  0.4327170000000 1.0
C      1  0.5515070000000  0.4562410000000  0.4776570000000 1.0
C      1  0.4733050000000  0.5917170000000  0.5400250000000 1.0
C      1  0.5490700000000  0.5417290000000  0.4667690000000 1.0
C      1  0.6056650000000  0.4654740000000  0.4438280000000 1.0
C      1  0.5796650000000  0.5462360000000  0.4297180000000 1.0
C      1  0.5065860000000  0.4333920000000  0.5625030000000 1.0
C      1  0.4244830000000  0.4518700000000  0.4603060000000 1.0
C      1  0.5109810000000  0.5824290000000  0.4489650000000 1.0
C      1  0.5375810000000  0.5965550000000  0.5037800000000 1.0
C      1  0.4428960000000  0.4409290000000  0.4352360000000 1.0
C      1  0.4614060000000  0.4868710000000  0.3928800000000 1.0
C      1  0.5380670000000  0.4165920000000  0.5071410000000 1.0
C      1  0.4929540000000  0.4898250000000  0.5909380000000 1.0
C      1  0.3961800000000  0.4783250000000  0.5315810000000 1.0
C      1  0.4478460000000  0.5195860000000  0.5853150000000 1.0
C      1  0.4892550000000  0.5803640000000  0.5132110000000 1.0
C      1  0.5112570000000  0.4397070000000  0.4135450000000 1.0
C      1  0.4758610000000  0.5302810000000  0.6243220000000 1.0
C      1  0.4952990000000  0.5440400000000  0.5287250000000 1.0
C      1  0.5536940000000  0.4647100000000  0.5106530000000 1.0
C      1  0.5220380000000  0.4702300000000  0.4026370000000 1.0
C      1  0.5811630000000  0.4926630000000  0.5087940000000 1.0
C      1  0.4742210000000  0.5418160000000  0.4553300000000 1.0
C      1  0.4520870000000  0.4719880000000  0.4583780000000 1.0
C      1  0.5821230000000  0.4541630000000  0.4656970000000 1.0
C      1  0.5061790000000  0.5318630000000  0.4991990000000 1.0
C      1  0.5335140000000  0.5305270000000  0.5851510000000 1.0
C      1  0.5471500000000  0.5498890000000  0.5630170000000 1.0
C      1  0.4123400000000  0.4503980000000  0.5653460000000 1.0
C      1  0.4771970000000  0.5841970000000  0.4561960000000 1.0
C      1  0.5115540000000  0.4247110000000  0.4625790000000 1.0
C      1  0.4073220000000  0.4487340000000  0.5315320000000 1.0
C      1  0.5203550000000  0.4783710000000  0.4936390000000 1.0
C      1  0.4409890000000  0.4614470000000  0.4951860000000 1.0
C      1  0.4807140000000  0.5144060000000  0.3992210000000 1.0
C      1  0.5412160000000  0.4113930000000  0.5406370000000 1.0
C      1  0.5850050000000  0.5524580000000  0.4922240000000 1.0
C      1  0.4842360000000  0.4605180000000  0.4122160000000 1.0
C      1  0.4323310000000  0.4993760000000  0.5544850000000 1.0
C      1  0.5131850000000  0.4013560000000  0.5528870000000 1.0
C      1  0.4998080000000  0.4948710000000  0.5125610000000 1.0
C      1  0.4826460000000  0.4782290000000  0.5603350000000 1.0
C      1  0.5512080000000  0.4246060000000  0.4667180000000 1.0
C      1  0.4187220000000  0.4750160000000  0.5831260000000 1.0
C      1  0.4102160000000  0.4717680000000  0.4842700000000 1.0
C      1  0.5841750000000  0.4538110000000  0.4999110000000 1.0
C      1  0.4475430000000  0.5130750000000  0.5186720000000 1.0
C      1  0.5262070000000  0.4485200000000  0.5073750000000 1.0
C      1  0.5136120000000  0.5118820000000  0.5652520000000 1.0
C      1  0.5207380000000  0.5616900000000  0.5797730000000 1.0
C      1  0.4699250000000  0.5054580000000  0.6064820000000 1.0
C      1  0.5397880000000  0.4937340000000  0.4710300000000 1.0
C      1  0.5733480000000  0.4953720000000  0.4764250000000 1.0
C      1  0.4948210000000  0.4988410000000  0.4516050000000 1.0
C      1  0.4688620000000  0.5441120000000  0.5968150000000 1.0
C      1  0.5636810000000  0.5717950000000  0.4735180000000 1.0
C      1  0.4693550000000  0.5701980000000  0.5745330000000 1.0
C      1  0.5064470000000  0.4609620000000  0.4466100000000 1.0
C      1  0.4147740000000  0.5461460000000  0.5032200000000 1.0
C      1  0.4210150000000  0.5157430000000  0.5095560000000 1.0
C      1  0.4036340000000  0.4926570000000  0.5073100000000 1.0
C      1  0.5533040000000  0.5865120000000  0.5323170000000 1.0
C      1  0.4971620000000  0.5121200000000  0.5389880000000 1.0
C      1  0.4849720000000  0.3894690000000  0.5422370000000 1.0
END
