TITL C-2778435-5768-1480 0.000329293825276691 125000 -641.759082109896 0 0 111 (C1) n - 1
REM
REM in /home/nfs/bkarasulu/CARBON/AIRSS/Generating-Clusters/REBO/Only-C1/SD-CG/HFTN-CG
REM
REM
REM
REM
REM
REM ./C.cell (11c1c37f851c82e70ff6c80c92926a4b)
REM
REM compiler GCC version 9.2.1 20190827 (Red Hat 9.2.1-1)
REM options -cpp -mtune=generic -march=x86-64 -g -O0 -fpre-include=/usr/include/finclude/math-vector-fortran.h
REM seed 1260968487 653986189 978990827 1834796659 1812456835 -710408990 -1648346163 -681200476 -1739626190 -1136334929 990657244 -331486507 -1238288566 -1609754566 -1008558188 -810944530 1083592830 -1933264680 -1952393973 -1765459585 -1033692456 -1768474310 -13497088 521024533 -294523994 -1793867938 847201942 1552506460 239881393 -1442758778 -1604565594 53889775 -223806384
REM
CELL 1.54180   50.00000   50.00000   50.00000   90.00000   90.00000   90.00000
LATT -1
SFAC C  
C      1  0.5496700000000  0.4972940000000  0.5655280000000 1.0
C      1  0.4832760000000  0.4324170000000  0.4333050000000 1.0
C      1  0.4447710000000  0.4983450000000  0.4686860000000 1.0
C      1  0.5508230000000  0.5704330000000  0.4695120000000 1.0
C      1  0.4725010000000  0.4397170000000  0.4791800000000 1.0
C      1  0.4101680000000  0.5033610000000  0.5190490000000 1.0
C      1  0.5037620000000  0.5529270000000  0.4492460000000 1.0
C      1  0.4061420000000  0.5601570000000  0.4516810000000 1.0
C      1  0.4812510000000  0.5315490000000  0.5432410000000 1.0
C      1  0.5340970000000  0.4280540000000  0.5496010000000 1.0
C      1  0.5331380000000  0.4070620000000  0.5156270000000 1.0
C      1  0.4969650000000  0.4917410000000  0.5286640000000 1.0
C      1  0.5211430000000  0.5324030000000  0.5156680000000 1.0
C      1  0.5494640000000  0.5501310000000  0.5181910000000 1.0
C      1  0.4191370000000  0.5327420000000  0.5122800000000 1.0
C      1  0.4884460000000  0.5232840000000  0.4278620000000 1.0
C      1  0.5126250000000  0.5834580000000  0.4956490000000 1.0
C      1  0.5167760000000  0.4693960000000  0.4857620000000 1.0
C      1  0.4194720000000  0.4689330000000  0.4598100000000 1.0
C      1  0.5259900000000  0.4243240000000  0.4580370000000 1.0
C      1  0.4896050000000  0.4499850000000  0.5071200000000 1.0
C      1  0.4473020000000  0.4726860000000  0.5236130000000 1.0
C      1  0.5405080000000  0.5269360000000  0.4518040000000 1.0
C      1  0.4202800000000  0.4837570000000  0.5411650000000 1.0
C      1  0.5393660000000  0.4380620000000  0.4299320000000 1.0
C      1  0.5006000000000  0.4111740000000  0.4436170000000 1.0
C      1  0.4324990000000  0.5456120000000  0.5340570000000 1.0
C      1  0.5791530000000  0.5056120000000  0.5401140000000 1.0
C      1  0.4464990000000  0.5031740000000  0.4366090000000 1.0
C      1  0.4790130000000  0.5723790000000  0.4503070000000 1.0
C      1  0.5819000000000  0.4920110000000  0.4651510000000 1.0
C      1  0.5255760000000  0.5040880000000  0.5876670000000 1.0
C      1  0.5366100000000  0.5567740000000  0.4444950000000 1.0
C      1  0.5475180000000  0.4708280000000  0.4738510000000 1.0
C      1  0.4598610000000  0.5686520000000  0.5094710000000 1.0
C      1  0.4544330000000  0.5579120000000  0.4438150000000 1.0
C      1  0.4563200000000  0.4359010000000  0.5362380000000 1.0
C      1  0.5544270000000  0.4404720000000  0.4637890000000 1.0
C      1  0.5144040000000  0.5056140000000  0.4154270000000 1.0
C      1  0.4984020000000  0.4782470000000  0.4153210000000 1.0
C      1  0.4459690000000  0.4668280000000  0.4422520000000 1.0
C      1  0.5529580000000  0.5268450000000  0.5391680000000 1.0
C      1  0.5922200000000  0.5210230000000  0.4649420000000 1.0
C      1  0.5156290000000  0.4336140000000  0.5216410000000 1.0
C      1  0.4757070000000  0.5118150000000  0.4899050000000 1.0
C      1  0.5528430000000  0.4988410000000  0.5197290000000 1.0
C      1  0.4840880000000  0.5275880000000  0.4613660000000 1.0
C      1  0.5359670000000  0.5293380000000  0.5669650000000 1.0
C      1  0.4316180000000  0.5641450000000  0.4602790000000 1.0
C      1  0.5606490000000  0.4669980000000  0.5113820000000 1.0
C      1  0.4867860000000  0.5884740000000  0.5479200000000 1.0
C      1  0.5591820000000  0.4060210000000  0.5239590000000 1.0
C      1  0.4443750000000  0.4679800000000  0.4820970000000 1.0
C      1  0.4576110000000  0.5318650000000  0.4318370000000 1.0
C      1  0.4640930000000  0.5535960000000  0.5789280000000 1.0
C      1  0.5813210000000  0.4848460000000  0.4937750000000 1.0
C      1  0.4759280000000  0.4774260000000  0.4911810000000 1.0
C      1  0.4478590000000  0.5608630000000  0.5565750000000 1.0
C      1  0.5204820000000  0.5662690000000  0.5205100000000 1.0
C      1  0.4383520000000  0.4183660000000  0.4491080000000 1.0
C      1  0.4460930000000  0.5046130000000  0.5198120000000 1.0
C      1  0.5290210000000  0.4617640000000  0.5126350000000 1.0
C      1  0.4787640000000  0.4683010000000  0.5298750000000 1.0
C      1  0.5200180000000  0.5204780000000  0.4774430000000 1.0
C      1  0.5048020000000  0.4940360000000  0.4690660000000 1.0
C      1  0.5138130000000  0.5525270000000  0.5684290000000 1.0
C      1  0.5931800000000  0.5317620000000  0.4946760000000 1.0
C      1  0.5908260000000  0.5069850000000  0.5102860000000 1.0
C      1  0.5747510000000  0.4524070000000  0.5345970000000 1.0
C      1  0.5668680000000  0.4843680000000  0.4415790000000 1.0
C      1  0.4848700000000  0.5482690000000  0.5198250000000 1.0
C      1  0.4379000000000  0.5720100000000  0.4866740000000 1.0
C      1  0.4716460000000  0.5509070000000  0.4828810000000 1.0
C      1  0.4971840000000  0.5112100000000  0.5113620000000 1.0
C      1  0.5650130000000  0.5508250000000  0.4923000000000 1.0
C      1  0.5416980000000  0.5035280000000  0.4328440000000 1.0
C      1  0.4696120000000  0.4690620000000  0.5799150000000 1.0
C      1  0.5375640000000  0.4037810000000  0.5593910000000 1.0
C      1  0.4935870000000  0.4807580000000  0.5887390000000 1.0
C      1  0.5230820000000  0.4658480000000  0.5440470000000 1.0
C      1  0.5725170000000  0.4764350000000  0.5563600000000 1.0
C      1  0.4616950000000  0.5793370000000  0.5386440000000 1.0
C      1  0.4757220000000  0.4876020000000  0.4585630000000 1.0
C      1  0.5223330000000  0.4712150000000  0.5784860000000 1.0
C      1  0.4697250000000  0.4526390000000  0.5566780000000 1.0
C      1  0.5099000000000  0.4539270000000  0.4361330000000 1.0
C      1  0.4989030000000  0.5164770000000  0.5598360000000 1.0
C      1  0.4889330000000  0.5801840000000  0.4803570000000 1.0
C      1  0.5471670000000  0.4548250000000  0.5633630000000 1.0
C      1  0.4464200000000  0.4851960000000  0.5830310000000 1.0
C      1  0.5756380000000  0.4255920000000  0.5335750000000 1.0
C      1  0.5358550000000  0.5907210000000  0.4807340000000 1.0
C      1  0.4944980000000  0.5141790000000  0.5933900000000 1.0
C      1  0.5204700000000  0.4974290000000  0.5487260000000 1.0
C      1  0.5178840000000  0.5392470000000  0.4214220000000 1.0
C      1  0.4579820000000  0.4387660000000  0.4504500000000 1.0
C      1  0.4502840000000  0.4445600000000  0.5046900000000 1.0
C      1  0.5098020000000  0.5719790000000  0.5481020000000 1.0
C      1  0.5036280000000  0.5447550000000  0.4913180000000 1.0
C      1  0.3673940000000  0.4729760000000  0.4565840000000 1.0
C      1  0.5448030000000  0.5004860000000  0.4900770000000 1.0
C      1  0.4907500000000  0.5455750000000  0.5855120000000 1.0
C      1  0.5597690000000  0.5238280000000  0.4747990000000 1.0
C      1  0.5274180000000  0.4801600000000  0.4490270000000 1.0
C      1  0.4525870000000  0.5226390000000  0.5458980000000 1.0
C      1  0.4425980000000  0.5197400000000  0.4912310000000 1.0
C      1  0.3934720000000  0.4709520000000  0.4581990000000 1.0
C      1  0.4707860000000  0.4822900000000  0.4264200000000 1.0
C      1  0.5639340000000  0.4571240000000  0.4372340000000 1.0
C      1  0.5034690000000  0.4460720000000  0.4699670000000 1.0
C      1  0.4358420000000  0.4993080000000  0.5611560000000 1.0
END
