TITL C-2778432-5617-113 0.00232637504159642 125000 -993.663419795335 0 0 172 (C1) n - 1
REM
REM in /home/nfs/bkarasulu/CARBON/AIRSS/Generating-Clusters/REBO/Only-C1/SD-CG/HFTN-CG
REM
REM
REM
REM
REM
REM ./C.cell (11c1c37f851c82e70ff6c80c92926a4b)
REM
REM compiler GCC version 9.2.1 20190827 (Red Hat 9.2.1-1)
REM options -cpp -mtune=generic -march=x86-64 -g -O0 -fpre-include=/usr/include/finclude/math-vector-fortran.h
REM seed -914025684 186687367 -151266705 47473224 547147663 1533973580 579380492 1822204624 -866871306 750852467 1346804015 852795090 1684252829 382473983 1814173631 110917117 -1560002381 -1407067264 -1623241934 -1606876888 -87626763 1283360028 -1937605983 -1789059179 -202079837 177251120 1736407795 -408835668 172753017 -756216547 -1603515146 -783031910 -134321879
REM
CELL 1.54180   50.00000   50.00000   50.00000   90.00000   90.00000   90.00000
LATT -1
SFAC C  
C      1  0.4901670000000  0.4088020000000  0.5424360000000 1.0
C      1  0.4735950000000  0.4364710000000  0.4069300000000 1.0
C      1  0.6176000000000  0.5200070000000  0.5095420000000 1.0
C      1  0.4004300000000  0.4688160000000  0.5001970000000 1.0
C      1  0.4276110000000  0.5177820000000  0.5882100000000 1.0
C      1  0.4395480000000  0.5121690000000  0.5594700000000 1.0
C      1  0.4524110000000  0.5323380000000  0.4281220000000 1.0
C      1  0.4831440000000  0.5268650000000  0.5410840000000 1.0
C      1  0.5318450000000  0.5042360000000  0.4531850000000 1.0
C      1  0.4489540000000  0.4537270000000  0.4117870000000 1.0
C      1  0.5096680000000  0.3888790000000  0.4885170000000 1.0
C      1  0.4924750000000  0.4776930000000  0.4010740000000 1.0
C      1  0.4480590000000  0.4833530000000  0.4108270000000 1.0
C      1  0.5539340000000  0.4122960000000  0.5231080000000 1.0
C      1  0.5499230000000  0.4568830000000  0.5017780000000 1.0
C      1  0.5205960000000  0.5316730000000  0.4380300000000 1.0
C      1  0.5626200000000  0.4915310000000  0.4545760000000 1.0
C      1  0.4756680000000  0.4256020000000  0.5094300000000 1.0
C      1  0.5460430000000  0.4278940000000  0.5518730000000 1.0
C      1  0.4915370000000  0.4029920000000  0.4424370000000 1.0
C      1  0.3967920000000  0.4607230000000  0.4673470000000 1.0
C      1  0.4472160000000  0.5880760000000  0.5282220000000 1.0
C      1  0.5707830000000  0.4437290000000  0.5672900000000 1.0
C      1  0.4980920000000  0.4422960000000  0.4939840000000 1.0
C      1  0.4793240000000  0.4770580000000  0.5203640000000 1.0
C      1  0.4660590000000  0.5016520000000  0.5485680000000 1.0
C      1  0.4978600000000  0.5180870000000  0.4750470000000 1.0
C      1  0.4313780000000  0.5407070000000  0.5050760000000 1.0
C      1  0.4766760000000  0.4825710000000  0.5819980000000 1.0
C      1  0.4128600000000  0.4353000000000  0.4601730000000 1.0
C      1  0.5251920000000  0.5070450000000  0.4924980000000 1.0
C      1  0.4929650000000  0.5119870000000  0.4416700000000 1.0
C      1  0.4837130000000  0.5560940000000  0.4641530000000 1.0
C      1  0.5480440000000  0.4866490000000  0.4849880000000 1.0
C      1  0.5162060000000  0.6037010000000  0.4705350000000 1.0
C      1  0.5523080000000  0.5714970000000  0.4887680000000 1.0
C      1  0.5573890000000  0.4175180000000  0.4933050000000 1.0
C      1  0.4879710000000  0.6053490000000  0.4623090000000 1.0
C      1  0.4549820000000  0.4965080000000  0.5926960000000 1.0
C      1  0.4941090000000  0.5634540000000  0.5299230000000 1.0
C      1  0.5431270000000  0.4697330000000  0.5545500000000 1.0
C      1  0.5190380000000  0.5435680000000  0.5356500000000 1.0
C      1  0.5838550000000  0.4317560000000  0.5400480000000 1.0
C      1  0.5928240000000  0.4605780000000  0.4907190000000 1.0
C      1  0.4287420000000  0.5708700000000  0.5498930000000 1.0
C      1  0.5363610000000  0.5736850000000  0.5723310000000 1.0
C      1  0.5256130000000  0.5400110000000  0.4933170000000 1.0
C      1  0.4231670000000  0.5005790000000  0.4249280000000 1.0
C      1  0.4631740000000  0.5289130000000  0.4585000000000 1.0
C      1  0.5297400000000  0.5606780000000  0.5968730000000 1.0
C      1  0.4867470000000  0.4382910000000  0.5588910000000 1.0
C      1  0.4453730000000  0.4384490000000  0.4584710000000 1.0
C      1  0.4978880000000  0.5492550000000  0.5008790000000 1.0
C      1  0.5279310000000  0.4492410000000  0.5341970000000 1.0
C      1  0.5246990000000  0.4346580000000  0.5079090000000 1.0
C      1  0.4163270000000  0.4426470000000  0.5142390000000 1.0
C      1  0.5586220000000  0.5374630000000  0.5819910000000 1.0
C      1  0.4043650000000  0.4823950000000  0.4468830000000 1.0
C      1  0.5868170000000  0.5088920000000  0.4517940000000 1.0
C      1  0.4037800000000  0.5258510000000  0.4912420000000 1.0
C      1  0.6179770000000  0.5423970000000  0.4912580000000 1.0
C      1  0.5723690000000  0.4529460000000  0.4513430000000 1.0
C      1  0.5661080000000  0.4602830000000  0.5312830000000 1.0
C      1  0.4127230000000  0.5654970000000  0.4781340000000 1.0
C      1  0.5047150000000  0.5438740000000  0.5973800000000 1.0
C      1  0.5275750000000  0.5796020000000  0.4576330000000 1.0
C      1  0.5379750000000  0.5327680000000  0.5596230000000 1.0
C      1  0.4091100000000  0.5000320000000  0.5118380000000 1.0
C      1  0.5151130000000  0.4228850000000  0.5614110000000 1.0
C      1  0.4085800000000  0.5216120000000  0.5590920000000 1.0
C      1  0.5006210000000  0.4720810000000  0.4982090000000 1.0
C      1  0.5510710000000  0.5408190000000  0.4252030000000 1.0
C      1  0.4016230000000  0.5548840000000  0.5086200000000 1.0
C      1  0.5913510000000  0.4822990000000  0.5398800000000 1.0
C      1  0.4558300000000  0.4370410000000  0.5338380000000 1.0
C      1  0.5838400000000  0.4343390000000  0.5065500000000 1.0
C      1  0.4505140000000  0.5787560000000  0.4412950000000 1.0
C      1  0.5489740000000  0.5498250000000  0.5127410000000 1.0
C      1  0.5086950000000  0.5164610000000  0.5208440000000 1.0
C      1  0.5347850000000  0.5943970000000  0.4940400000000 1.0
C      1  0.5499140000000  0.5278230000000  0.4648320000000 1.0
C      1  0.5804870000000  0.5389630000000  0.4422430000000 1.0
C      1  0.5854370000000  0.5349430000000  0.5750230000000 1.0
C      1  0.5075140000000  0.3891390000000  0.4613100000000 1.0
C      1  0.4094730000000  0.5134120000000  0.4601730000000 1.0
C      1  0.4968630000000  0.4861480000000  0.4719260000000 1.0
C      1  0.5768030000000  0.4863250000000  0.5029430000000 1.0
C      1  0.5454010000000  0.5356570000000  0.6091710000000 1.0
C      1  0.5065100000000  0.4942390000000  0.5457100000000 1.0
C      1  0.4214230000000  0.5326130000000  0.4359410000000 1.0
C      1  0.4774720000000  0.5921320000000  0.4371070000000 1.0
C      1  0.5675970000000  0.5235580000000  0.5140910000000 1.0
C      1  0.4829500000000  0.4427170000000  0.4452190000000 1.0
C      1  0.5964780000000  0.5416650000000  0.4725630000000 1.0
C      1  0.6081630000000  0.5008780000000  0.4663980000000 1.0
C      1  0.5514480000000  0.4834370000000  0.4258400000000 1.0
C      1  0.5032190000000  0.4679570000000  0.5890390000000 1.0
C      1  0.6045800000000  0.4539630000000  0.5265370000000 1.0
C      1  0.4791440000000  0.5528780000000  0.4310140000000 1.0
C      1  0.5108650000000  0.5249100000000  0.4054690000000 1.0
C      1  0.4301780000000  0.4422420000000  0.4311230000000 1.0
C      1  0.5618000000000  0.4913460000000  0.5819110000000 1.0
C      1  0.5222820000000  0.4631120000000  0.3978480000000 1.0
C      1  0.4246960000000  0.4881360000000  0.6005810000000 1.0
C      1  0.4756800000000  0.5277110000000  0.4961870000000 1.0
C      1  0.4798750000000  0.5290330000000  0.4081790000000 1.0
C      1  0.4523280000000  0.4493100000000  0.4873510000000 1.0
C      1  0.4962610000000  0.4188020000000  0.4163510000000 1.0
C      1  0.4485050000000  0.4740310000000  0.5532730000000 1.0
C      1  0.4616190000000  0.3979540000000  0.5346710000000 1.0
C      1  0.4129790000000  0.4715370000000  0.5802820000000 1.0
C      1  0.4335740000000  0.5078010000000  0.5269200000000 1.0
C      1  0.4558490000000  0.4447190000000  0.5646300000000 1.0
C      1  0.5942330000000  0.5125660000000  0.5305640000000 1.0
C      1  0.5285940000000  0.5663740000000  0.4199400000000 1.0
C      1  0.4450220000000  0.5741150000000  0.4736470000000 1.0
C      1  0.4749950000000  0.5841430000000  0.4824190000000 1.0
C      1  0.5227760000000  0.5909480000000  0.5252450000000 1.0
C      1  0.4208960000000  0.5624110000000  0.4452500000000 1.0
C      1  0.4263940000000  0.4462670000000  0.5773730000000 1.0
C      1  0.4239890000000  0.4213870000000  0.4892480000000 1.0
C      1  0.5150650000000  0.5524120000000  0.4638450000000 1.0
C      1  0.5524390000000  0.4486530000000  0.4695160000000 1.0
C      1  0.5728940000000  0.5283250000000  0.4838570000000 1.0
C      1  0.4514630000000  0.5369610000000  0.5309290000000 1.0
C      1  0.5779180000000  0.5609510000000  0.5376360000000 1.0
C      1  0.5317190000000  0.4569670000000  0.4271600000000 1.0
C      1  0.4923730000000  0.5418000000000  0.5680950000000 1.0
C      1  0.4658740000000  0.4970670000000  0.4641310000000 1.0
C      1  0.4241730000000  0.4694600000000  0.5322160000000 1.0
C      1  0.5211530000000  0.4542510000000  0.5731600000000 1.0
C      1  0.5905680000000  0.5388110000000  0.5478100000000 1.0
C      1  0.4555730000000  0.6001670000000  0.5055530000000 1.0
C      1  0.4385200000000  0.4838380000000  0.4490640000000 1.0
C      1  0.4086350000000  0.4874520000000  0.5553660000000 1.0
C      1  0.5514180000000  0.4965030000000  0.5233720000000 1.0
C      1  0.5472760000000  0.5027660000000  0.5547030000000 1.0
C      1  0.5120620000000  0.5137920000000  0.5696490000000 1.0
C      1  0.4984680000000  0.5822790000000  0.5042260000000 1.0
C      1  0.4925550000000  0.4634310000000  0.4308350000000 1.0
C      1  0.4096840000000  0.5506830000000  0.5414290000000 1.0
C      1  0.4877660000000  0.4690890000000  0.5523560000000 1.0
C      1  0.5050190000000  0.4079480000000  0.5126980000000 1.0
C      1  0.5014390000000  0.5745500000000  0.4226890000000 1.0
C      1  0.4885940000000  0.5738200000000  0.5680090000000 1.0
C      1  0.5234400000000  0.4795030000000  0.5213490000000 1.0
C      1  0.6052350000000  0.4982510000000  0.4944200000000 1.0
C      1  0.4529890000000  0.4616170000000  0.5155940000000 1.0
C      1  0.4656970000000  0.5626610000000  0.5375230000000 1.0
C      1  0.5358680000000  0.5066500000000  0.5934240000000 1.0
C      1  0.4187730000000  0.4900500000000  0.4830810000000 1.0
C      1  0.5510690000000  0.5786360000000  0.4380720000000 1.0
C      1  0.5418940000000  0.5111170000000  0.4112000000000 1.0
C      1  0.5132050000000  0.5853820000000  0.5572050000000 1.0
C      1  0.4747270000000  0.4977670000000  0.4166820000000 1.0
C      1  0.5039270000000  0.4318070000000  0.4672890000000 1.0
C      1  0.5092130000000  0.5189810000000  0.6090840000000 1.0
C      1  0.4352150000000  0.4146440000000  0.5211250000000 1.0
C      1  0.4462990000000  0.4781510000000  0.4798790000000 1.0
C      1  0.4508220000000  0.5448120000000  0.4834500000000 1.0
C      1  0.4667810000000  0.4149010000000  0.4565170000000 1.0
C      1  0.5797940000000  0.4716430000000  0.5700700000000 1.0
C      1  0.5961800000000  0.4592950000000  0.4633680000000 1.0
C      1  0.4650390000000  0.5042700000000  0.5136880000000 1.0
C      1  0.5458860000000  0.5703730000000  0.5398370000000 1.0
C      1  0.5360250000000  0.4217260000000  0.4669270000000 1.0
C      1  0.4578280000000  0.5794080000000  0.5653440000000 1.0
C      1  0.5153070000000  0.4789230000000  0.4475130000000 1.0
C      1  0.5205770000000  0.4299490000000  0.4374480000000 1.0
C      1  0.5617120000000  0.5596000000000  0.4617320000000 1.0
C      1  0.5193420000000  0.4957740000000  0.3916290000000 1.0
C      1  0.4567610000000  0.4145080000000  0.4876590000000 1.0
END
