TITL C-2778432-5617-93 -0.00466793746143674 125000 -335.834827959818 0 0 57 (C1) n - 1
REM
REM in /home/nfs/bkarasulu/CARBON/AIRSS/Generating-Clusters/REBO/Only-C1/SD-CG/HFTN-CG
REM
REM
REM
REM
REM
REM ./C.cell (11c1c37f851c82e70ff6c80c92926a4b)
REM
REM compiler GCC version 9.2.1 20190827 (Red Hat 9.2.1-1)
REM options -cpp -mtune=generic -march=x86-64 -g -O0 -fpre-include=/usr/include/finclude/math-vector-fortran.h
REM seed 1885338379 1002299114 433884254 -2044986770 -1131717167 44563640 -1527012985 -227971721 -1394656217 1552201549 -1586590546 1491003554 -1164412523 -192211118 620522281 -1067796646 1295042202 -1522799694 -1320044627 -1848531930 1232705267 2138477020 -831389461 1449752585 -410742773 -2091048345 -1333777721 94886019 -2095129093 166770027 -2039274162 -1031239247 50167318
REM
CELL 1.54180   50.00000   50.00000   50.00000   90.00000   90.00000   90.00000
LATT -1
SFAC C  
C      1  0.4991490000000  0.4521360000000  0.4209130000000 1.0
C      1  0.5460570000000  0.4573330000000  0.4843910000000 1.0
C      1  0.4542250000000  0.5185360000000  0.4597100000000 1.0
C      1  0.5212200000000  0.4502670000000  0.5346110000000 1.0
C      1  0.4823900000000  0.5095580000000  0.5008180000000 1.0
C      1  0.4722510000000  0.4794340000000  0.4940440000000 1.0
C      1  0.4311380000000  0.4912330000000  0.5018320000000 1.0
C      1  0.4729370000000  0.4278990000000  0.4980620000000 1.0
C      1  0.4900510000000  0.4645620000000  0.5357140000000 1.0
C      1  0.5590800000000  0.4687560000000  0.5071910000000 1.0
C      1  0.4426410000000  0.4643160000000  0.4561990000000 1.0
C      1  0.5478290000000  0.5140860000000  0.4483720000000 1.0
C      1  0.5426700000000  0.4687040000000  0.5311480000000 1.0
C      1  0.5161660000000  0.4765520000000  0.4474390000000 1.0
C      1  0.4841500000000  0.4643030000000  0.4471520000000 1.0
C      1  0.5204510000000  0.5456250000000  0.5333840000000 1.0
C      1  0.4749670000000  0.5139750000000  0.4330210000000 1.0
C      1  0.5553840000000  0.4363080000000  0.4692560000000 1.0
C      1  0.5013230000000  0.4949040000000  0.5328540000000 1.0
C      1  0.5015200000000  0.5230040000000  0.4376680000000 1.0
C      1  0.5207300000000  0.4722200000000  0.4778510000000 1.0
C      1  0.5732420000000  0.4928390000000  0.5013260000000 1.0
C      1  0.5632270000000  0.5191110000000  0.4970130000000 1.0
C      1  0.5125770000000  0.4937490000000  0.5004030000000 1.0
C      1  0.4414690000000  0.4667720000000  0.4862760000000 1.0
C      1  0.5220410000000  0.5425400000000  0.4796130000000 1.0
C      1  0.5265390000000  0.4549570000000  0.4231290000000 1.0
C      1  0.4360430000000  0.5304070000000  0.5519170000000 1.0
C      1  0.4771040000000  0.5649080000000  0.5196810000000 1.0
C      1  0.4533050000000  0.4390370000000  0.4492150000000 1.0
C      1  0.5248300000000  0.5485480000000  0.6144470000000 1.0
C      1  0.4813500000000  0.5179010000000  0.5398450000000 1.0
C      1  0.5209840000000  0.5540120000000  0.6397890000000 1.0
C      1  0.4899410000000  0.5444930000000  0.5350400000000 1.0
C      1  0.5112280000000  0.5273570000000  0.5059100000000 1.0
C      1  0.5353460000000  0.5682430000000  0.4919470000000 1.0
C      1  0.5287390000000  0.5429960000000  0.5886970000000 1.0
C      1  0.4945520000000  0.4593130000000  0.4876370000000 1.0
C      1  0.4988790000000  0.4395800000000  0.5139400000000 1.0
C      1  0.4358370000000  0.5147450000000  0.4871250000000 1.0
C      1  0.4590510000000  0.5278580000000  0.4986640000000 1.0
C      1  0.5327160000000  0.5373460000000  0.5624930000000 1.0
C      1  0.4522240000000  0.4461600000000  0.5080300000000 1.0
C      1  0.4666420000000  0.5564240000000  0.4946110000000 1.0
C      1  0.5229580000000  0.5045640000000  0.4389510000000 1.0
C      1  0.5004620000000  0.5427730000000  0.4582420000000 1.0
C      1  0.4733100000000  0.5460010000000  0.4663000000000 1.0
C      1  0.4593020000000  0.4637660000000  0.5301060000000 1.0
C      1  0.4612520000000  0.4876970000000  0.4463790000000 1.0
C      1  0.5484070000000  0.5262080000000  0.4736980000000 1.0
C      1  0.4536590000000  0.5122740000000  0.5417900000000 1.0
C      1  0.5436500000000  0.5614520000000  0.5174620000000 1.0
C      1  0.4803800000000  0.4364870000000  0.4666570000000 1.0
C      1  0.5333970000000  0.4946150000000  0.5388360000000 1.0
C      1  0.4442870000000  0.4885740000000  0.5283260000000 1.0
C      1  0.5570540000000  0.5339530000000  0.5208910000000 1.0
C      1  0.5476850000000  0.5186310000000  0.5439830000000 1.0
END
