TITL C-2778425-5191-1438 0.0100819818195882 125000 -898.017481698867 0 0 152 (C1) n - 1
REM
REM in /home/nfs/bkarasulu/CARBON/AIRSS/Generating-Clusters/REBO/Only-C1/SD-CG/HFTN-CG
REM
REM
REM
REM
REM
REM ./C.cell (11c1c37f851c82e70ff6c80c92926a4b)
REM
REM compiler GCC version 9.2.1 20190827 (Red Hat 9.2.1-1)
REM options -cpp -mtune=generic -march=x86-64 -g -O0 -fpre-include=/usr/include/finclude/math-vector-fortran.h
REM seed 90848811 -2017230241 2078767830 -1001614900 72017283 -1392642323 1622421804 1431330692 -348441178 1135108286 123107016 811707756 144499369 -335174901 577384128 1934018609 814688445 -664988281 -1945039692 -1476651200 458612954 -865818356 822871963 1822457684 930872346 -790671883 216672268 -1130448395 776222728 1858892727 -723074044 -227306467 1557152424
REM
CELL 1.54180   50.00000   50.00000   50.00000   90.00000   90.00000   90.00000
LATT -1
SFAC C  
C      1  0.5696930000000  0.5697630000000  0.4951130000000 1.0
C      1  0.4832070000000  0.4651080000000  0.5372280000000 1.0
C      1  0.5275660000000  0.4850870000000  0.5552690000000 1.0
C      1  0.4198680000000  0.4898120000000  0.4416480000000 1.0
C      1  0.4346110000000  0.5534620000000  0.4557630000000 1.0
C      1  0.5060370000000  0.5734150000000  0.5166430000000 1.0
C      1  0.4374160000000  0.5284000000000  0.5003480000000 1.0
C      1  0.4661820000000  0.5376980000000  0.5130160000000 1.0
C      1  0.4273090000000  0.4984880000000  0.5115120000000 1.0
C      1  0.4779230000000  0.4804180000000  0.5878210000000 1.0
C      1  0.4512300000000  0.4080520000000  0.4986680000000 1.0
C      1  0.5505890000000  0.4849970000000  0.4968410000000 1.0
C      1  0.5235760000000  0.4866400000000  0.5954930000000 1.0
C      1  0.5286170000000  0.5940790000000  0.5533470000000 1.0
C      1  0.5737880000000  0.5290400000000  0.4549740000000 1.0
C      1  0.5434200000000  0.4581620000000  0.5659410000000 1.0
C      1  0.5629290000000  0.4369620000000  0.4428340000000 1.0
C      1  0.4458120000000  0.4786410000000  0.5320100000000 1.0
C      1  0.5767950000000  0.4393310000000  0.4715050000000 1.0
C      1  0.4489150000000  0.4774800000000  0.5786780000000 1.0
C      1  0.5542880000000  0.5554150000000  0.4473660000000 1.0
C      1  0.5327680000000  0.4400430000000  0.5320580000000 1.0
C      1  0.4710470000000  0.5221020000000  0.4480600000000 1.0
C      1  0.5312130000000  0.4360500000000  0.4986220000000 1.0
C      1  0.4805530000000  0.4224790000000  0.5324660000000 1.0
C      1  0.5489540000000  0.4094860000000  0.5121340000000 1.0
C      1  0.4590380000000  0.5831620000000  0.5376120000000 1.0
C      1  0.5877020000000  0.5407880000000  0.5192750000000 1.0
C      1  0.5424490000000  0.5045180000000  0.5210670000000 1.0
C      1  0.5529010000000  0.5472400000000  0.5007890000000 1.0
C      1  0.4363180000000  0.4916280000000  0.4191910000000 1.0
C      1  0.5985600000000  0.4915570000000  0.5283200000000 1.0
C      1  0.5387120000000  0.5310080000000  0.5845310000000 1.0
C      1  0.5198660000000  0.4986850000000  0.4894340000000 1.0
C      1  0.6012460000000  0.5034570000000  0.4746970000000 1.0
C      1  0.4797560000000  0.5675450000000  0.4198850000000 1.0
C      1  0.5691540000000  0.4593520000000  0.4239730000000 1.0
C      1  0.4602370000000  0.4924460000000  0.4555580000000 1.0
C      1  0.5460240000000  0.5025030000000  0.5861270000000 1.0
C      1  0.4139720000000  0.5510110000000  0.5075370000000 1.0
C      1  0.3932990000000  0.4850250000000  0.4862620000000 1.0
C      1  0.4306060000000  0.5414160000000  0.5627570000000 1.0
C      1  0.4985340000000  0.4442020000000  0.4498030000000 1.0
C      1  0.5251440000000  0.5925670000000  0.5260000000000 1.0
C      1  0.5203150000000  0.5225110000000  0.4710660000000 1.0
C      1  0.5788530000000  0.5218840000000  0.5604700000000 1.0
C      1  0.5625250000000  0.5794380000000  0.4664440000000 1.0
C      1  0.4761600000000  0.3946280000000  0.4827020000000 1.0
C      1  0.4922760000000  0.4513530000000  0.5770880000000 1.0
C      1  0.4087950000000  0.4849330000000  0.5455570000000 1.0
C      1  0.4425600000000  0.4936480000000  0.4818860000000 1.0
C      1  0.5636760000000  0.4691380000000  0.4722080000000 1.0
C      1  0.4026790000000  0.5090750000000  0.4639350000000 1.0
C      1  0.4215880000000  0.5340440000000  0.4721520000000 1.0
C      1  0.4636550000000  0.5604090000000  0.4674160000000 1.0
C      1  0.3953360000000  0.4992380000000  0.5177480000000 1.0
C      1  0.5738040000000  0.5611460000000  0.5351950000000 1.0
C      1  0.4828710000000  0.5353660000000  0.4767500000000 1.0
C      1  0.5218600000000  0.4185620000000  0.5536870000000 1.0
C      1  0.4712410000000  0.5279670000000  0.5913670000000 1.0
C      1  0.6052070000000  0.4622790000000  0.5020320000000 1.0
C      1  0.4522140000000  0.4205690000000  0.5290840000000 1.0
C      1  0.4760130000000  0.4959890000000  0.4179150000000 1.0
C      1  0.5680590000000  0.5099220000000  0.4313560000000 1.0
C      1  0.4878740000000  0.4581760000000  0.4204030000000 1.0
C      1  0.5142520000000  0.4636720000000  0.5392580000000 1.0
C      1  0.5244070000000  0.4647200000000  0.4904410000000 1.0
C      1  0.4987890000000  0.3986580000000  0.4733610000000 1.0
C      1  0.5437380000000  0.5167990000000  0.4178340000000 1.0
C      1  0.5949320000000  0.4741900000000  0.4782900000000 1.0
C      1  0.4281360000000  0.4500530000000  0.4743430000000 1.0
C      1  0.4107790000000  0.5581650000000  0.5407330000000 1.0
C      1  0.4882570000000  0.5870850000000  0.4970440000000 1.0
C      1  0.5847440000000  0.4490910000000  0.5212420000000 1.0
C      1  0.5149860000000  0.4723400000000  0.4095370000000 1.0
C      1  0.5062920000000  0.5297540000000  0.4144980000000 1.0
C      1  0.4715200000000  0.4583540000000  0.5090640000000 1.0
C      1  0.4656820000000  0.4900160000000  0.5067130000000 1.0
C      1  0.5050260000000  0.5212740000000  0.4465830000000 1.0
C      1  0.4919320000000  0.4967470000000  0.5413490000000 1.0
C      1  0.4140290000000  0.4712530000000  0.4650900000000 1.0
C      1  0.4291380000000  0.5778760000000  0.5220890000000 1.0
C      1  0.4655990000000  0.4656140000000  0.4462140000000 1.0
C      1  0.5750200000000  0.4266570000000  0.5019760000000 1.0
C      1  0.4104080000000  0.4568730000000  0.5396490000000 1.0
C      1  0.3791860000000  0.4608070000000  0.5015160000000 1.0
C      1  0.5412250000000  0.5345320000000  0.5234200000000 1.0
C      1  0.4372970000000  0.5913590000000  0.4924630000000 1.0
C      1  0.5111990000000  0.5687100000000  0.4219500000000 1.0
C      1  0.4963190000000  0.4927550000000  0.4383270000000 1.0
C      1  0.4738440000000  0.5798110000000  0.4490960000000 1.0
C      1  0.5106660000000  0.5499280000000  0.4849830000000 1.0
C      1  0.3902530000000  0.4473070000000  0.5225030000000 1.0
C      1  0.5258890000000  0.4142820000000  0.4729170000000 1.0
C      1  0.5378010000000  0.4599100000000  0.4212500000000 1.0
C      1  0.5835430000000  0.5030560000000  0.5033630000000 1.0
C      1  0.4952760000000  0.4196860000000  0.5071980000000 1.0
C      1  0.3982140000000  0.5236180000000  0.4948840000000 1.0
C      1  0.5252660000000  0.5377350000000  0.5475450000000 1.0
C      1  0.5216720000000  0.4599900000000  0.5857640000000 1.0
C      1  0.4927350000000  0.4697320000000  0.4856860000000 1.0
C      1  0.5471020000000  0.5359350000000  0.4736560000000 1.0
C      1  0.4970680000000  0.5406900000000  0.5137560000000 1.0
C      1  0.5035600000000  0.5858470000000  0.5693450000000 1.0
C      1  0.5421360000000  0.4700450000000  0.4513510000000 1.0
C      1  0.6258030000000  0.4769320000000  0.5174870000000 1.0
C      1  0.4814430000000  0.5015920000000  0.4805090000000 1.0
C      1  0.5680500000000  0.4964320000000  0.5682720000000 1.0
C      1  0.5800720000000  0.4732610000000  0.5464580000000 1.0
C      1  0.5159050000000  0.5126640000000  0.5574760000000 1.0
C      1  0.4506370000000  0.4421630000000  0.4959620000000 1.0
C      1  0.4577520000000  0.4691770000000  0.4077040000000 1.0
C      1  0.5726830000000  0.5880970000000  0.5201140000000 1.0
C      1  0.5804880000000  0.4851230000000  0.4262630000000 1.0
C      1  0.4397650000000  0.4460620000000  0.5400670000000 1.0
C      1  0.4160830000000  0.5247250000000  0.5369370000000 1.0
C      1  0.4633230000000  0.5922490000000  0.5078030000000 1.0
C      1  0.5615650000000  0.4465720000000  0.5434060000000 1.0
C      1  0.5162700000000  0.4006170000000  0.5091790000000 1.0
C      1  0.4610200000000  0.4340920000000  0.4582430000000 1.0
C      1  0.5462010000000  0.5990990000000  0.5085850000000 1.0
C      1  0.5036750000000  0.5828490000000  0.4477810000000 1.0
C      1  0.4762070000000  0.5768340000000  0.5590780000000 1.0
C      1  0.4500590000000  0.5276530000000  0.5380290000000 1.0
C      1  0.4629860000000  0.4560140000000  0.5601120000000 1.0
C      1  0.4486270000000  0.5170290000000  0.5761450000000 1.0
C      1  0.4563270000000  0.5456200000000  0.4311720000000 1.0
C      1  0.4743400000000  0.5276270000000  0.4086530000000 1.0
C      1  0.4980120000000  0.4998060000000  0.5947370000000 1.0
C      1  0.5945050000000  0.5206420000000  0.5374520000000 1.0
C      1  0.4948160000000  0.4267160000000  0.5569420000000 1.0
C      1  0.5313670000000  0.3966930000000  0.5368690000000 1.0
C      1  0.4360630000000  0.4183570000000  0.4715080000000 1.0
C      1  0.5341880000000  0.5477690000000  0.4241740000000 1.0
C      1  0.5386830000000  0.4238140000000  0.4439460000000 1.0
C      1  0.5593690000000  0.4112380000000  0.4755340000000 1.0
C      1  0.5089140000000  0.5115590000000  0.5182820000000 1.0
C      1  0.5296740000000  0.5641900000000  0.5660830000000 1.0
C      1  0.5869000000000  0.5321130000000  0.4863330000000 1.0
C      1  0.4818120000000  0.5539790000000  0.5778500000000 1.0
C      1  0.5598290000000  0.5486820000000  0.5638700000000 1.0
C      1  0.5118460000000  0.4715140000000  0.4493770000000 1.0
C      1  0.4619690000000  0.5006660000000  0.5489020000000 1.0
C      1  0.4310680000000  0.5835260000000  0.4674500000000 1.0
C      1  0.4265480000000  0.4931760000000  0.5657450000000 1.0
C      1  0.5133650000000  0.5802970000000  0.4760460000000 1.0
C      1  0.4428360000000  0.5161270000000  0.4082890000000 1.0
C      1  0.5200340000000  0.5000350000000  0.4069600000000 1.0
C      1  0.4528740000000  0.4409080000000  0.4259500000000 1.0
C      1  0.5052140000000  0.5324890000000  0.5903120000000 1.0
C      1  0.5403300000000  0.5929570000000  0.4812000000000 1.0
C      1  0.4872020000000  0.4363520000000  0.4798320000000 1.0
END
