TITL C-2778422-5617-1375 -0.00451173968820966 125000 -836.656538221232 0 0 144 (C1) n - 1
REM
REM in /home/nfs/bkarasulu/CARBON/AIRSS/Generating-Clusters/REBO/Only-C1/SD-CG/HFTN-CG
REM
REM
REM
REM
REM
REM ./C.cell (11c1c37f851c82e70ff6c80c92926a4b)
REM
REM compiler GCC version 9.2.1 20190827 (Red Hat 9.2.1-1)
REM options -cpp -mtune=generic -march=x86-64 -g -O0 -fpre-include=/usr/include/finclude/math-vector-fortran.h
REM seed 1720286358 -1422315073 1758246342 1669601229 -227643801 2144186918 -851430487 707153914 543978914 804642596 1721711455 -871698696 1548913291 1528683228 -1444081835 -88213237 120251107 -1182728123 -162936410 1472432717 -1447625205 1598473627 1950617833 -1167462240 -1076724554 361401420 -1373105210 1407896549 -1527522884 -2143502303 -1574060445 -1105570272 -1636285459
REM
CELL 1.54180   50.00000   50.00000   50.00000   90.00000   90.00000   90.00000
LATT -1
SFAC C  
C      1  0.4445880000000  0.5018200000000  0.5036240000000 1.0
C      1  0.4862040000000  0.4499210000000  0.6015810000000 1.0
C      1  0.4394410000000  0.5487020000000  0.4868430000000 1.0
C      1  0.4424970000000  0.4750030000000  0.5929720000000 1.0
C      1  0.5279110000000  0.4355990000000  0.4324160000000 1.0
C      1  0.4477180000000  0.5584450000000  0.5272930000000 1.0
C      1  0.5469560000000  0.4295860000000  0.4603360000000 1.0
C      1  0.5562760000000  0.4425600000000  0.5545600000000 1.0
C      1  0.5077420000000  0.5624540000000  0.4726490000000 1.0
C      1  0.5485820000000  0.4651580000000  0.5068260000000 1.0
C      1  0.4144850000000  0.4983800000000  0.5172010000000 1.0
C      1  0.4842140000000  0.5249720000000  0.4947790000000 1.0
C      1  0.4987390000000  0.5087850000000  0.5601130000000 1.0
C      1  0.4796770000000  0.4287590000000  0.4871320000000 1.0
C      1  0.5691940000000  0.5580070000000  0.4730460000000 1.0
C      1  0.5701200000000  0.5139370000000  0.4135650000000 1.0
C      1  0.4581520000000  0.4733010000000  0.5016240000000 1.0
C      1  0.5267660000000  0.4171650000000  0.5179670000000 1.0
C      1  0.5553170000000  0.4542170000000  0.4408370000000 1.0
C      1  0.5433870000000  0.5754650000000  0.4952010000000 1.0
C      1  0.5082260000000  0.4917640000000  0.5233540000000 1.0
C      1  0.6009020000000  0.5308300000000  0.4718480000000 1.0
C      1  0.4991680000000  0.5347460000000  0.5975500000000 1.0
C      1  0.5493260000000  0.5417380000000  0.5669620000000 1.0
C      1  0.4078080000000  0.5045980000000  0.4844520000000 1.0
C      1  0.5363870000000  0.5198580000000  0.5282100000000 1.0
C      1  0.4004510000000  0.5339850000000  0.5287960000000 1.0
C      1  0.4960160000000  0.4499610000000  0.4575900000000 1.0
C      1  0.4738110000000  0.5278330000000  0.5536620000000 1.0
C      1  0.4265740000000  0.4958410000000  0.5723330000000 1.0
C      1  0.4655550000000  0.5464140000000  0.5036810000000 1.0
C      1  0.5206860000000  0.6021360000000  0.5139910000000 1.0
C      1  0.5718250000000  0.5481570000000  0.4333830000000 1.0
C      1  0.4316390000000  0.4763230000000  0.5479590000000 1.0
C      1  0.4253300000000  0.5776800000000  0.5119030000000 1.0
C      1  0.4651150000000  0.4371640000000  0.5359020000000 1.0
C      1  0.4971320000000  0.5211250000000  0.5221880000000 1.0
C      1  0.4974900000000  0.4205030000000  0.4305980000000 1.0
C      1  0.5332860000000  0.5436700000000  0.4687530000000 1.0
C      1  0.4276880000000  0.4284570000000  0.4786140000000 1.0
C      1  0.5157900000000  0.5059370000000  0.5965380000000 1.0
C      1  0.5615400000000  0.4936390000000  0.5492660000000 1.0
C      1  0.4624430000000  0.4814120000000  0.5360930000000 1.0
C      1  0.4967650000000  0.5475190000000  0.5691520000000 1.0
C      1  0.4045770000000  0.5323350000000  0.4772230000000 1.0
C      1  0.5620720000000  0.5255880000000  0.4648390000000 1.0
C      1  0.4419530000000  0.4867900000000  0.4487280000000 1.0
C      1  0.5129130000000  0.5723040000000  0.5564630000000 1.0
C      1  0.4289520000000  0.4370830000000  0.4317570000000 1.0
C      1  0.5385870000000  0.4177140000000  0.5488470000000 1.0
C      1  0.4973220000000  0.4532290000000  0.4974080000000 1.0
C      1  0.5807420000000  0.4786560000000  0.5268340000000 1.0
C      1  0.5560010000000  0.3904410000000  0.5132240000000 1.0
C      1  0.4738760000000  0.4077730000000  0.4341640000000 1.0
C      1  0.5633700000000  0.4721510000000  0.5942260000000 1.0
C      1  0.5445800000000  0.5685850000000  0.5480330000000 1.0
C      1  0.4856590000000  0.5553590000000  0.4325310000000 1.0
C      1  0.4579110000000  0.5556220000000  0.5655410000000 1.0
C      1  0.5663480000000  0.5439710000000  0.5373190000000 1.0
C      1  0.5885810000000  0.4700990000000  0.4752910000000 1.0
C      1  0.5485020000000  0.5891590000000  0.5258500000000 1.0
C      1  0.5320030000000  0.5460830000000  0.5081660000000 1.0
C      1  0.4186970000000  0.4658310000000  0.5181750000000 1.0
C      1  0.5466710000000  0.5636820000000  0.4470030000000 1.0
C      1  0.5120660000000  0.4658540000000  0.5429650000000 1.0
C      1  0.4147840000000  0.5125260000000  0.5464720000000 1.0
C      1  0.5040690000000  0.5466130000000  0.5361830000000 1.0
C      1  0.5365750000000  0.4939490000000  0.5091900000000 1.0
C      1  0.4172110000000  0.4800050000000  0.4685830000000 1.0
C      1  0.5672650000000  0.4946220000000  0.5791020000000 1.0
C      1  0.4792960000000  0.5748000000000  0.5052660000000 1.0
C      1  0.4583640000000  0.5895640000000  0.4824420000000 1.0
C      1  0.5206640000000  0.4976180000000  0.4649770000000 1.0
C      1  0.5839350000000  0.4477350000000  0.4938790000000 1.0
C      1  0.4884060000000  0.5897250000000  0.4692930000000 1.0
C      1  0.4703730000000  0.5158140000000  0.4586900000000 1.0
C      1  0.4922460000000  0.5944620000000  0.5519130000000 1.0
C      1  0.4540840000000  0.5956290000000  0.5156400000000 1.0
C      1  0.5174940000000  0.4507920000000  0.5903890000000 1.0
C      1  0.4775770000000  0.4025620000000  0.5068760000000 1.0
C      1  0.5221910000000  0.4684120000000  0.4242850000000 1.0
C      1  0.4649310000000  0.5820120000000  0.5451670000000 1.0
C      1  0.4738660000000  0.5305820000000  0.4209070000000 1.0
C      1  0.5182910000000  0.5928930000000  0.4823260000000 1.0
C      1  0.5290580000000  0.3890560000000  0.5014880000000 1.0
C      1  0.5064450000000  0.4811770000000  0.5875850000000 1.0
C      1  0.4484610000000  0.4832490000000  0.4095550000000 1.0
C      1  0.5784640000000  0.4746020000000  0.4493560000000 1.0
C      1  0.4963690000000  0.5181670000000  0.4073980000000 1.0
C      1  0.4849610000000  0.4912100000000  0.4988690000000 1.0
C      1  0.4657030000000  0.5362770000000  0.5916460000000 1.0
C      1  0.5737650000000  0.4862220000000  0.4968370000000 1.0
C      1  0.4232170000000  0.4583060000000  0.4894720000000 1.0
C      1  0.5700730000000  0.5580890000000  0.5070780000000 1.0
C      1  0.5668510000000  0.4257020000000  0.4819990000000 1.0
C      1  0.4358890000000  0.5370730000000  0.5469430000000 1.0
C      1  0.5165890000000  0.4407570000000  0.5611500000000 1.0
C      1  0.5765360000000  0.4452290000000  0.5273060000000 1.0
C      1  0.5492600000000  0.4508640000000  0.5843310000000 1.0
C      1  0.4100020000000  0.5495850000000  0.5039440000000 1.0
C      1  0.5436480000000  0.5315070000000  0.4236280000000 1.0
C      1  0.5852820000000  0.5102690000000  0.3930510000000 1.0
C      1  0.5753960000000  0.5134200000000  0.5259910000000 1.0
C      1  0.5023030000000  0.6146320000000  0.5353120000000 1.0
C      1  0.4737250000000  0.4714690000000  0.4077290000000 1.0
C      1  0.5053360000000  0.4135920000000  0.5441670000000 1.0
C      1  0.4145660000000  0.5478520000000  0.4557040000000 1.0
C      1  0.4108110000000  0.4625500000000  0.4428780000000 1.0
C      1  0.5085120000000  0.5704950000000  0.5138820000000 1.0
C      1  0.5001920000000  0.4784410000000  0.4747240000000 1.0
C      1  0.4862690000000  0.4587220000000  0.5258860000000 1.0
C      1  0.5320200000000  0.5323120000000  0.5868010000000 1.0
C      1  0.5044490000000  0.4044550000000  0.4870830000000 1.0
C      1  0.4805890000000  0.4940310000000  0.4435790000000 1.0
C      1  0.4776140000000  0.4117100000000  0.5341670000000 1.0
C      1  0.5157500000000  0.4306900000000  0.4701310000000 1.0
C      1  0.5166770000000  0.5213450000000  0.4417120000000 1.0
C      1  0.4701820000000  0.5716840000000  0.4490800000000 1.0
C      1  0.4680400000000  0.4684700000000  0.4527650000000 1.0
C      1  0.5278570000000  0.4420660000000  0.4999620000000 1.0
C      1  0.5442420000000  0.4681540000000  0.5387840000000 1.0
C      1  0.4475140000000  0.5144930000000  0.5915990000000 1.0
C      1  0.4926590000000  0.4516330000000  0.4237700000000 1.0
C      1  0.5404580000000  0.4846990000000  0.4445620000000 1.0
C      1  0.4491850000000  0.5105820000000  0.4253710000000 1.0
C      1  0.4684310000000  0.4671040000000  0.5890750000000 1.0
C      1  0.4815440000000  0.4821140000000  0.5643760000000 1.0
C      1  0.4385890000000  0.4457790000000  0.5372080000000 1.0
C      1  0.4544980000000  0.4451540000000  0.4868060000000 1.0
C      1  0.4271730000000  0.4656140000000  0.4158970000000 1.0
C      1  0.4479520000000  0.4169380000000  0.4340510000000 1.0
C      1  0.4989650000000  0.4902150000000  0.4172410000000 1.0
C      1  0.5192820000000  0.5320930000000  0.4032850000000 1.0
C      1  0.4483440000000  0.5190870000000  0.4784770000000 1.0
C      1  0.5942950000000  0.5410910000000  0.4469790000000 1.0
C      1  0.4950950000000  0.5339420000000  0.4649290000000 1.0
C      1  0.5653710000000  0.5044240000000  0.4433500000000 1.0
C      1  0.5312370000000  0.5178150000000  0.4887530000000 1.0
C      1  0.4405740000000  0.5689130000000  0.4620350000000 1.0
C      1  0.5685430000000  0.4159290000000  0.5113180000000 1.0
C      1  0.4563550000000  0.5143650000000  0.5316230000000 1.0
C      1  0.5779980000000  0.5167500000000  0.4924980000000 1.0
C      1  0.5154510000000  0.5603460000000  0.4335680000000 1.0
C      1  0.5234540000000  0.5153450000000  0.5517480000000 1.0
END
