TITL C-2778435-5768-323 -0.00251885811251568 125000 -734.633146021816 0 0 125 (C1) n - 1
REM
REM in /home/nfs/bkarasulu/CARBON/AIRSS/Generating-Clusters/REBO/Only-C1/SD-CG/HFTN-CG
REM
REM
REM
REM
REM
REM ./C.cell (11c1c37f851c82e70ff6c80c92926a4b)
REM
REM compiler GCC version 9.2.1 20190827 (Red Hat 9.2.1-1)
REM options -cpp -mtune=generic -march=x86-64 -g -O0 -fpre-include=/usr/include/finclude/math-vector-fortran.h
REM seed 2126842127 1466689283 -1857613727 1933529464 -1011293498 478846288 -894527233 -502316559 -102761254 1673060108 -2111365424 326216409 1196752586 1218042924 1061187430 -1367186268 1525558968 -206657875 718965539 -455859013 -309579487 -1030740290 2086834916 64705853 -1732626791 107525262 -1830710946 1214305857 -2083810182 1866098382 -109642248 1288896762 660857029
REM
CELL 1.54180   50.00000   50.00000   50.00000   90.00000   90.00000   90.00000
LATT -1
SFAC C  
C      1  0.5800790000000  0.5117800000000  0.5780000000000 1.0
C      1  0.5571410000000  0.4569520000000  0.4519160000000 1.0
C      1  0.4860120000000  0.4519750000000  0.3960070000000 1.0
C      1  0.4519780000000  0.5228450000000  0.4950170000000 1.0
C      1  0.5653740000000  0.4271370000000  0.4867800000000 1.0
C      1  0.4955540000000  0.5243810000000  0.4556110000000 1.0
C      1  0.5587390000000  0.4894220000000  0.5850760000000 1.0
C      1  0.5488980000000  0.5202920000000  0.5739190000000 1.0
C      1  0.5063970000000  0.5284060000000  0.5866730000000 1.0
C      1  0.5584780000000  0.5186180000000  0.5017060000000 1.0
C      1  0.5077360000000  0.5758970000000  0.4535740000000 1.0
C      1  0.4610170000000  0.5905680000000  0.5023530000000 1.0
C      1  0.6008500000000  0.4952010000000  0.4979500000000 1.0
C      1  0.5955140000000  0.4823430000000  0.5435210000000 1.0
C      1  0.4242280000000  0.5386200000000  0.4369580000000 1.0
C      1  0.4992300000000  0.4393080000000  0.4530660000000 1.0
C      1  0.5217380000000  0.4719280000000  0.5006480000000 1.0
C      1  0.4307370000000  0.5254110000000  0.5165140000000 1.0
C      1  0.5210920000000  0.5144990000000  0.5603740000000 1.0
C      1  0.4978200000000  0.4412750000000  0.5726380000000 1.0
C      1  0.5377140000000  0.5323650000000  0.5248620000000 1.0
C      1  0.5541510000000  0.5438990000000  0.4828480000000 1.0
C      1  0.4551610000000  0.5265380000000  0.5733770000000 1.0
C      1  0.4711270000000  0.5566860000000  0.5765660000000 1.0
C      1  0.4633790000000  0.4465540000000  0.4170160000000 1.0
C      1  0.5196080000000  0.5324120000000  0.4240670000000 1.0
C      1  0.5896650000000  0.5301120000000  0.5341570000000 1.0
C      1  0.4880300000000  0.5944120000000  0.5145960000000 1.0
C      1  0.4590310000000  0.4757470000000  0.5354370000000 1.0
C      1  0.5872920000000  0.5169280000000  0.5091570000000 1.0
C      1  0.5441730000000  0.5464600000000  0.5541340000000 1.0
C      1  0.4250190000000  0.4415730000000  0.5233840000000 1.0
C      1  0.5474820000000  0.4915430000000  0.4897030000000 1.0
C      1  0.5870950000000  0.4734400000000  0.4865420000000 1.0
C      1  0.4773720000000  0.4779000000000  0.4151520000000 1.0
C      1  0.4034170000000  0.5212310000000  0.4540320000000 1.0
C      1  0.4918730000000  0.4822150000000  0.5925870000000 1.0
C      1  0.5216350000000  0.4999780000000  0.4727830000000 1.0
C      1  0.5020380000000  0.5737350000000  0.4832190000000 1.0
C      1  0.5397600000000  0.4343870000000  0.5358990000000 1.0
C      1  0.4442590000000  0.4411360000000  0.4358770000000 1.0
C      1  0.5263730000000  0.5318930000000  0.4678690000000 1.0
C      1  0.5318060000000  0.4401270000000  0.5745210000000 1.0
C      1  0.5014760000000  0.4463680000000  0.5086170000000 1.0
C      1  0.5728900000000  0.4774620000000  0.4623760000000 1.0
C      1  0.5036740000000  0.4510060000000  0.5405160000000 1.0
C      1  0.4439700000000  0.5350020000000  0.4711310000000 1.0
C      1  0.4370600000000  0.5884880000000  0.5185880000000 1.0
C      1  0.5483600000000  0.5154410000000  0.4318230000000 1.0
C      1  0.5185880000000  0.5656160000000  0.5602650000000 1.0
C      1  0.4130900000000  0.4792130000000  0.5254920000000 1.0
C      1  0.4607700000000  0.4722570000000  0.5025410000000 1.0
C      1  0.4912080000000  0.4873890000000  0.4969850000000 1.0
C      1  0.5817070000000  0.4598110000000  0.5356450000000 1.0
C      1  0.5940890000000  0.5465230000000  0.4185190000000 1.0
C      1  0.4367070000000  0.5060410000000  0.4380510000000 1.0
C      1  0.5171900000000  0.5952130000000  0.5007020000000 1.0
C      1  0.5588880000000  0.5041290000000  0.4595260000000 1.0
C      1  0.4623450000000  0.5443150000000  0.4464640000000 1.0
C      1  0.5179130000000  0.4802590000000  0.5807000000000 1.0
C      1  0.5703670000000  0.5527370000000  0.5347700000000 1.0
C      1  0.5614810000000  0.4473300000000  0.5535100000000 1.0
C      1  0.5276910000000  0.4205230000000  0.4492260000000 1.0
C      1  0.5517020000000  0.5740850000000  0.4719720000000 1.0
C      1  0.4789290000000  0.5496290000000  0.4831200000000 1.0
C      1  0.4326600000000  0.5637020000000  0.4586930000000 1.0
C      1  0.5679560000000  0.5414060000000  0.4231250000000 1.0
C      1  0.5080560000000  0.5489840000000  0.5255050000000 1.0
C      1  0.5530700000000  0.4313850000000  0.4626490000000 1.0
C      1  0.4093660000000  0.4909000000000  0.4513910000000 1.0
C      1  0.4906760000000  0.4169820000000  0.4990920000000 1.0
C      1  0.4773250000000  0.4591720000000  0.5858090000000 1.0
C      1  0.5186880000000  0.5153090000000  0.5032220000000 1.0
C      1  0.5747870000000  0.4531420000000  0.5051470000000 1.0
C      1  0.4802830000000  0.5089650000000  0.5862870000000 1.0
C      1  0.5164330000000  0.5480780000000  0.4949630000000 1.0
C      1  0.5449300000000  0.4888900000000  0.4151960000000 1.0
C      1  0.5615540000000  0.5643900000000  0.5093120000000 1.0
C      1  0.4648520000000  0.4189080000000  0.5438810000000 1.0
C      1  0.4892270000000  0.3968850000000  0.5179860000000 1.0
C      1  0.4897020000000  0.4784190000000  0.5293270000000 1.0
C      1  0.5061170000000  0.5793050000000  0.5355330000000 1.0
C      1  0.5420940000000  0.4483160000000  0.5110190000000 1.0
C      1  0.5241480000000  0.4393170000000  0.4227280000000 1.0
C      1  0.5354920000000  0.5743990000000  0.4479190000000 1.0
C      1  0.4827430000000  0.5157960000000  0.4859450000000 1.0
C      1  0.4882340000000  0.5155920000000  0.5538660000000 1.0
C      1  0.5121420000000  0.4833330000000  0.4505950000000 1.0
C      1  0.5209810000000  0.4169150000000  0.5517530000000 1.0
C      1  0.4582320000000  0.5712490000000  0.4798320000000 1.0
C      1  0.4781320000000  0.4519300000000  0.4845880000000 1.0
C      1  0.3951540000000  0.5310900000000  0.4779410000000 1.0
C      1  0.4521440000000  0.5296980000000  0.4191110000000 1.0
C      1  0.4051360000000  0.5398690000000  0.5023430000000 1.0
C      1  0.5105420000000  0.4390410000000  0.3994970000000 1.0
C      1  0.4523910000000  0.4637520000000  0.5722020000000 1.0
C      1  0.5032580000000  0.4139150000000  0.4708100000000 1.0
C      1  0.4169930000000  0.4684730000000  0.4752960000000 1.0
C      1  0.4474250000000  0.4449540000000  0.5442970000000 1.0
C      1  0.4294330000000  0.4648900000000  0.5015870000000 1.0
C      1  0.4335850000000  0.5311020000000  0.5501430000000 1.0
C      1  0.5452560000000  0.5899110000000  0.4981770000000 1.0
C      1  0.5410720000000  0.5543480000000  0.4279890000000 1.0
C      1  0.4495370000000  0.4217260000000  0.4558510000000 1.0
C      1  0.4318340000000  0.4668040000000  0.4460970000000 1.0
C      1  0.4930970000000  0.5007570000000  0.4310450000000 1.0
C      1  0.4915400000000  0.5549080000000  0.4411320000000 1.0
C      1  0.5000740000000  0.5555020000000  0.5805950000000 1.0
C      1  0.4899250000000  0.4158030000000  0.5532210000000 1.0
C      1  0.5158040000000  0.4994520000000  0.5303410000000 1.0
C      1  0.4061830000000  0.4233160000000  0.5228850000000 1.0
C      1  0.4649370000000  0.5555470000000  0.5476340000000 1.0
C      1  0.4826720000000  0.5367450000000  0.5360820000000 1.0
C      1  0.5210580000000  0.4752870000000  0.5536450000000 1.0
C      1  0.5948410000000  0.5093470000000  0.5540400000000 1.0
C      1  0.5339690000000  0.4666230000000  0.4342080000000 1.0
C      1  0.4480550000000  0.4955670000000  0.5608730000000 1.0
C      1  0.4596260000000  0.4823580000000  0.4427030000000 1.0
C      1  0.4197130000000  0.5633180000000  0.5102640000000 1.0
C      1  0.5539050000000  0.4630720000000  0.5802080000000 1.0
C      1  0.4245490000000  0.5012000000000  0.5377430000000 1.0
C      1  0.4362050000000  0.5616470000000  0.5383490000000 1.0
C      1  0.4651430000000  0.4233840000000  0.4775680000000 1.0
C      1  0.4861850000000  0.5306460000000  0.4176000000000 1.0
C      1  0.4847100000000  0.4673150000000  0.4565320000000 1.0
END
