TITL C-2778433-5640-461 -0.00161515911250429 125000 -782.601314373997 0 0 135 (C1) n - 1
REM
REM in /home/nfs/bkarasulu/CARBON/AIRSS/Generating-Clusters/REBO/Only-C1/SD-CG/HFTN-CG
REM
REM
REM
REM
REM
REM ./C.cell (11c1c37f851c82e70ff6c80c92926a4b)
REM
REM compiler GCC version 9.2.1 20190827 (Red Hat 9.2.1-1)
REM options -cpp -mtune=generic -march=x86-64 -g -O0 -fpre-include=/usr/include/finclude/math-vector-fortran.h
REM seed -1962420519 -1104094769 572508369 -1247738849 1610805547 889784823 -302096947 2141365818 1144795267 1391041140 -1802984682 2077206059 -1530507536 953534379 1856991762 1933475660 255592033 1265416947 -2031955123 1251900965 1981800156 1957731961 1922437207 231485872 -2037221532 -776111364 1790708674 -2075769303 -999120148 -544682766 1175761924 -282117349 -1545663523
REM
CELL 1.54180   50.00000   50.00000   50.00000   90.00000   90.00000   90.00000
LATT -1
SFAC C  
C      1  0.5194460000000  0.5865320000000  0.4659690000000 1.0
C      1  0.4138140000000  0.5217510000000  0.4671470000000 1.0
C      1  0.5016990000000  0.5492350000000  0.4536280000000 1.0
C      1  0.4570560000000  0.4351930000000  0.5631090000000 1.0
C      1  0.4162150000000  0.5492390000000  0.4793870000000 1.0
C      1  0.5159650000000  0.5640550000000  0.5696360000000 1.0
C      1  0.4779200000000  0.5901430000000  0.5026480000000 1.0
C      1  0.4847860000000  0.5221760000000  0.4441380000000 1.0
C      1  0.4011670000000  0.5225310000000  0.5198590000000 1.0
C      1  0.5417470000000  0.4686490000000  0.4854270000000 1.0
C      1  0.4727560000000  0.5607820000000  0.5522880000000 1.0
C      1  0.4415070000000  0.4620850000000  0.5488820000000 1.0
C      1  0.5804460000000  0.5666220000000  0.5039760000000 1.0
C      1  0.4125510000000  0.4878930000000  0.4630250000000 1.0
C      1  0.5348080000000  0.5045750000000  0.5447540000000 1.0
C      1  0.5428790000000  0.5153900000000  0.5851930000000 1.0
C      1  0.4805260000000  0.4573380000000  0.5243280000000 1.0
C      1  0.4884650000000  0.5570120000000  0.5760390000000 1.0
C      1  0.5403850000000  0.5740570000000  0.5481580000000 1.0
C      1  0.5118120000000  0.4929520000000  0.4760440000000 1.0
C      1  0.5051810000000  0.4930880000000  0.5542470000000 1.0
C      1  0.4309980000000  0.5056560000000  0.5751320000000 1.0
C      1  0.4159560000000  0.4597430000000  0.5182630000000 1.0
C      1  0.4714470000000  0.4717670000000  0.4398070000000 1.0
C      1  0.4248750000000  0.4940660000000  0.4317770000000 1.0
C      1  0.4486510000000  0.4156390000000  0.5079490000000 1.0
C      1  0.5132860000000  0.4605920000000  0.4065310000000 1.0
C      1  0.5107030000000  0.4825840000000  0.5088760000000 1.0
C      1  0.5103270000000  0.4521170000000  0.5146330000000 1.0
C      1  0.5207310000000  0.5220250000000  0.4612990000000 1.0
C      1  0.5876530000000  0.4957250000000  0.5464130000000 1.0
C      1  0.5867650000000  0.4979550000000  0.4961750000000 1.0
C      1  0.4665370000000  0.4903280000000  0.4597860000000 1.0
C      1  0.5761250000000  0.4394820000000  0.5120620000000 1.0
C      1  0.4934390000000  0.4479170000000  0.4631190000000 1.0
C      1  0.5642220000000  0.5349620000000  0.5720120000000 1.0
C      1  0.5320580000000  0.5614020000000  0.4460310000000 1.0
C      1  0.4568200000000  0.4884320000000  0.5326700000000 1.0
C      1  0.4427810000000  0.5121360000000  0.4531800000000 1.0
C      1  0.5881560000000  0.5574450000000  0.4786920000000 1.0
C      1  0.5175620000000  0.4660500000000  0.4614780000000 1.0
C      1  0.4678830000000  0.4702470000000  0.4991390000000 1.0
C      1  0.5537200000000  0.4320220000000  0.5351140000000 1.0
C      1  0.5310060000000  0.4114240000000  0.5340800000000 1.0
C      1  0.5587660000000  0.4310390000000  0.4641030000000 1.0
C      1  0.4832490000000  0.4688550000000  0.5562260000000 1.0
C      1  0.4998200000000  0.4028800000000  0.4934910000000 1.0
C      1  0.4716970000000  0.4303570000000  0.5386010000000 1.0
C      1  0.4895580000000  0.4408250000000  0.5978350000000 1.0
C      1  0.4126200000000  0.5090140000000  0.5460690000000 1.0
C      1  0.5542680000000  0.4661600000000  0.5691960000000 1.0
C      1  0.4355450000000  0.5192190000000  0.5004460000000 1.0
C      1  0.4872470000000  0.4427290000000  0.4307650000000 1.0
C      1  0.5565210000000  0.4971360000000  0.4826490000000 1.0
C      1  0.4439730000000  0.5160850000000  0.4135250000000 1.0
C      1  0.4304960000000  0.5642530000000  0.5221660000000 1.0
C      1  0.4876340000000  0.5746650000000  0.4671390000000 1.0
C      1  0.4879160000000  0.4963390000000  0.5275890000000 1.0
C      1  0.4637510000000  0.4526830000000  0.4745620000000 1.0
C      1  0.5701080000000  0.4714490000000  0.4406770000000 1.0
C      1  0.5636970000000  0.5188220000000  0.4574620000000 1.0
C      1  0.4771560000000  0.5076570000000  0.4142920000000 1.0
C      1  0.5372540000000  0.5905720000000  0.5185570000000 1.0
C      1  0.5725390000000  0.4561140000000  0.4632990000000 1.0
C      1  0.4213340000000  0.4675640000000  0.4871350000000 1.0
C      1  0.4869660000000  0.4149190000000  0.4686950000000 1.0
C      1  0.5515930000000  0.5245630000000  0.5243870000000 1.0
C      1  0.4057650000000  0.5035540000000  0.4931940000000 1.0
C      1  0.4954250000000  0.4434200000000  0.5707920000000 1.0
C      1  0.4491890000000  0.5428400000000  0.4455140000000 1.0
C      1  0.5038080000000  0.5194640000000  0.4972730000000 1.0
C      1  0.4472620000000  0.5444210000000  0.5060210000000 1.0
C      1  0.5218110000000  0.4759700000000  0.4313570000000 1.0
C      1  0.5783200000000  0.4711990000000  0.5246750000000 1.0
C      1  0.4913960000000  0.5732610000000  0.5293170000000 1.0
C      1  0.5253790000000  0.5361070000000  0.4242600000000 1.0
C      1  0.5325250000000  0.3992000000000  0.5023170000000 1.0
C      1  0.4345440000000  0.4373880000000  0.5256990000000 1.0
C      1  0.5063150000000  0.4478220000000  0.3855580000000 1.0
C      1  0.4588000000000  0.5792450000000  0.4770590000000 1.0
C      1  0.4352870000000  0.4378500000000  0.4858110000000 1.0
C      1  0.4534000000000  0.4832190000000  0.4164590000000 1.0
C      1  0.5830820000000  0.5136430000000  0.5215060000000 1.0
C      1  0.4948910000000  0.5364900000000  0.4091690000000 1.0
C      1  0.5591450000000  0.4880470000000  0.5869920000000 1.0
C      1  0.5603970000000  0.4177340000000  0.4947120000000 1.0
C      1  0.4407360000000  0.4879010000000  0.5045820000000 1.0
C      1  0.5114450000000  0.5929380000000  0.4988690000000 1.0
C      1  0.5505130000000  0.4787600000000  0.5414870000000 1.0
C      1  0.4115880000000  0.4776410000000  0.5424950000000 1.0
C      1  0.4623750000000  0.5365710000000  0.5420700000000 1.0
C      1  0.4863910000000  0.5291630000000  0.5851990000000 1.0
C      1  0.4395920000000  0.5612460000000  0.4667210000000 1.0
C      1  0.4380400000000  0.5870120000000  0.5364820000000 1.0
C      1  0.5055100000000  0.4230910000000  0.5187450000000 1.0
C      1  0.5041270000000  0.5616790000000  0.4930020000000 1.0
C      1  0.5646400000000  0.5555320000000  0.5527400000000 1.0
C      1  0.5440570000000  0.5365560000000  0.4765270000000 1.0
C      1  0.4803870000000  0.5269960000000  0.5200150000000 1.0
C      1  0.5812700000000  0.4654750000000  0.4911810000000 1.0
C      1  0.5076930000000  0.4178570000000  0.4418470000000 1.0
C      1  0.5121540000000  0.5154520000000  0.5757680000000 1.0
C      1  0.5347480000000  0.4146960000000  0.4477840000000 1.0
C      1  0.4435270000000  0.4444630000000  0.4482510000000 1.0
C      1  0.5629470000000  0.5586230000000  0.4584320000000 1.0
C      1  0.5302610000000  0.5465570000000  0.5015890000000 1.0
C      1  0.4207640000000  0.6015330000000  0.5515750000000 1.0
C      1  0.5347250000000  0.5068600000000  0.5049050000000 1.0
C      1  0.4564580000000  0.4825430000000  0.5722030000000 1.0
C      1  0.5593290000000  0.4397320000000  0.5646220000000 1.0
C      1  0.4631200000000  0.5441130000000  0.4186510000000 1.0
C      1  0.5509310000000  0.5147990000000  0.4306860000000 1.0
C      1  0.5789940000000  0.5066920000000  0.5712510000000 1.0
C      1  0.5589860000000  0.5855160000000  0.5004680000000 1.0
C      1  0.4077720000000  0.5493650000000  0.5080520000000 1.0
C      1  0.5108770000000  0.4247440000000  0.5580890000000 1.0
C      1  0.4740160000000  0.5273360000000  0.4723300000000 1.0
C      1  0.5122440000000  0.5054630000000  0.4329680000000 1.0
C      1  0.5413540000000  0.4581940000000  0.5167510000000 1.0
C      1  0.5773450000000  0.5465850000000  0.5256640000000 1.0
C      1  0.5503270000000  0.4865050000000  0.4274590000000 1.0
C      1  0.6061350000000  0.5114160000000  0.4763950000000 1.0
C      1  0.4565520000000  0.4135030000000  0.4748660000000 1.0
C      1  0.4631070000000  0.5135430000000  0.5838230000000 1.0
C      1  0.4452560000000  0.5135270000000  0.5468600000000 1.0
C      1  0.5504480000000  0.5846970000000  0.4728130000000 1.0
C      1  0.5283270000000  0.5365290000000  0.5545350000000 1.0
C      1  0.5177800000000  0.5578320000000  0.5302160000000 1.0
C      1  0.5941760000000  0.5230990000000  0.4572540000000 1.0
C      1  0.4769400000000  0.4054040000000  0.5186400000000 1.0
C      1  0.4646360000000  0.5943200000000  0.5323520000000 1.0
C      1  0.4757140000000  0.5000660000000  0.4898880000000 1.0
C      1  0.4764700000000  0.5482480000000  0.4950150000000 1.0
C      1  0.5458310000000  0.3967450000000  0.4719510000000 1.0
C      1  0.4561010000000  0.4370890000000  0.4272810000000 1.0
END
