TITL C-2778422-5617-374 0.00250756931102877 125000 -448.177435097386 0 0 78 (C1) n - 1
REM
REM in /home/nfs/bkarasulu/CARBON/AIRSS/Generating-Clusters/REBO/Only-C1/SD-CG/HFTN-CG
REM
REM
REM
REM
REM
REM ./C.cell (11c1c37f851c82e70ff6c80c92926a4b)
REM
REM compiler GCC version 9.2.1 20190827 (Red Hat 9.2.1-1)
REM options -cpp -mtune=generic -march=x86-64 -g -O0 -fpre-include=/usr/include/finclude/math-vector-fortran.h
REM seed 1331952787 -1755941194 -842448262 401323969 551213946 -680715065 -957148729 -2060342814 -42185938 -376465198 1887578453 1364452424 -1754023076 -421935633 661106684 1642633343 627998599 272514176 1901601477 2138924130 400641483 1691020008 -714366568 272078557 662173422 -1820672786 -1377040962 1459114584 -36179741 726612742 -577160038 1924325070 1016686439
REM
CELL 1.54180   50.00000   50.00000   50.00000   90.00000   90.00000   90.00000
LATT -1
SFAC C  
C      1  0.5093230000000  0.5196090000000  0.4384330000000 1.0
C      1  0.5552460000000  0.5342680000000  0.4762010000000 1.0
C      1  0.5912780000000  0.5606280000000  0.5037920000000 1.0
C      1  0.5017410000000  0.5656040000000  0.5241440000000 1.0
C      1  0.5425590000000  0.5256350000000  0.4456890000000 1.0
C      1  0.4330720000000  0.5362930000000  0.4561720000000 1.0
C      1  0.4959520000000  0.4423720000000  0.5625620000000 1.0
C      1  0.4110690000000  0.5171810000000  0.4462120000000 1.0
C      1  0.4353420000000  0.5360990000000  0.5084430000000 1.0
C      1  0.5453650000000  0.5797540000000  0.5285300000000 1.0
C      1  0.4492020000000  0.4760270000000  0.5108590000000 1.0
C      1  0.5433700000000  0.4987910000000  0.5447760000000 1.0
C      1  0.4623530000000  0.4322110000000  0.4751940000000 1.0
C      1  0.5268540000000  0.5514100000000  0.5660940000000 1.0
C      1  0.4707320000000  0.4945750000000  0.5597890000000 1.0
C      1  0.5205520000000  0.5806900000000  0.4870750000000 1.0
C      1  0.4182310000000  0.4691100000000  0.4983070000000 1.0
C      1  0.4234700000000  0.4727390000000  0.5322470000000 1.0
C      1  0.4700020000000  0.4513940000000  0.4192140000000 1.0
C      1  0.5310190000000  0.5104720000000  0.4799950000000 1.0
C      1  0.4910490000000  0.4373670000000  0.4226190000000 1.0
C      1  0.5103520000000  0.4490930000000  0.4442280000000 1.0
C      1  0.5828630000000  0.5277890000000  0.5433990000000 1.0
C      1  0.4529670000000  0.5729740000000  0.4603200000000 1.0
C      1  0.5308040000000  0.4844790000000  0.4893830000000 1.0
C      1  0.5452170000000  0.5786840000000  0.5002520000000 1.0
C      1  0.4851510000000  0.4702520000000  0.5777640000000 1.0
C      1  0.4779680000000  0.5680650000000  0.4664560000000 1.0
C      1  0.5043720000000  0.5628820000000  0.4729350000000 1.0
C      1  0.5021850000000  0.4355760000000  0.5356800000000 1.0
C      1  0.5672560000000  0.5635380000000  0.4838440000000 1.0
C      1  0.5515970000000  0.4734850000000  0.4360980000000 1.0
C      1  0.4495410000000  0.5242300000000  0.5278080000000 1.0
C      1  0.4794920000000  0.4994730000000  0.5923850000000 1.0
C      1  0.4227030000000  0.4671820000000  0.4672580000000 1.0
C      1  0.4771380000000  0.5355280000000  0.5326890000000 1.0
C      1  0.5747400000000  0.5777470000000  0.4604140000000 1.0
C      1  0.4919030000000  0.5156010000000  0.4865380000000 1.0
C      1  0.4686310000000  0.4761770000000  0.4382890000000 1.0
C      1  0.4875880000000  0.4283880000000  0.4873090000000 1.0
C      1  0.4912680000000  0.4891870000000  0.4924510000000 1.0
C      1  0.5147680000000  0.5007640000000  0.5358100000000 1.0
C      1  0.4484790000000  0.4950200000000  0.5388670000000 1.0
C      1  0.4285360000000  0.4424410000000  0.5172470000000 1.0
C      1  0.5025490000000  0.4804710000000  0.4399380000000 1.0
C      1  0.4838480000000  0.4271940000000  0.5162590000000 1.0
C      1  0.5170440000000  0.5379400000000  0.4651630000000 1.0
C      1  0.4565030000000  0.4277090000000  0.5245310000000 1.0
C      1  0.4332950000000  0.4376620000000  0.4622070000000 1.0
C      1  0.5109270000000  0.4313690000000  0.4711770000000 1.0
C      1  0.5482620000000  0.5654320000000  0.5530900000000 1.0
C      1  0.4249940000000  0.4900320000000  0.4457390000000 1.0
C      1  0.4677390000000  0.4755510000000  0.4886230000000 1.0
C      1  0.5484010000000  0.5316590000000  0.5087570000000 1.0
C      1  0.5352870000000  0.4702770000000  0.5515520000000 1.0
C      1  0.5445810000000  0.4432560000000  0.5064640000000 1.0
C      1  0.5439800000000  0.4599790000000  0.4839890000000 1.0
C      1  0.4935300000000  0.5163580000000  0.5503260000000 1.0
C      1  0.4549550000000  0.4710940000000  0.4640250000000 1.0
C      1  0.5956000000000  0.5545880000000  0.5307280000000 1.0
C      1  0.5325690000000  0.4948220000000  0.4351330000000 1.0
C      1  0.5068300000000  0.5327820000000  0.5732510000000 1.0
C      1  0.5245910000000  0.4536630000000  0.5262100000000 1.0
C      1  0.5116230000000  0.4802680000000  0.5141620000000 1.0
C      1  0.4350140000000  0.4243590000000  0.4911930000000 1.0
C      1  0.5388780000000  0.4213030000000  0.4736060000000 1.0
C      1  0.4327570000000  0.5444280000000  0.4829410000000 1.0
C      1  0.4956450000000  0.5382580000000  0.5055340000000 1.0
C      1  0.4502670000000  0.5112070000000  0.4442580000000 1.0
C      1  0.5423760000000  0.4494280000000  0.4543290000000 1.0
C      1  0.5583380000000  0.4196920000000  0.5097720000000 1.0
C      1  0.5264250000000  0.5470100000000  0.5157190000000 1.0
C      1  0.5755840000000  0.5561480000000  0.5569260000000 1.0
C      1  0.4798050000000  0.5675980000000  0.5438820000000 1.0
C      1  0.4807730000000  0.5070180000000  0.4370710000000 1.0
C      1  0.5175780000000  0.4635910000000  0.5730150000000 1.0
C      1  0.4952950000000  0.5214170000000  0.5969570000000 1.0
C      1  0.5608610000000  0.5156520000000  0.5297040000000 1.0
END
