TITL C-2778426-5645-37 0.00456289813449087 125000 -886.47694290762 0 0 156 (C1) n - 1
REM
REM in /home/nfs/bkarasulu/CARBON/AIRSS/Generating-Clusters/REBO/Only-C1/SD-CG/HFTN-CG
REM
REM
REM
REM
REM
REM ./C.cell (11c1c37f851c82e70ff6c80c92926a4b)
REM
REM compiler GCC version 9.2.1 20190827 (Red Hat 9.2.1-1)
REM options -cpp -mtune=generic -march=x86-64 -g -O0 -fpre-include=/usr/include/finclude/math-vector-fortran.h
REM seed 460505383 859797032 -101422736 1363634425 2016454392 -454608354 326706132 1806846135 -680346043 976573427 -1196744158 1871015864 -1029670360 -97432203 1664666478 -1262000026 -1128145700 1104388557 850415723 1657750425 -972423224 2130918768 -1961485684 623366113 561327490 1526039648 -1246420634 1547321798 1853898999 -1818245492 -212081014 1835791336 -875327405
REM
CELL 1.54180   50.00000   50.00000   50.00000   90.00000   90.00000   90.00000
LATT -1
SFAC C  
C      1  0.3679150000000  0.4736520000000  0.5199980000000 1.0
C      1  0.4294730000000  0.4339520000000  0.4587650000000 1.0
C      1  0.5243150000000  0.4946270000000  0.4454290000000 1.0
C      1  0.4300900000000  0.4870850000000  0.5088320000000 1.0
C      1  0.4206580000000  0.5231590000000  0.4517340000000 1.0
C      1  0.5366440000000  0.6004170000000  0.4628370000000 1.0
C      1  0.6034030000000  0.5439700000000  0.4890820000000 1.0
C      1  0.5915260000000  0.5186000000000  0.5430230000000 1.0
C      1  0.5002390000000  0.5022350000000  0.4874670000000 1.0
C      1  0.5044740000000  0.5564410000000  0.5540260000000 1.0
C      1  0.5196240000000  0.5590390000000  0.4970350000000 1.0
C      1  0.3934680000000  0.4650450000000  0.5157060000000 1.0
C      1  0.5591460000000  0.4507530000000  0.5124320000000 1.0
C      1  0.4549330000000  0.4793570000000  0.4012900000000 1.0
C      1  0.5097420000000  0.4307780000000  0.4757560000000 1.0
C      1  0.5550610000000  0.5321960000000  0.4661660000000 1.0
C      1  0.4241290000000  0.4614440000000  0.4390070000000 1.0
C      1  0.4642320000000  0.4176760000000  0.4936700000000 1.0
C      1  0.4711320000000  0.5622790000000  0.5479500000000 1.0
C      1  0.5942370000000  0.4870530000000  0.4864810000000 1.0
C      1  0.4001480000000  0.5026010000000  0.5038690000000 1.0
C      1  0.5813420000000  0.5702810000000  0.5331160000000 1.0
C      1  0.5355940000000  0.5331720000000  0.6158990000000 1.0
C      1  0.3887620000000  0.5247460000000  0.4937200000000 1.0
C      1  0.4763770000000  0.4026620000000  0.4499300000000 1.0
C      1  0.4267060000000  0.5340440000000  0.5419590000000 1.0
C      1  0.4759200000000  0.4495000000000  0.4377580000000 1.0
C      1  0.5444110000000  0.5350430000000  0.4142950000000 1.0
C      1  0.5091920000000  0.4638130000000  0.4094070000000 1.0
C      1  0.4167040000000  0.5815400000000  0.5297220000000 1.0
C      1  0.5250280000000  0.5245010000000  0.5163260000000 1.0
C      1  0.4693380000000  0.5040420000000  0.3951620000000 1.0
C      1  0.5014970000000  0.4548600000000  0.5222920000000 1.0
C      1  0.5465650000000  0.4715620000000  0.5579340000000 1.0
C      1  0.5171360000000  0.4231430000000  0.5408090000000 1.0
C      1  0.5408420000000  0.5995360000000  0.4925880000000 1.0
C      1  0.4379580000000  0.5111330000000  0.5646210000000 1.0
C      1  0.5512220000000  0.5003220000000  0.5756580000000 1.0
C      1  0.4812860000000  0.5296460000000  0.6048410000000 1.0
C      1  0.4448380000000  0.5735160000000  0.4650610000000 1.0
C      1  0.4420680000000  0.4656550000000  0.4932980000000 1.0
C      1  0.5569890000000  0.4211370000000  0.5391740000000 1.0
C      1  0.5663190000000  0.4780040000000  0.4738430000000 1.0
C      1  0.5223490000000  0.5151370000000  0.5653740000000 1.0
C      1  0.4945720000000  0.5873510000000  0.5478080000000 1.0
C      1  0.5306660000000  0.4442160000000  0.4259020000000 1.0
C      1  0.4657700000000  0.5525330000000  0.4242570000000 1.0
C      1  0.5852870000000  0.4623000000000  0.5164940000000 1.0
C      1  0.5800150000000  0.5203780000000  0.4336740000000 1.0
C      1  0.4160130000000  0.4869710000000  0.6047160000000 1.0
C      1  0.4914280000000  0.5988490000000  0.4883420000000 1.0
C      1  0.4163360000000  0.4936680000000  0.5781960000000 1.0
C      1  0.4652730000000  0.4695140000000  0.5580210000000 1.0
C      1  0.4620810000000  0.4974270000000  0.4800690000000 1.0
C      1  0.5322850000000  0.4483040000000  0.5235290000000 1.0
C      1  0.4015860000000  0.4577670000000  0.4890990000000 1.0
C      1  0.5278050000000  0.5601980000000  0.4179790000000 1.0
C      1  0.5917400000000  0.4853850000000  0.5347330000000 1.0
C      1  0.5253970000000  0.5088420000000  0.4072550000000 1.0
C      1  0.4580540000000  0.5389290000000  0.5431880000000 1.0
C      1  0.5037480000000  0.4430590000000  0.5935450000000 1.0
C      1  0.4598330000000  0.5390440000000  0.4507390000000 1.0
C      1  0.4971610000000  0.5517780000000  0.4168160000000 1.0
C      1  0.5319050000000  0.5340660000000  0.5903970000000 1.0
C      1  0.5940160000000  0.5447540000000  0.5217630000000 1.0
C      1  0.6037060000000  0.4568650000000  0.4929810000000 1.0
C      1  0.4351430000000  0.4950450000000  0.6228820000000 1.0
C      1  0.5925440000000  0.5421400000000  0.4568900000000 1.0
C      1  0.4684700000000  0.4297260000000  0.5582680000000 1.0
C      1  0.5176710000000  0.4154580000000  0.4290510000000 1.0
C      1  0.4930580000000  0.4184970000000  0.5640770000000 1.0
C      1  0.5437690000000  0.4865570000000  0.4878860000000 1.0
C      1  0.4320830000000  0.4982670000000  0.4693000000000 1.0
C      1  0.4417660000000  0.5422350000000  0.4982700000000 1.0
C      1  0.5167580000000  0.4838800000000  0.5642280000000 1.0
C      1  0.4104770000000  0.4754080000000  0.4671970000000 1.0
C      1  0.5262040000000  0.5844060000000  0.5355190000000 1.0
C      1  0.5525140000000  0.5613760000000  0.4933040000000 1.0
C      1  0.5246390000000  0.4012270000000  0.4533020000000 1.0
C      1  0.4507900000000  0.4628100000000  0.4225770000000 1.0
C      1  0.4749960000000  0.5014140000000  0.4278920000000 1.0
C      1  0.5580330000000  0.5038950000000  0.4168440000000 1.0
C      1  0.4057600000000  0.5202610000000  0.4235160000000 1.0
C      1  0.5393610000000  0.4764410000000  0.4217720000000 1.0
C      1  0.4990220000000  0.3930350000000  0.4662250000000 1.0
C      1  0.4806740000000  0.5851900000000  0.5168030000000 1.0
C      1  0.4708450000000  0.4479820000000  0.5325970000000 1.0
C      1  0.4580010000000  0.5092030000000  0.4496560000000 1.0
C      1  0.4555720000000  0.4148460000000  0.4644990000000 1.0
C      1  0.4939140000000  0.4789560000000  0.5421970000000 1.0
C      1  0.5023760000000  0.5584440000000  0.4694600000000 1.0
C      1  0.4445710000000  0.3963670000000  0.5115790000000 1.0
C      1  0.4770610000000  0.4610650000000  0.5855710000000 1.0
C      1  0.6100430000000  0.5161350000000  0.4441440000000 1.0
C      1  0.5356860000000  0.5232910000000  0.4435550000000 1.0
C      1  0.4567070000000  0.5110470000000  0.6151350000000 1.0
C      1  0.5052030000000  0.5975370000000  0.4606640000000 1.0
C      1  0.4253900000000  0.5479820000000  0.4687320000000 1.0
C      1  0.4196580000000  0.5555800000000  0.5205340000000 1.0
C      1  0.5572310000000  0.5932870000000  0.5410160000000 1.0
C      1  0.4730650000000  0.5481490000000  0.4774590000000 1.0
C      1  0.5837290000000  0.5103380000000  0.5742670000000 1.0
C      1  0.5594290000000  0.5640000000000  0.4620660000000 1.0
C      1  0.5604050000000  0.5274890000000  0.5344740000000 1.0
C      1  0.5710490000000  0.4541430000000  0.4585410000000 1.0
C      1  0.4141410000000  0.5048430000000  0.5333030000000 1.0
C      1  0.5373080000000  0.5520010000000  0.5322550000000 1.0
C      1  0.4321350000000  0.4626890000000  0.5558520000000 1.0
C      1  0.5657510000000  0.5103640000000  0.6028940000000 1.0
C      1  0.5610270000000  0.4934200000000  0.5377410000000 1.0
C      1  0.5508380000000  0.4118200000000  0.5139010000000 1.0
C      1  0.4741810000000  0.5221850000000  0.4964230000000 1.0
C      1  0.5377490000000  0.4125380000000  0.4821320000000 1.0
C      1  0.5034080000000  0.5112740000000  0.5373650000000 1.0
C      1  0.4435970000000  0.4380180000000  0.5696600000000 1.0
C      1  0.5008120000000  0.4850580000000  0.4276660000000 1.0
C      1  0.5763760000000  0.5157530000000  0.4822040000000 1.0
C      1  0.5612310000000  0.5669100000000  0.5604890000000 1.0
C      1  0.4121430000000  0.4650640000000  0.5369900000000 1.0
C      1  0.5329030000000  0.5535190000000  0.5662490000000 1.0
C      1  0.4743080000000  0.4676900000000  0.4859230000000 1.0
C      1  0.5646840000000  0.4287020000000  0.4886750000000 1.0
C      1  0.5672300000000  0.5945030000000  0.4488800000000 1.0
C      1  0.5486200000000  0.4397140000000  0.5587720000000 1.0
C      1  0.4092580000000  0.4922030000000  0.4375590000000 1.0
C      1  0.5671500000000  0.5367600000000  0.5038870000000 1.0
C      1  0.4125450000000  0.4321940000000  0.4846460000000 1.0
C      1  0.4879690000000  0.4192920000000  0.4288810000000 1.0
C      1  0.4933230000000  0.5750240000000  0.4418630000000 1.0
C      1  0.5176850000000  0.5975030000000  0.5075830000000 1.0
C      1  0.5234370000000  0.4277070000000  0.5743500000000 1.0
C      1  0.5055020000000  0.4741960000000  0.5904080000000 1.0
C      1  0.5649430000000  0.5877680000000  0.5088590000000 1.0
C      1  0.4481520000000  0.5012260000000  0.5342620000000 1.0
C      1  0.5010990000000  0.4026380000000  0.4946020000000 1.0
C      1  0.5060710000000  0.5280700000000  0.4572680000000 1.0
C      1  0.5439040000000  0.4989760000000  0.5125000000000 1.0
C      1  0.4267310000000  0.4207760000000  0.5067190000000 1.0
C      1  0.5089500000000  0.4019820000000  0.5198780000000 1.0
C      1  0.6066890000000  0.4884450000000  0.5641270000000 1.0
C      1  0.5277420000000  0.5306630000000  0.4829000000000 1.0
C      1  0.4882220000000  0.4416660000000  0.4965590000000 1.0
C      1  0.4512970000000  0.4417560000000  0.5118680000000 1.0
C      1  0.4551430000000  0.4547720000000  0.4629080000000 1.0
C      1  0.4998370000000  0.5590020000000  0.5204150000000 1.0
C      1  0.5201020000000  0.4901320000000  0.4741500000000 1.0
C      1  0.5398250000000  0.5776370000000  0.4375970000000 1.0
C      1  0.4036590000000  0.5478770000000  0.4928400000000 1.0
C      1  0.4585160000000  0.5198430000000  0.5840080000000 1.0
C      1  0.5910370000000  0.4375570000000  0.4744850000000 1.0
C      1  0.6103690000000  0.5129960000000  0.4767690000000 1.0
C      1  0.4740940000000  0.5174300000000  0.5269670000000 1.0
C      1  0.5068320000000  0.4472100000000  0.4500990000000 1.0
C      1  0.4594020000000  0.5777630000000  0.4407810000000 1.0
C      1  0.4642630000000  0.5782980000000  0.4895150000000 1.0
C      1  0.4964340000000  0.5199080000000  0.4085750000000 1.0
END
