TITL C-2778422-5617-832 0.00148829842474091 125000 -923.041550304038 0 0 159 (C1) n - 1
REM
REM in /home/nfs/bkarasulu/CARBON/AIRSS/Generating-Clusters/REBO/Only-C1/SD-CG/HFTN-CG
REM
REM
REM
REM
REM
REM ./C.cell (11c1c37f851c82e70ff6c80c92926a4b)
REM
REM compiler GCC version 9.2.1 20190827 (Red Hat 9.2.1-1)
REM options -cpp -mtune=generic -march=x86-64 -g -O0 -fpre-include=/usr/include/finclude/math-vector-fortran.h
REM seed -1000164549 1959415005 -304262585 -926606977 -405894964 817015539 -1698458457 -1467953381 530945345 972891840 936419326 -628803335 -939997043 -545162578 -1077466519 792705844 772603109 -1032790601 2112110583 -219976622 -717126822 -500186159 -571834371 -1940333421 -250334084 -181275870 761552448 1677176607 793597122 771494394 645886044 166553811 1934067796
REM
CELL 1.54180   50.00000   50.00000   50.00000   90.00000   90.00000   90.00000
LATT -1
SFAC C  
C      1  0.5055150000000  0.3879740000000  0.4624910000000 1.0
C      1  0.5210120000000  0.4468150000000  0.5450440000000 1.0
C      1  0.5512140000000  0.5881530000000  0.4543850000000 1.0
C      1  0.5493360000000  0.5937360000000  0.5180010000000 1.0
C      1  0.5303580000000  0.4606880000000  0.4576080000000 1.0
C      1  0.5180290000000  0.5801990000000  0.5685100000000 1.0
C      1  0.4930460000000  0.5220090000000  0.4660670000000 1.0
C      1  0.5739240000000  0.5241070000000  0.5390860000000 1.0
C      1  0.4799690000000  0.5927590000000  0.4750910000000 1.0
C      1  0.4309160000000  0.5319360000000  0.4340280000000 1.0
C      1  0.5083520000000  0.4772160000000  0.5676670000000 1.0
C      1  0.5370010000000  0.5554920000000  0.5794850000000 1.0
C      1  0.4132130000000  0.4918700000000  0.5094850000000 1.0
C      1  0.4633250000000  0.4848880000000  0.4520750000000 1.0
C      1  0.3963560000000  0.5038850000000  0.4591050000000 1.0
C      1  0.5702370000000  0.4710230000000  0.5823910000000 1.0
C      1  0.5194590000000  0.5296400000000  0.5546440000000 1.0
C      1  0.5710640000000  0.5133650000000  0.5009580000000 1.0
C      1  0.4111310000000  0.5656870000000  0.4835270000000 1.0
C      1  0.5672280000000  0.4873980000000  0.4264510000000 1.0
C      1  0.4881240000000  0.5452190000000  0.5912750000000 1.0
C      1  0.4161990000000  0.4994750000000  0.5426150000000 1.0
C      1  0.4760780000000  0.4188710000000  0.4866790000000 1.0
C      1  0.3925040000000  0.4894560000000  0.4854380000000 1.0
C      1  0.5249200000000  0.5448840000000  0.5247300000000 1.0
C      1  0.4514910000000  0.5272080000000  0.4908940000000 1.0
C      1  0.5004340000000  0.4043560000000  0.5539450000000 1.0
C      1  0.4426470000000  0.5529110000000  0.5484790000000 1.0
C      1  0.5966000000000  0.4729010000000  0.5032350000000 1.0
C      1  0.5661580000000  0.4624770000000  0.5127490000000 1.0
C      1  0.4714430000000  0.4788200000000  0.3918250000000 1.0
C      1  0.5973180000000  0.5306900000000  0.4934220000000 1.0
C      1  0.4408650000000  0.5380100000000  0.5217930000000 1.0
C      1  0.4511690000000  0.5038520000000  0.5831660000000 1.0
C      1  0.5805420000000  0.5590150000000  0.5001380000000 1.0
C      1  0.5131610000000  0.4850730000000  0.5368680000000 1.0
C      1  0.5770520000000  0.4725870000000  0.5496300000000 1.0
C      1  0.4710010000000  0.5223810000000  0.5443810000000 1.0
C      1  0.4366810000000  0.5786930000000  0.4412410000000 1.0
C      1  0.5871290000000  0.4909970000000  0.4477960000000 1.0
C      1  0.5550600000000  0.5093130000000  0.4123170000000 1.0
C      1  0.4970930000000  0.4662060000000  0.5199850000000 1.0
C      1  0.5901280000000  0.4981300000000  0.5770370000000 1.0
C      1  0.4016060000000  0.4617620000000  0.4860830000000 1.0
C      1  0.4827970000000  0.4432860000000  0.4240660000000 1.0
C      1  0.5228020000000  0.4177940000000  0.5079270000000 1.0
C      1  0.5216720000000  0.4827110000000  0.6049410000000 1.0
C      1  0.4370000000000  0.4219690000000  0.4938860000000 1.0
C      1  0.4723470000000  0.4039550000000  0.5450190000000 1.0
C      1  0.5993820000000  0.5031070000000  0.5138000000000 1.0
C      1  0.4542520000000  0.5960020000000  0.4810900000000 1.0
C      1  0.5043750000000  0.4047300000000  0.4868340000000 1.0
C      1  0.4371450000000  0.5397610000000  0.5729730000000 1.0
C      1  0.5147670000000  0.4270380000000  0.5704280000000 1.0
C      1  0.4464510000000  0.4233640000000  0.5527080000000 1.0
C      1  0.5344860000000  0.5078330000000  0.5982830000000 1.0
C      1  0.4853180000000  0.5527210000000  0.5378090000000 1.0
C      1  0.4693810000000  0.4355800000000  0.5129950000000 1.0
C      1  0.5846170000000  0.5193150000000  0.4638960000000 1.0
C      1  0.4249080000000  0.4378740000000  0.5439480000000 1.0
C      1  0.5098600000000  0.4447890000000  0.4141090000000 1.0
C      1  0.4494350000000  0.5393610000000  0.4616800000000 1.0
C      1  0.5019510000000  0.4554420000000  0.4692180000000 1.0
C      1  0.5015270000000  0.5793950000000  0.4524390000000 1.0
C      1  0.4709510000000  0.4400000000000  0.5622550000000 1.0
C      1  0.5650410000000  0.5558250000000  0.5305160000000 1.0
C      1  0.5205540000000  0.5303950000000  0.4807570000000 1.0
C      1  0.5581940000000  0.5372370000000  0.4253110000000 1.0
C      1  0.5174470000000  0.5164050000000  0.4437620000000 1.0
C      1  0.5482200000000  0.5749510000000  0.5532470000000 1.0
C      1  0.5316280000000  0.5711230000000  0.5088380000000 1.0
C      1  0.5078000000000  0.5830270000000  0.4915000000000 1.0
C      1  0.4165220000000  0.4386120000000  0.5136240000000 1.0
C      1  0.5281560000000  0.4082740000000  0.5379650000000 1.0
C      1  0.4039010000000  0.5249910000000  0.5294490000000 1.0
C      1  0.5639290000000  0.4231780000000  0.4975230000000 1.0
C      1  0.4432190000000  0.4974950000000  0.4133660000000 1.0
C      1  0.4906990000000  0.5563020000000  0.4861260000000 1.0
C      1  0.4949360000000  0.4866630000000  0.6168360000000 1.0
C      1  0.4761600000000  0.5001030000000  0.4742420000000 1.0
C      1  0.5505800000000  0.4650780000000  0.4237080000000 1.0
C      1  0.5662880000000  0.5641840000000  0.4695780000000 1.0
C      1  0.4351260000000  0.4612980000000  0.4869970000000 1.0
C      1  0.5504690000000  0.5368960000000  0.5560250000000 1.0
C      1  0.5182500000000  0.5496080000000  0.4531440000000 1.0
C      1  0.4543990000000  0.4332720000000  0.4666160000000 1.0
C      1  0.5601880000000  0.4988820000000  0.4760940000000 1.0
C      1  0.4614560000000  0.4845270000000  0.5319490000000 1.0
C      1  0.5461680000000  0.5221270000000  0.5191410000000 1.0
C      1  0.4948960000000  0.5382240000000  0.5101710000000 1.0
C      1  0.4425620000000  0.5048110000000  0.5131500000000 1.0
C      1  0.4599830000000  0.4604610000000  0.4097180000000 1.0
C      1  0.4903930000000  0.4961250000000  0.5842510000000 1.0
C      1  0.5723930000000  0.4249420000000  0.5245050000000 1.0
C      1  0.4544860000000  0.4062960000000  0.5174710000000 1.0
C      1  0.4867670000000  0.5546390000000  0.4249610000000 1.0
C      1  0.5535850000000  0.4457020000000  0.5676990000000 1.0
C      1  0.5980960000000  0.4708300000000  0.4701840000000 1.0
C      1  0.4968510000000  0.4941560000000  0.3921850000000 1.0
C      1  0.5918110000000  0.4512000000000  0.5294390000000 1.0
C      1  0.5252910000000  0.5983640000000  0.4680380000000 1.0
C      1  0.5371900000000  0.5586210000000  0.4799550000000 1.0
C      1  0.5202130000000  0.5341110000000  0.5954870000000 1.0
C      1  0.4251350000000  0.4569240000000  0.4541960000000 1.0
C      1  0.4919790000000  0.5220130000000  0.5700230000000 1.0
C      1  0.5254460000000  0.4565410000000  0.5835540000000 1.0
C      1  0.5321810000000  0.4887260000000  0.4501590000000 1.0
C      1  0.4586320000000  0.5311800000000  0.5926240000000 1.0
C      1  0.4313050000000  0.5846760000000  0.4689210000000 1.0
C      1  0.5487290000000  0.4369730000000  0.4412650000000 1.0
C      1  0.5018170000000  0.5132760000000  0.5323530000000 1.0
C      1  0.4648360000000  0.4529830000000  0.5904800000000 1.0
C      1  0.4446160000000  0.4416010000000  0.4340810000000 1.0
C      1  0.4901040000000  0.4387950000000  0.5366500000000 1.0
C      1  0.5312120000000  0.5404680000000  0.4074530000000 1.0
C      1  0.4576540000000  0.4628160000000  0.5060260000000 1.0
C      1  0.5331420000000  0.6112700000000  0.5329870000000 1.0
C      1  0.5140750000000  0.4816650000000  0.4875070000000 1.0
C      1  0.5050600000000  0.4440840000000  0.4978060000000 1.0
C      1  0.4778530000000  0.5476840000000  0.4570730000000 1.0
C      1  0.5105780000000  0.5987050000000  0.5446260000000 1.0
C      1  0.5143610000000  0.5616640000000  0.4154420000000 1.0
C      1  0.4677120000000  0.4161210000000  0.4335530000000 1.0
C      1  0.5534590000000  0.4209200000000  0.5466690000000 1.0
C      1  0.4612140000000  0.5986510000000  0.5340480000000 1.0
C      1  0.5602910000000  0.5030340000000  0.5888980000000 1.0
C      1  0.4178420000000  0.5483880000000  0.4590970000000 1.0
C      1  0.5225400000000  0.4700740000000  0.4161200000000 1.0
C      1  0.5429450000000  0.4725350000000  0.5481740000000 1.0
C      1  0.4142600000000  0.5372780000000  0.4999830000000 1.0
C      1  0.4579860000000  0.5762570000000  0.5545200000000 1.0
C      1  0.5329920000000  0.5067610000000  0.4918220000000 1.0
C      1  0.4880890000000  0.5679580000000  0.5682090000000 1.0
C      1  0.4782950000000  0.4718240000000  0.5550070000000 1.0
C      1  0.4169770000000  0.5042790000000  0.4328670000000 1.0
C      1  0.4819010000000  0.4830860000000  0.4977040000000 1.0
C      1  0.4542000000000  0.5637650000000  0.4281000000000 1.0
C      1  0.4637470000000  0.4796540000000  0.5934230000000 1.0
C      1  0.4446590000000  0.5044440000000  0.5529360000000 1.0
C      1  0.4124640000000  0.4671990000000  0.5317700000000 1.0
C      1  0.4763280000000  0.4555830000000  0.4537180000000 1.0
C      1  0.5262550000000  0.5111360000000  0.3942360000000 1.0
C      1  0.5659470000000  0.4689200000000  0.4734600000000 1.0
C      1  0.5276180000000  0.4245340000000  0.4211670000000 1.0
C      1  0.4624280000000  0.5307600000000  0.4243170000000 1.0
C      1  0.5399820000000  0.4677730000000  0.4955430000000 1.0
C      1  0.5037330000000  0.4966680000000  0.4235860000000 1.0
C      1  0.4324840000000  0.4873980000000  0.4568470000000 1.0
C      1  0.4718840000000  0.5000240000000  0.4257350000000 1.0
C      1  0.5385730000000  0.4454260000000  0.5189030000000 1.0
C      1  0.5552320000000  0.4386070000000  0.4729790000000 1.0
C      1  0.4132360000000  0.4338760000000  0.4747830000000 1.0
C      1  0.4888020000000  0.5859540000000  0.5313780000000 1.0
C      1  0.5754610000000  0.5893130000000  0.5115850000000 1.0
C      1  0.5728660000000  0.5425860000000  0.4487090000000 1.0
C      1  0.5924700000000  0.5015190000000  0.5451330000000 1.0
C      1  0.4234720000000  0.5133090000000  0.4773800000000 1.0
C      1  0.4787820000000  0.4032850000000  0.4563550000000 1.0
C      1  0.5288010000000  0.5819720000000  0.4324100000000 1.0
END
