TITL C-2778425-5191-212 -0.00471023638574905 125000 -573.144390631852 0 0 101 (C1) n - 1
REM
REM in /home/nfs/bkarasulu/CARBON/AIRSS/Generating-Clusters/REBO/Only-C1/SD-CG/HFTN-CG
REM
REM
REM
REM
REM
REM ./C.cell (11c1c37f851c82e70ff6c80c92926a4b)
REM
REM compiler GCC version 9.2.1 20190827 (Red Hat 9.2.1-1)
REM options -cpp -mtune=generic -march=x86-64 -g -O0 -fpre-include=/usr/include/finclude/math-vector-fortran.h
REM seed 663713554 -2074970511 -1460584033 -236802353 958891094 1395070565 965181030 2096183147 153310372 -1408884503 -1375809997 -1423129972 1117981391 707619013 -1154331856 -1566774885 -885231597 -1651891166 -1679927395 330365029 1359614725 -1582766871 1296315195 144384674 696063422 510344799 1856853557 86596841 -1181180319 568774396 1128487999 815464814 1846251676
REM
CELL 1.54180   50.00000   50.00000   50.00000   90.00000   90.00000   90.00000
LATT -1
SFAC C  
C      1  0.5456710000000  0.4461380000000  0.4964140000000 1.0
C      1  0.4890170000000  0.4892240000000  0.4009170000000 1.0
C      1  0.4537740000000  0.4703590000000  0.4841170000000 1.0
C      1  0.4596000000000  0.4711230000000  0.5767320000000 1.0
C      1  0.4764800000000  0.4924650000000  0.5720180000000 1.0
C      1  0.5027560000000  0.4647030000000  0.4593190000000 1.0
C      1  0.4798480000000  0.5872180000000  0.5059920000000 1.0
C      1  0.5632890000000  0.5423140000000  0.4933250000000 1.0
C      1  0.4388680000000  0.5453610000000  0.5105270000000 1.0
C      1  0.4442790000000  0.4453850000000  0.5063470000000 1.0
C      1  0.4834460000000  0.5554040000000  0.5748540000000 1.0
C      1  0.5395900000000  0.4976810000000  0.4129420000000 1.0
C      1  0.5311720000000  0.5158540000000  0.5058020000000 1.0
C      1  0.4320260000000  0.5216170000000  0.4676830000000 1.0
C      1  0.5101530000000  0.5026330000000  0.4963790000000 1.0
C      1  0.5649100000000  0.4530640000000  0.4413080000000 1.0
C      1  0.5051340000000  0.5824700000000  0.5247920000000 1.0
C      1  0.4348050000000  0.4536730000000  0.4598770000000 1.0
C      1  0.4611120000000  0.4455680000000  0.5557270000000 1.0
C      1  0.5664290000000  0.5093800000000  0.5757660000000 1.0
C      1  0.4704550000000  0.5240140000000  0.5766480000000 1.0
C      1  0.5204960000000  0.4476560000000  0.5468400000000 1.0
C      1  0.4198480000000  0.5247360000000  0.5145570000000 1.0
C      1  0.5562840000000  0.5555110000000  0.5297350000000 1.0
C      1  0.5494480000000  0.5243420000000  0.5552180000000 1.0
C      1  0.5024860000000  0.5338210000000  0.4262400000000 1.0
C      1  0.4444020000000  0.4322390000000  0.4785740000000 1.0
C      1  0.5131590000000  0.4831170000000  0.4396890000000 1.0
C      1  0.4824140000000  0.5066550000000  0.4978940000000 1.0
C      1  0.5751790000000  0.4808250000000  0.5651120000000 1.0
C      1  0.3883940000000  0.4996900000000  0.4840860000000 1.0
C      1  0.5299570000000  0.5457720000000  0.5151580000000 1.0
C      1  0.5810120000000  0.5368590000000  0.5345870000000 1.0
C      1  0.4371050000000  0.4823540000000  0.4125530000000 1.0
C      1  0.5862280000000  0.5096720000000  0.5501320000000 1.0
C      1  0.5092070000000  0.5152870000000  0.5802100000000 1.0
C      1  0.4704050000000  0.5763260000000  0.4567150000000 1.0
C      1  0.5376670000000  0.4402050000000  0.4313900000000 1.0
C      1  0.5597470000000  0.4760160000000  0.4881560000000 1.0
C      1  0.4650660000000  0.4873930000000  0.5183580000000 1.0
C      1  0.4644330000000  0.5119250000000  0.5393500000000 1.0
C      1  0.4790040000000  0.4203670000000  0.5456520000000 1.0
C      1  0.5700220000000  0.4480140000000  0.4728110000000 1.0
C      1  0.5130290000000  0.5116190000000  0.4452430000000 1.0
C      1  0.5460970000000  0.4787300000000  0.4379420000000 1.0
C      1  0.4767970000000  0.4476020000000  0.4234890000000 1.0
C      1  0.4370240000000  0.5572940000000  0.5630810000000 1.0
C      1  0.5441110000000  0.5426480000000  0.4739340000000 1.0
C      1  0.4896020000000  0.5533160000000  0.4421270000000 1.0
C      1  0.5085670000000  0.4924670000000  0.5958070000000 1.0
C      1  0.5889710000000  0.4958060000000  0.4695250000000 1.0
C      1  0.5766080000000  0.4810960000000  0.5239100000000 1.0
C      1  0.4599960000000  0.5041380000000  0.4112640000000 1.0
C      1  0.4803840000000  0.4621960000000  0.5037410000000 1.0
C      1  0.4348480000000  0.4837410000000  0.5346730000000 1.0
C      1  0.5000310000000  0.4666060000000  0.5938230000000 1.0
C      1  0.4744190000000  0.5333590000000  0.4969680000000 1.0
C      1  0.4447910000000  0.4557410000000  0.5318890000000 1.0
C      1  0.4847090000000  0.5229590000000  0.4004870000000 1.0
C      1  0.5120730000000  0.4585450000000  0.5157380000000 1.0
C      1  0.5062610000000  0.4202660000000  0.4696360000000 1.0
C      1  0.5221640000000  0.4520430000000  0.4106170000000 1.0
C      1  0.4454450000000  0.4918080000000  0.4619560000000 1.0
C      1  0.5004310000000  0.4835910000000  0.5576740000000 1.0
C      1  0.5002970000000  0.5494720000000  0.5313980000000 1.0
C      1  0.5576220000000  0.5161880000000  0.5229480000000 1.0
C      1  0.4953230000000  0.4609070000000  0.4066540000000 1.0
C      1  0.5474110000000  0.4616240000000  0.5607460000000 1.0
C      1  0.4569290000000  0.5459340000000  0.4480910000000 1.0
C      1  0.4105840000000  0.5150720000000  0.4893060000000 1.0
C      1  0.5215000000000  0.5805680000000  0.5510300000000 1.0
C      1  0.5241270000000  0.4246760000000  0.4507560000000 1.0
C      1  0.5836070000000  0.4792130000000  0.4519000000000 1.0
C      1  0.4246310000000  0.5097250000000  0.5381920000000 1.0
C      1  0.5517960000000  0.4779310000000  0.5330090000000 1.0
C      1  0.4928990000000  0.4521470000000  0.5654060000000 1.0
C      1  0.4408170000000  0.5259860000000  0.5600970000000 1.0
C      1  0.5781380000000  0.5015670000000  0.4997120000000 1.0
C      1  0.4725430000000  0.4251110000000  0.4713110000000 1.0
C      1  0.4831200000000  0.4468370000000  0.4508650000000 1.0
C      1  0.4684410000000  0.5658960000000  0.4947980000000 1.0
C      1  0.5317720000000  0.5192410000000  0.4659640000000 1.0
C      1  0.4670080000000  0.5432610000000  0.5276480000000 1.0
C      1  0.4909000000000  0.4302860000000  0.4978610000000 1.0
C      1  0.4932400000000  0.5246490000000  0.5512610000000 1.0
C      1  0.5397490000000  0.4896130000000  0.4686220000000 1.0
C      1  0.5157010000000  0.5097730000000  0.4054570000000 1.0
C      1  0.4500770000000  0.5162120000000  0.4388200000000 1.0
C      1  0.5270920000000  0.5364310000000  0.5686040000000 1.0
C      1  0.5001940000000  0.5685370000000  0.4707510000000 1.0
C      1  0.5109660000000  0.5603920000000  0.5683110000000 1.0
C      1  0.5260980000000  0.4869910000000  0.5494000000000 1.0
C      1  0.5371950000000  0.4255270000000  0.5162140000000 1.0
C      1  0.5388170000000  0.5660030000000  0.4608400000000 1.0
C      1  0.4441340000000  0.5508430000000  0.4781570000000 1.0
C      1  0.5496080000000  0.5780580000000  0.5459750000000 1.0
C      1  0.5212290000000  0.4661120000000  0.4850320000000 1.0
C      1  0.5009840000000  0.4276950000000  0.5281980000000 1.0
C      1  0.4598750000000  0.5714670000000  0.5700670000000 1.0
C      1  0.5127460000000  0.5672020000000  0.4952560000000 1.0
C      1  0.4316930000000  0.4728510000000  0.4373180000000 1.0
END
