TITL C-2778433-5640-598 -0.00125810185856862 125000 -430.715542154208 0 0 77 (C1) n - 1
REM
REM in /home/nfs/bkarasulu/CARBON/AIRSS/Generating-Clusters/REBO/Only-C1/SD-CG/HFTN-CG
REM
REM
REM
REM
REM
REM ./C.cell (11c1c37f851c82e70ff6c80c92926a4b)
REM
REM compiler GCC version 9.2.1 20190827 (Red Hat 9.2.1-1)
REM options -cpp -mtune=generic -march=x86-64 -g -O0 -fpre-include=/usr/include/finclude/math-vector-fortran.h
REM seed -569086953 2115375707 -1716441512 1502848202 2041359031 161465296 1952833578 -1991361822 1516734071 716746327 1938401368 -2069011654 1887589242 -50648033 475709779 1131535349 2005174579 2072135211 -1742597806 -358183326 1740073364 313683404 -1866353475 1391391439 -1706142758 443295679 1312946381 -1459135716 -303050577 1819382950 2047155189 -1879980429 110536364
REM
CELL 1.54180   50.00000   50.00000   50.00000   90.00000   90.00000   90.00000
LATT -1
SFAC C  
C      1  0.4419700000000  0.5073540000000  0.5663200000000 1.0
C      1  0.4864430000000  0.4786870000000  0.4722170000000 1.0
C      1  0.5326900000000  0.5745050000000  0.5012850000000 1.0
C      1  0.4878780000000  0.5052130000000  0.4563470000000 1.0
C      1  0.5082590000000  0.4292290000000  0.5484430000000 1.0
C      1  0.5422580000000  0.5519170000000  0.5514030000000 1.0
C      1  0.4740030000000  0.5186100000000  0.4959370000000 1.0
C      1  0.4569320000000  0.4602360000000  0.5695270000000 1.0
C      1  0.5283980000000  0.4795260000000  0.5909860000000 1.0
C      1  0.4881060000000  0.4810330000000  0.4246810000000 1.0
C      1  0.5816130000000  0.5528640000000  0.4940020000000 1.0
C      1  0.5078760000000  0.4555080000000  0.4724090000000 1.0
C      1  0.5507890000000  0.4364030000000  0.4868280000000 1.0
C      1  0.4205510000000  0.5309480000000  0.4909310000000 1.0
C      1  0.5644200000000  0.5404410000000  0.4687770000000 1.0
C      1  0.5611280000000  0.4530300000000  0.5454030000000 1.0
C      1  0.5027750000000  0.5680900000000  0.5081910000000 1.0
C      1  0.5529760000000  0.4701080000000  0.4571330000000 1.0
C      1  0.5463100000000  0.5088930000000  0.5291860000000 1.0
C      1  0.4537010000000  0.4886780000000  0.5127180000000 1.0
C      1  0.4858790000000  0.4887310000000  0.5016320000000 1.0
C      1  0.5056610000000  0.4729520000000  0.5195460000000 1.0
C      1  0.4755180000000  0.4318710000000  0.4538750000000 1.0
C      1  0.4685230000000  0.5396740000000  0.5473510000000 1.0
C      1  0.4916700000000  0.4964230000000  0.5537480000000 1.0
C      1  0.4882870000000  0.5212650000000  0.5390040000000 1.0
C      1  0.4973420000000  0.5309330000000  0.4615500000000 1.0
C      1  0.5308790000000  0.4537530000000  0.5439190000000 1.0
C      1  0.4491380000000  0.5221710000000  0.5171420000000 1.0
C      1  0.4555520000000  0.5269360000000  0.4469170000000 1.0
C      1  0.4654620000000  0.5640520000000  0.4755570000000 1.0
C      1  0.5320570000000  0.5238760000000  0.5042330000000 1.0
C      1  0.4311760000000  0.5068660000000  0.5401660000000 1.0
C      1  0.5194280000000  0.4328990000000  0.5186920000000 1.0
C      1  0.5179080000000  0.5260150000000  0.4276310000000 1.0
C      1  0.5797750000000  0.4786840000000  0.4739180000000 1.0
C      1  0.4685150000000  0.5045990000000  0.4306720000000 1.0
C      1  0.5236810000000  0.4351440000000  0.4917710000000 1.0
C      1  0.4914860000000  0.4540230000000  0.5374870000000 1.0
C      1  0.4904490000000  0.5447880000000  0.4889670000000 1.0
C      1  0.5656890000000  0.5075520000000  0.4627200000000 1.0
C      1  0.4963320000000  0.5497790000000  0.4361010000000 1.0
C      1  0.5363550000000  0.5327300000000  0.4542490000000 1.0
C      1  0.4459920000000  0.4239780000000  0.5030350000000 1.0
C      1  0.5197680000000  0.5579110000000  0.5352660000000 1.0
C      1  0.5275580000000  0.5106450000000  0.4772760000000 1.0
C      1  0.5618790000000  0.4609860000000  0.4969210000000 1.0
C      1  0.4660420000000  0.4892800000000  0.5747970000000 1.0
C      1  0.4639160000000  0.4509410000000  0.5449070000000 1.0
C      1  0.5422550000000  0.5989690000000  0.4996470000000 1.0
C      1  0.4486350000000  0.5196470000000  0.4752250000000 1.0
C      1  0.4249600000000  0.4761460000000  0.5268030000000 1.0
C      1  0.4565070000000  0.4659360000000  0.4624480000000 1.0
C      1  0.5866090000000  0.4524210000000  0.5466540000000 1.0
C      1  0.5142480000000  0.4924610000000  0.4228500000000 1.0
C      1  0.4459710000000  0.5506980000000  0.5002070000000 1.0
C      1  0.4703660000000  0.5732820000000  0.5081300000000 1.0
C      1  0.4143070000000  0.5038500000000  0.5105100000000 1.0
C      1  0.5272950000000  0.4834150000000  0.4694740000000 1.0
C      1  0.4978810000000  0.4876580000000  0.5855240000000 1.0
C      1  0.4439600000000  0.4512600000000  0.5228260000000 1.0
C      1  0.5187370000000  0.4766080000000  0.5595740000000 1.0
C      1  0.4587170000000  0.5625700000000  0.5361990000000 1.0
C      1  0.4587560000000  0.4604410000000  0.4943770000000 1.0
C      1  0.5607600000000  0.4977240000000  0.4949700000000 1.0
C      1  0.5384690000000  0.4799860000000  0.5139410000000 1.0
C      1  0.4275200000000  0.4770440000000  0.4617150000000 1.0
C      1  0.4790230000000  0.4580220000000  0.4387990000000 1.0
C      1  0.5484210000000  0.5493640000000  0.4969260000000 1.0
C      1  0.5424330000000  0.5032640000000  0.4382610000000 1.0
C      1  0.5086650000000  0.5318140000000  0.5235980000000 1.0
C      1  0.4229820000000  0.4994020000000  0.4779800000000 1.0
C      1  0.4630670000000  0.4302580000000  0.4790890000000 1.0
C      1  0.4676560000000  0.5528670000000  0.4464650000000 1.0
C      1  0.6040080000000  0.5600210000000  0.5041160000000 1.0
C      1  0.5528760000000  0.5260650000000  0.5494120000000 1.0
C      1  0.5339250000000  0.4480730000000  0.4525070000000 1.0
END
