TITL C-2778422-5617-983 -0.0052586327855373 125000 -762.012869260554 0 0 131 (C1) n - 1
REM
REM in /home/nfs/bkarasulu/CARBON/AIRSS/Generating-Clusters/REBO/Only-C1/SD-CG/HFTN-CG
REM
REM
REM
REM
REM
REM ./C.cell (11c1c37f851c82e70ff6c80c92926a4b)
REM
REM compiler GCC version 9.2.1 20190827 (Red Hat 9.2.1-1)
REM options -cpp -mtune=generic -march=x86-64 -g -O0 -fpre-include=/usr/include/finclude/math-vector-fortran.h
REM seed -1004021238 -265713647 -1497893230 -818954907 -1582825356 621179888 -885798335 -1122077773 1309291593 1226604437 984992038 1751937918 1949874685 1744541619 1084357257 -791386095 59873726 -1754472620 -1909781826 1692484401 -474431187 -1433027036 211950384 233012262 2089194116 1778111739 576241880 1916639817 -106017100 -296730971 -1814263606 1218238970 338275259
REM
CELL 1.54180   50.00000   50.00000   50.00000   90.00000   90.00000   90.00000
LATT -1
SFAC C  
C      1  0.5089650000000  0.4854410000000  0.4038380000000 1.0
C      1  0.4637470000000  0.5743260000000  0.6112740000000 1.0
C      1  0.5469300000000  0.5058550000000  0.4286570000000 1.0
C      1  0.4270310000000  0.5562960000000  0.5004390000000 1.0
C      1  0.5423750000000  0.4573630000000  0.4408450000000 1.0
C      1  0.5441780000000  0.4625220000000  0.4952370000000 1.0
C      1  0.4161990000000  0.5464650000000  0.4555940000000 1.0
C      1  0.4994780000000  0.5595400000000  0.4663010000000 1.0
C      1  0.5235530000000  0.4371780000000  0.4947520000000 1.0
C      1  0.3927870000000  0.4870730000000  0.5583310000000 1.0
C      1  0.5978770000000  0.4930430000000  0.5152600000000 1.0
C      1  0.4795720000000  0.4481520000000  0.5141430000000 1.0
C      1  0.4745200000000  0.4647610000000  0.5797070000000 1.0
C      1  0.4465690000000  0.5679980000000  0.5159450000000 1.0
C      1  0.4286020000000  0.4579580000000  0.5428620000000 1.0
C      1  0.4271920000000  0.5075370000000  0.5282880000000 1.0
C      1  0.4129370000000  0.4353260000000  0.5466400000000 1.0
C      1  0.4025530000000  0.5225170000000  0.4732140000000 1.0
C      1  0.5631430000000  0.5292230000000  0.5585470000000 1.0
C      1  0.5306300000000  0.5154890000000  0.5016980000000 1.0
C      1  0.4885990000000  0.4008430000000  0.5001540000000 1.0
C      1  0.4893750000000  0.5924170000000  0.5058890000000 1.0
C      1  0.5459830000000  0.5082000000000  0.5790540000000 1.0
C      1  0.4730040000000  0.4801950000000  0.5487220000000 1.0
C      1  0.5678990000000  0.4753230000000  0.5731320000000 1.0
C      1  0.4518640000000  0.4902310000000  0.4569880000000 1.0
C      1  0.5440720000000  0.5550890000000  0.4360150000000 1.0
C      1  0.5142450000000  0.4339760000000  0.4084630000000 1.0
C      1  0.5372630000000  0.4129710000000  0.4815510000000 1.0
C      1  0.5614300000000  0.5675720000000  0.5164350000000 1.0
C      1  0.4501330000000  0.4404250000000  0.4988560000000 1.0
C      1  0.4453720000000  0.5770970000000  0.5913850000000 1.0
C      1  0.5935170000000  0.4824440000000  0.4669030000000 1.0
C      1  0.5056530000000  0.5449880000000  0.4363180000000 1.0
C      1  0.5796620000000  0.5525390000000  0.5009540000000 1.0
C      1  0.4453770000000  0.5691310000000  0.5658570000000 1.0
C      1  0.5359460000000  0.5214480000000  0.5303350000000 1.0
C      1  0.4725590000000  0.4059470000000  0.5304600000000 1.0
C      1  0.5121450000000  0.4863990000000  0.5514330000000 1.0
C      1  0.4992210000000  0.4367350000000  0.5679030000000 1.0
C      1  0.5022520000000  0.5076740000000  0.4502710000000 1.0
C      1  0.5799590000000  0.5600900000000  0.4730020000000 1.0
C      1  0.4363040000000  0.5220680000000  0.4800670000000 1.0
C      1  0.5342020000000  0.4736860000000  0.4644400000000 1.0
C      1  0.4879190000000  0.5623460000000  0.6088300000000 1.0
C      1  0.4979830000000  0.4808600000000  0.4340910000000 1.0
C      1  0.4664320000000  0.5663520000000  0.4709300000000 1.0
C      1  0.4156140000000  0.4750350000000  0.4840350000000 1.0
C      1  0.4649140000000  0.5811750000000  0.4992590000000 1.0
C      1  0.4541780000000  0.4854900000000  0.5835950000000 1.0
C      1  0.4616420000000  0.4061020000000  0.4797530000000 1.0
C      1  0.4934940000000  0.4752700000000  0.5051160000000 1.0
C      1  0.5808280000000  0.4856210000000  0.5506060000000 1.0
C      1  0.4776880000000  0.5261830000000  0.4408520000000 1.0
C      1  0.5623110000000  0.4509840000000  0.5178360000000 1.0
C      1  0.4622990000000  0.5342780000000  0.4678890000000 1.0
C      1  0.5200820000000  0.4583260000000  0.4206240000000 1.0
C      1  0.5219420000000  0.5753300000000  0.4374290000000 1.0
C      1  0.5120790000000  0.5562730000000  0.5612940000000 1.0
C      1  0.4535270000000  0.4178110000000  0.4511010000000 1.0
C      1  0.5113520000000  0.5822760000000  0.4879540000000 1.0
C      1  0.5103130000000  0.6267180000000  0.4453700000000 1.0
C      1  0.5936910000000  0.5817980000000  0.4641000000000 1.0
C      1  0.5017340000000  0.4273240000000  0.5136430000000 1.0
C      1  0.4508190000000  0.4097750000000  0.5097560000000 1.0
C      1  0.5823720000000  0.4679870000000  0.5268610000000 1.0
C      1  0.5817000000000  0.5142530000000  0.5409730000000 1.0
C      1  0.4052140000000  0.4927470000000  0.4632530000000 1.0
C      1  0.4245360000000  0.4920610000000  0.4423810000000 1.0
C      1  0.5030490000000  0.4067510000000  0.4513980000000 1.0
C      1  0.5262580000000  0.5267550000000  0.5996540000000 1.0
C      1  0.6109450000000  0.4836820000000  0.4900090000000 1.0
C      1  0.4500310000000  0.5225470000000  0.5423380000000 1.0
C      1  0.4333690000000  0.4945710000000  0.5000520000000 1.0
C      1  0.5560080000000  0.4447880000000  0.5700260000000 1.0
C      1  0.4889120000000  0.5006690000000  0.5709070000000 1.0
C      1  0.4678840000000  0.4610630000000  0.4781520000000 1.0
C      1  0.4292000000000  0.4510000000000  0.4768950000000 1.0
C      1  0.5291990000000  0.5332550000000  0.3908140000000 1.0
C      1  0.5160330000000  0.6014420000000  0.4414640000000 1.0
C      1  0.5352870000000  0.5009640000000  0.5496610000000 1.0
C      1  0.4330550000000  0.5611430000000  0.4727530000000 1.0
C      1  0.5800920000000  0.4698730000000  0.4451260000000 1.0
C      1  0.5330930000000  0.5671270000000  0.5075030000000 1.0
C      1  0.5059710000000  0.4636360000000  0.5882080000000 1.0
C      1  0.4403660000000  0.5388250000000  0.4108580000000 1.0
C      1  0.5053130000000  0.5501620000000  0.5928920000000 1.0
C      1  0.4573940000000  0.5106320000000  0.5691580000000 1.0
C      1  0.4754610000000  0.4280650000000  0.5484800000000 1.0
C      1  0.5483620000000  0.4340010000000  0.5386580000000 1.0
C      1  0.5666160000000  0.4414820000000  0.4484010000000 1.0
C      1  0.5767950000000  0.5045570000000  0.4833980000000 1.0
C      1  0.5610530000000  0.5460240000000  0.4568540000000 1.0
C      1  0.5153900000000  0.4245410000000  0.5398610000000 1.0
C      1  0.5415540000000  0.5476680000000  0.5775690000000 1.0
C      1  0.4781790000000  0.5262650000000  0.5237110000000 1.0
C      1  0.5220750000000  0.5443370000000  0.4869780000000 1.0
C      1  0.4367120000000  0.4412710000000  0.4503340000000 1.0
C      1  0.5081960000000  0.4611340000000  0.4778800000000 1.0
C      1  0.4618070000000  0.4923420000000  0.4876880000000 1.0
C      1  0.5081650000000  0.5772530000000  0.5274590000000 1.0
C      1  0.5494930000000  0.4938780000000  0.4944540000000 1.0
C      1  0.5261720000000  0.4511850000000  0.5562540000000 1.0
C      1  0.4894990000000  0.5534280000000  0.5393250000000 1.0
C      1  0.4737440000000  0.4690320000000  0.4454820000000 1.0
C      1  0.4128280000000  0.5281720000000  0.5053180000000 1.0
C      1  0.4164960000000  0.4835990000000  0.5443150000000 1.0
C      1  0.4583030000000  0.4540080000000  0.5401300000000 1.0
C      1  0.5683850000000  0.5802990000000  0.5399720000000 1.0
C      1  0.5674230000000  0.4879740000000  0.4261890000000 1.0
C      1  0.5601210000000  0.4194280000000  0.4655310000000 1.0
C      1  0.5856060000000  0.5238450000000  0.5088540000000 1.0
C      1  0.4814620000000  0.4317700000000  0.4759020000000 1.0
C      1  0.4781870000000  0.4200540000000  0.4370180000000 1.0
C      1  0.5184580000000  0.5956550000000  0.5496510000000 1.0
C      1  0.4835260000000  0.4937310000000  0.5229820000000 1.0
C      1  0.4565220000000  0.5549160000000  0.5410920000000 1.0
C      1  0.5397650000000  0.4668350000000  0.5902610000000 1.0
C      1  0.5316030000000  0.5313060000000  0.4185680000000 1.0
C      1  0.4772360000000  0.5183890000000  0.4923230000000 1.0
C      1  0.5123660000000  0.3977920000000  0.4766650000000 1.0
C      1  0.4207130000000  0.5471970000000  0.4280350000000 1.0
C      1  0.4585810000000  0.5179850000000  0.4177670000000 1.0
C      1  0.4462450000000  0.4612460000000  0.4300740000000 1.0
C      1  0.5014770000000  0.4408610000000  0.4512740000000 1.0
C      1  0.5048600000000  0.5167460000000  0.4808940000000 1.0
C      1  0.5563530000000  0.5197360000000  0.4649330000000 1.0
C      1  0.5394850000000  0.5490620000000  0.5439950000000 1.0
C      1  0.5156220000000  0.4964030000000  0.5899670000000 1.0
C      1  0.4457360000000  0.4917720000000  0.4179050000000 1.0
C      1  0.5323700000000  0.5019440000000  0.4560410000000 1.0
END
