TITL C-2778433-5640-771 -0.0010330346904423 125000 -283.409867361449 0 0 50 (C1) n - 1
REM
REM in /home/nfs/bkarasulu/CARBON/AIRSS/Generating-Clusters/REBO/Only-C1/SD-CG/HFTN-CG
REM
REM
REM
REM
REM
REM ./C.cell (11c1c37f851c82e70ff6c80c92926a4b)
REM
REM compiler GCC version 9.2.1 20190827 (Red Hat 9.2.1-1)
REM options -cpp -mtune=generic -march=x86-64 -g -O0 -fpre-include=/usr/include/finclude/math-vector-fortran.h
REM seed 816463447 -1554421863 -36358501 1768637930 667575156 709839205 1840335769 -1724927373 -2089980862 1928651960 -340198411 -1090163676 -320833128 1489913865 -1191613981 1749718407 1995523473 549356043 -510831363 1222113767 298201449 2000332466 -1150648837 -2021757226 586669713 248356533 -1399149394 623742596 -860476802 -1058249954 1064255873 -1849152735 555683071
REM
CELL 1.54180   50.00000   50.00000   50.00000   90.00000   90.00000   90.00000
LATT -1
SFAC C  
C      1  0.4144480000000  0.4663900000000  0.4905680000000 1.0
C      1  0.5166860000000  0.4919530000000  0.5165700000000 1.0
C      1  0.5316650000000  0.4412620000000  0.5395260000000 1.0
C      1  0.4554110000000  0.5054520000000  0.5499260000000 1.0
C      1  0.5311910000000  0.4725500000000  0.4595270000000 1.0
C      1  0.4807900000000  0.5614590000000  0.5155980000000 1.0
C      1  0.4646740000000  0.5421220000000  0.4926220000000 1.0
C      1  0.4587190000000  0.5378490000000  0.5537930000000 1.0
C      1  0.5489690000000  0.5372270000000  0.5313870000000 1.0
C      1  0.5152210000000  0.4208960000000  0.5382450000000 1.0
C      1  0.5621620000000  0.4794070000000  0.4706540000000 1.0
C      1  0.4544550000000  0.4462400000000  0.5137330000000 1.0
C      1  0.5593580000000  0.5108000000000  0.5291960000000 1.0
C      1  0.4844960000000  0.4556400000000  0.4550020000000 1.0
C      1  0.4845580000000  0.5074050000000  0.4666640000000 1.0
C      1  0.5141860000000  0.5232730000000  0.4640140000000 1.0
C      1  0.5188420000000  0.5245840000000  0.5657270000000 1.0
C      1  0.4081050000000  0.4927530000000  0.4876040000000 1.0
C      1  0.5204930000000  0.4987770000000  0.4178390000000 1.0
C      1  0.4702920000000  0.4721920000000  0.4335430000000 1.0
C      1  0.4755420000000  0.4628370000000  0.5235720000000 1.0
C      1  0.5791600000000  0.5070110000000  0.5081320000000 1.0
C      1  0.6058190000000  0.5044860000000  0.5120140000000 1.0
C      1  0.5075240000000  0.5184720000000  0.5174630000000 1.0
C      1  0.5652190000000  0.5038890000000  0.4830560000000 1.0
C      1  0.4681500000000  0.4817540000000  0.5433010000000 1.0
C      1  0.4398980000000  0.4539460000000  0.4903840000000 1.0
C      1  0.4822040000000  0.5498390000000  0.5425720000000 1.0
C      1  0.4982930000000  0.5348670000000  0.4920790000000 1.0
C      1  0.4474080000000  0.5183590000000  0.4421170000000 1.0
C      1  0.5049890000000  0.5316060000000  0.5426720000000 1.0
C      1  0.5739280000000  0.4603750000000  0.5520930000000 1.0
C      1  0.4377630000000  0.5269000000000  0.5325440000000 1.0
C      1  0.5492120000000  0.4629930000000  0.5408930000000 1.0
C      1  0.4780190000000  0.4849870000000  0.4811690000000 1.0
C      1  0.4185560000000  0.5176840000000  0.4900350000000 1.0
C      1  0.5222140000000  0.4970550000000  0.4440900000000 1.0
C      1  0.5583080000000  0.4522080000000  0.4556160000000 1.0
C      1  0.5074160000000  0.4596240000000  0.4726800000000 1.0
C      1  0.4378450000000  0.5316030000000  0.5048990000000 1.0
C      1  0.5319020000000  0.5179640000000  0.5874620000000 1.0
C      1  0.4577010000000  0.4640710000000  0.4705840000000 1.0
C      1  0.4980530000000  0.4720130000000  0.5030110000000 1.0
C      1  0.5129260000000  0.5463100000000  0.4454260000000 1.0
C      1  0.5340350000000  0.5576700000000  0.5213490000000 1.0
C      1  0.5409070000000  0.4879720000000  0.5304030000000 1.0
C      1  0.4541070000000  0.4941470000000  0.4301580000000 1.0
C      1  0.5106530000000  0.5621870000000  0.5064000000000 1.0
C      1  0.5441480000000  0.5222660000000  0.4780430000000 1.0
C      1  0.4633830000000  0.5266730000000  0.4640470000000 1.0
END
