TITL C-2778433-5640-147 0.000267965474734621 125000 -885.278495107075 0 0 148 (C1) n - 1
REM
REM in /home/nfs/bkarasulu/CARBON/AIRSS/Generating-Clusters/REBO/Only-C1/SD-CG/HFTN-CG
REM
REM
REM
REM
REM
REM ./C.cell (11c1c37f851c82e70ff6c80c92926a4b)
REM
REM compiler GCC version 9.2.1 20190827 (Red Hat 9.2.1-1)
REM options -cpp -mtune=generic -march=x86-64 -g -O0 -fpre-include=/usr/include/finclude/math-vector-fortran.h
REM seed -1258003859 1381951753 -481419809 1721946249 -1855847230 -246742873 -2032584866 244921369 1713038024 -363774277 -882053605 -1127231934 -151173034 246802943 953897868 -2094003962 499930519 -1717642617 235713660 1972650292 -1571690061 1803398943 876420485 -1106104542 -2129252031 -1325298603 1696533422 724356469 995955562 817680912 149094413 1927964671 -594286224
REM
CELL 1.54180   50.00000   50.00000   50.00000   90.00000   90.00000   90.00000
LATT -1
SFAC C  
C      1  0.5101740000000  0.5171720000000  0.5537920000000 1.0
C      1  0.4939780000000  0.5561800000000  0.5262830000000 1.0
C      1  0.5814120000000  0.5529140000000  0.4841550000000 1.0
C      1  0.4423890000000  0.4941120000000  0.5096510000000 1.0
C      1  0.4538310000000  0.5912750000000  0.5310710000000 1.0
C      1  0.5273020000000  0.5661710000000  0.4587860000000 1.0
C      1  0.4157320000000  0.5351820000000  0.5709190000000 1.0
C      1  0.5460010000000  0.4611800000000  0.5834920000000 1.0
C      1  0.4592950000000  0.4313300000000  0.4315770000000 1.0
C      1  0.4156440000000  0.5188670000000  0.4268960000000 1.0
C      1  0.5365730000000  0.5378980000000  0.5529210000000 1.0
C      1  0.4000470000000  0.4614130000000  0.4674930000000 1.0
C      1  0.4909800000000  0.4930960000000  0.4714470000000 1.0
C      1  0.4439370000000  0.5597700000000  0.5225640000000 1.0
C      1  0.4134850000000  0.5546600000000  0.4711270000000 1.0
C      1  0.4573750000000  0.6103530000000  0.5071230000000 1.0
C      1  0.4226960000000  0.4532110000000  0.5628150000000 1.0
C      1  0.5931710000000  0.4924100000000  0.4662440000000 1.0
C      1  0.5433660000000  0.4663350000000  0.5336940000000 1.0
C      1  0.5786580000000  0.5167030000000  0.4682910000000 1.0
C      1  0.5159760000000  0.4460410000000  0.5364020000000 1.0
C      1  0.4574510000000  0.4618330000000  0.4195740000000 1.0
C      1  0.4565100000000  0.5801260000000  0.4648240000000 1.0
C      1  0.5539960000000  0.5354800000000  0.5255970000000 1.0
C      1  0.6416810000000  0.5306270000000  0.5292120000000 1.0
C      1  0.5661110000000  0.5018000000000  0.4274630000000 1.0
C      1  0.4189810000000  0.5423190000000  0.5188730000000 1.0
C      1  0.5163540000000  0.4790930000000  0.6030330000000 1.0
C      1  0.5656230000000  0.5108270000000  0.5441230000000 1.0
C      1  0.4462450000000  0.4801670000000  0.4407120000000 1.0
C      1  0.4315940000000  0.4695480000000  0.5389050000000 1.0
C      1  0.5171410000000  0.5323700000000  0.4295340000000 1.0
C      1  0.4243680000000  0.5639600000000  0.4474480000000 1.0
C      1  0.6201530000000  0.5245040000000  0.5136990000000 1.0
C      1  0.5258770000000  0.5660630000000  0.5563970000000 1.0
C      1  0.4859560000000  0.4155560000000  0.4461890000000 1.0
C      1  0.5702000000000  0.5274050000000  0.4412560000000 1.0
C      1  0.5645610000000  0.5999330000000  0.4838710000000 1.0
C      1  0.4768340000000  0.5571980000000  0.5703980000000 1.0
C      1  0.5303120000000  0.4624240000000  0.4635380000000 1.0
C      1  0.4913710000000  0.4925780000000  0.5597720000000 1.0
C      1  0.4950570000000  0.4343060000000  0.4989870000000 1.0
C      1  0.6061860000000  0.4991410000000  0.5171530000000 1.0
C      1  0.5585470000000  0.5945430000000  0.4312330000000 1.0
C      1  0.5000200000000  0.5546280000000  0.4227120000000 1.0
C      1  0.5147270000000  0.4000800000000  0.5046480000000 1.0
C      1  0.4906480000000  0.4914570000000  0.6053890000000 1.0
C      1  0.4620890000000  0.4763250000000  0.4671930000000 1.0
C      1  0.4660850000000  0.5291670000000  0.5842920000000 1.0
C      1  0.4623480000000  0.5015640000000  0.5670300000000 1.0
C      1  0.4966560000000  0.4119220000000  0.5623510000000 1.0
C      1  0.5864450000000  0.4670770000000  0.5515810000000 1.0
C      1  0.4171320000000  0.5218390000000  0.5439010000000 1.0
C      1  0.5305400000000  0.4705630000000  0.4931540000000 1.0
C      1  0.4431670000000  0.4998440000000  0.5439350000000 1.0
C      1  0.5648080000000  0.5259920000000  0.4968140000000 1.0
C      1  0.4129280000000  0.5032150000000  0.5185660000000 1.0
C      1  0.4504950000000  0.5679200000000  0.5549820000000 1.0
C      1  0.4842040000000  0.5807690000000  0.5379880000000 1.0
C      1  0.4694920000000  0.4790510000000  0.5902710000000 1.0
C      1  0.5680720000000  0.4568300000000  0.4432800000000 1.0
C      1  0.4319680000000  0.4324840000000  0.5242230000000 1.0
C      1  0.5704140000000  0.4714860000000  0.4915630000000 1.0
C      1  0.5190110000000  0.5077390000000  0.4840180000000 1.0
C      1  0.5219720000000  0.4124420000000  0.4791680000000 1.0
C      1  0.4923550000000  0.5760950000000  0.4987940000000 1.0
C      1  0.5005800000000  0.4497400000000  0.4019690000000 1.0
C      1  0.4641590000000  0.4497400000000  0.5895850000000 1.0
C      1  0.5267420000000  0.4468330000000  0.3961700000000 1.0
C      1  0.6000540000000  0.4836110000000  0.4938230000000 1.0
C      1  0.4701130000000  0.5186810000000  0.4128980000000 1.0
C      1  0.5015420000000  0.4603500000000  0.5637040000000 1.0
C      1  0.4983880000000  0.5291570000000  0.5278740000000 1.0
C      1  0.5172320000000  0.4196570000000  0.4524990000000 1.0
C      1  0.5126590000000  0.5330780000000  0.6022940000000 1.0
C      1  0.4465930000000  0.5105350000000  0.4315670000000 1.0
C      1  0.4461100000000  0.4717390000000  0.4924840000000 1.0
C      1  0.4747250000000  0.5934220000000  0.4457830000000 1.0
C      1  0.5466080000000  0.6098000000000  0.4662110000000 1.0
C      1  0.4623060000000  0.4135590000000  0.5064680000000 1.0
C      1  0.4149630000000  0.4871130000000  0.4370920000000 1.0
C      1  0.4092740000000  0.5351430000000  0.4923320000000 1.0
C      1  0.4757490000000  0.5974560000000  0.4854390000000 1.0
C      1  0.4801930000000  0.4713830000000  0.4049680000000 1.0
C      1  0.4000980000000  0.5091060000000  0.4812050000000 1.0
C      1  0.3998850000000  0.4804890000000  0.4885250000000 1.0
C      1  0.5442600000000  0.4567620000000  0.4190610000000 1.0
C      1  0.5633600000000  0.4244510000000  0.4837540000000 1.0
C      1  0.5043040000000  0.5800590000000  0.4402110000000 1.0
C      1  0.4626360000000  0.5495070000000  0.5012080000000 1.0
C      1  0.4393850000000  0.5479130000000  0.5779230000000 1.0
C      1  0.5894880000000  0.4951090000000  0.5412080000000 1.0
C      1  0.5306890000000  0.5214420000000  0.5799700000000 1.0
C      1  0.5160590000000  0.4494330000000  0.5910360000000 1.0
C      1  0.3979370000000  0.5100960000000  0.4523380000000 1.0
C      1  0.4620830000000  0.5310320000000  0.4515790000000 1.0
C      1  0.5210510000000  0.5614320000000  0.4899590000000 1.0
C      1  0.4732050000000  0.5470860000000  0.4167860000000 1.0
C      1  0.5290870000000  0.4370770000000  0.4997970000000 1.0
C      1  0.4655300000000  0.4239380000000  0.5671650000000 1.0
C      1  0.4881760000000  0.5237290000000  0.4646240000000 1.0
C      1  0.5335660000000  0.5813320000000  0.5351310000000 1.0
C      1  0.5171180000000  0.5060050000000  0.4166480000000 1.0
C      1  0.4899440000000  0.4985460000000  0.4083130000000 1.0
C      1  0.4534170000000  0.5536140000000  0.4728760000000 1.0
C      1  0.4462860000000  0.4228550000000  0.4778960000000 1.0
C      1  0.4631530000000  0.4653360000000  0.5280220000000 1.0
C      1  0.5985390000000  0.4490670000000  0.5300370000000 1.0
C      1  0.4941800000000  0.6122130000000  0.4616000000000 1.0
C      1  0.4388420000000  0.4450630000000  0.4995100000000 1.0
C      1  0.4951720000000  0.5088670000000  0.5082350000000 1.0
C      1  0.5544000000000  0.5731460000000  0.4481490000000 1.0
C      1  0.5459960000000  0.4920740000000  0.5547790000000 1.0
C      1  0.4909030000000  0.4444420000000  0.4323890000000 1.0
C      1  0.4914010000000  0.4310300000000  0.5887580000000 1.0
C      1  0.6090300000000  0.5430420000000  0.4954500000000 1.0
C      1  0.4340630000000  0.4432620000000  0.5825320000000 1.0
C      1  0.5413580000000  0.4901350000000  0.4182040000000 1.0
C      1  0.5539820000000  0.4283440000000  0.5486160000000 1.0
C      1  0.5303220000000  0.4437350000000  0.4443500000000 1.0
C      1  0.5019130000000  0.5666790000000  0.5708710000000 1.0
C      1  0.4356740000000  0.4289790000000  0.4510290000000 1.0
C      1  0.4924210000000  0.5433960000000  0.4885300000000 1.0
C      1  0.5641280000000  0.4512220000000  0.5642500000000 1.0
C      1  0.4715060000000  0.4382440000000  0.5232250000000 1.0
C      1  0.5407950000000  0.4933990000000  0.5871670000000 1.0
C      1  0.5086180000000  0.4145560000000  0.5309850000000 1.0
C      1  0.4913170000000  0.4661650000000  0.4528380000000 1.0
C      1  0.5223160000000  0.6056000000000  0.4543240000000 1.0
C      1  0.5013310000000  0.4653120000000  0.5024180000000 1.0
C      1  0.5678570000000  0.5766340000000  0.4970860000000 1.0
C      1  0.4787010000000  0.4154470000000  0.4765780000000 1.0
C      1  0.5676830000000  0.4567520000000  0.5179590000000 1.0
C      1  0.4096610000000  0.4719590000000  0.5157110000000 1.0
C      1  0.4482760000000  0.5567460000000  0.4334300000000 1.0
C      1  0.5135340000000  0.4800590000000  0.5385690000000 1.0
C      1  0.5489330000000  0.4977230000000  0.4918560000000 1.0
C      1  0.5436130000000  0.5643560000000  0.5108010000000 1.0
C      1  0.5301110000000  0.4146290000000  0.5565890000000 1.0
C      1  0.4127970000000  0.4435450000000  0.4514600000000 1.0
C      1  0.5671220000000  0.4483570000000  0.4702510000000 1.0
C      1  0.4822710000000  0.4830790000000  0.5140170000000 1.0
C      1  0.5825440000000  0.4813900000000  0.4411280000000 1.0
C      1  0.5206630000000  0.5332750000000  0.4616080000000 1.0
C      1  0.4883860000000  0.5201550000000  0.6044060000000 1.0
C      1  0.4432160000000  0.4228320000000  0.5468560000000 1.0
C      1  0.5737740000000  0.5537990000000  0.4543210000000 1.0
C      1  0.5552370000000  0.4273860000000  0.5163360000000 1.0
END
