TITL C-2778433-5640-619 0.00103836768822934 125000 -454.625351642814 0 0 80 (C1) n - 1
REM
REM in /home/nfs/bkarasulu/CARBON/AIRSS/Generating-Clusters/REBO/Only-C1/SD-CG/HFTN-CG
REM
REM
REM
REM
REM
REM ./C.cell (11c1c37f851c82e70ff6c80c92926a4b)
REM
REM compiler GCC version 9.2.1 20190827 (Red Hat 9.2.1-1)
REM options -cpp -mtune=generic -march=x86-64 -g -O0 -fpre-include=/usr/include/finclude/math-vector-fortran.h
REM seed -1080492534 -1372094333 528029522 -1721197623 579369606 1618140936 -1002162349 -135459189 2080622592 1755697514 -1653408362 1223514596 1791249360 1295878451 856143914 -1691804888 -1859767221 -909963197 1973289443 -395241230 -2026833119 1777767276 -1049675274 1871045946 328448875 2052108849 86920861 -1029900638 890029121 312907489 -1026733865 -186969667 1227964901
REM
CELL 1.54180   50.00000   50.00000   50.00000   90.00000   90.00000   90.00000
LATT -1
SFAC C  
C      1  0.5411350000000  0.4916180000000  0.4686140000000 1.0
C      1  0.5521900000000  0.5172370000000  0.4971010000000 1.0
C      1  0.4562670000000  0.4826120000000  0.5327000000000 1.0
C      1  0.4355960000000  0.5085300000000  0.5105110000000 1.0
C      1  0.5555820000000  0.5175230000000  0.5530310000000 1.0
C      1  0.5097350000000  0.5851860000000  0.5161300000000 1.0
C      1  0.4778610000000  0.5760080000000  0.5579920000000 1.0
C      1  0.5373250000000  0.5708380000000  0.5014330000000 1.0
C      1  0.4793460000000  0.4533700000000  0.4808330000000 1.0
C      1  0.5336390000000  0.5707970000000  0.4716140000000 1.0
C      1  0.5006890000000  0.5524860000000  0.5168090000000 1.0
C      1  0.4616840000000  0.5683760000000  0.4381350000000 1.0
C      1  0.5342550000000  0.5074110000000  0.5207480000000 1.0
C      1  0.4262230000000  0.4450140000000  0.4725600000000 1.0
C      1  0.5757430000000  0.4966150000000  0.4873860000000 1.0
C      1  0.5001020000000  0.5206850000000  0.4440710000000 1.0
C      1  0.5291990000000  0.5633290000000  0.5338870000000 1.0
C      1  0.4953300000000  0.5106220000000  0.5098580000000 1.0
C      1  0.5098200000000  0.4535360000000  0.4937970000000 1.0
C      1  0.4388380000000  0.5385780000000  0.5262120000000 1.0
C      1  0.4839570000000  0.4109630000000  0.4994580000000 1.0
C      1  0.4404940000000  0.5175090000000  0.4567630000000 1.0
C      1  0.5695780000000  0.4900080000000  0.4544530000000 1.0
C      1  0.5138800000000  0.4195950000000  0.4555490000000 1.0
C      1  0.5849940000000  0.4872030000000  0.5188370000000 1.0
C      1  0.4835810000000  0.4966010000000  0.4336860000000 1.0
C      1  0.4818520000000  0.5278640000000  0.5716330000000 1.0
C      1  0.4857590000000  0.4331620000000  0.4537400000000 1.0
C      1  0.4562300000000  0.4914740000000  0.4508530000000 1.0
C      1  0.5566030000000  0.5448630000000  0.5119420000000 1.0
C      1  0.4530390000000  0.5397480000000  0.4439780000000 1.0
C      1  0.5688780000000  0.4930850000000  0.5408430000000 1.0
C      1  0.5527370000000  0.4784920000000  0.4327370000000 1.0
C      1  0.5285850000000  0.5085570000000  0.5651790000000 1.0
C      1  0.5208600000000  0.5308890000000  0.5329750000000 1.0
C      1  0.5020090000000  0.4982200000000  0.4691050000000 1.0
C      1  0.4527550000000  0.5160250000000  0.5702570000000 1.0
C      1  0.5340310000000  0.4404350000000  0.4647790000000 1.0
C      1  0.4522890000000  0.4352560000000  0.4579900000000 1.0
C      1  0.4867470000000  0.4125240000000  0.5282680000000 1.0
C      1  0.5628140000000  0.5427670000000  0.5400620000000 1.0
C      1  0.4786170000000  0.5756920000000  0.5267580000000 1.0
C      1  0.4726760000000  0.4834800000000  0.4779680000000 1.0
C      1  0.5362280000000  0.4838320000000  0.5441140000000 1.0
C      1  0.5268070000000  0.4313990000000  0.5496620000000 1.0
C      1  0.5284250000000  0.4398540000000  0.5188470000000 1.0
C      1  0.5124680000000  0.4842490000000  0.5088000000000 1.0
C      1  0.4433810000000  0.5099430000000  0.5441170000000 1.0
C      1  0.4912470000000  0.5229030000000  0.5419630000000 1.0
C      1  0.4825260000000  0.4644270000000  0.5445780000000 1.0
C      1  0.4692210000000  0.4608740000000  0.4429150000000 1.0
C      1  0.5380930000000  0.5466110000000  0.4586520000000 1.0
C      1  0.4886080000000  0.5741350000000  0.4513360000000 1.0
C      1  0.4516700000000  0.5670990000000  0.5149950000000 1.0
C      1  0.4811000000000  0.5584240000000  0.5754300000000 1.0
C      1  0.5736860000000  0.4641700000000  0.4985510000000 1.0
C      1  0.4688340000000  0.5286480000000  0.5197160000000 1.0
C      1  0.4522500000000  0.5495210000000  0.4901830000000 1.0
C      1  0.5422520000000  0.4766970000000  0.4964210000000 1.0
C      1  0.5713960000000  0.5641250000000  0.5545910000000 1.0
C      1  0.4987550000000  0.4709010000000  0.4286020000000 1.0
C      1  0.4273110000000  0.4638110000000  0.4887900000000 1.0
C      1  0.4341850000000  0.4591920000000  0.5276650000000 1.0
C      1  0.5031350000000  0.5048680000000  0.5755520000000 1.0
C      1  0.5064730000000  0.4203900000000  0.4854390000000 1.0
C      1  0.5192910000000  0.4691190000000  0.4647150000000 1.0
C      1  0.4831820000000  0.5415990000000  0.4582180000000 1.0
C      1  0.4354860000000  0.5260420000000  0.4839550000000 1.0
C      1  0.4714450000000  0.4345280000000  0.5381300000000 1.0
C      1  0.4577910000000  0.4292330000000  0.4913660000000 1.0
C      1  0.4821960000000  0.5343380000000  0.4887590000000 1.0
C      1  0.4927750000000  0.4796240000000  0.5715620000000 1.0
C      1  0.5163660000000  0.4615240000000  0.5420930000000 1.0
C      1  0.4495220000000  0.4826870000000  0.4993340000000 1.0
C      1  0.5264690000000  0.5332600000000  0.4358590000000 1.0
C      1  0.5484520000000  0.4434090000000  0.4931940000000 1.0
C      1  0.5121040000000  0.5857260000000  0.4607370000000 1.0
C      1  0.5285150000000  0.5199670000000  0.4735030000000 1.0
C      1  0.5268660000000  0.4716730000000  0.4255910000000 1.0
C      1  0.4479630000000  0.4364160000000  0.5208290000000 1.0
END
