TITL C-2778425-5191-613 -0.00149134622672867 125000 -865.815069833322 0 0 149 (C1) n - 1
REM
REM in /home/nfs/bkarasulu/CARBON/AIRSS/Generating-Clusters/REBO/Only-C1/SD-CG/HFTN-CG
REM
REM
REM
REM
REM
REM ./C.cell (11c1c37f851c82e70ff6c80c92926a4b)
REM
REM compiler GCC version 9.2.1 20190827 (Red Hat 9.2.1-1)
REM options -cpp -mtune=generic -march=x86-64 -g -O0 -fpre-include=/usr/include/finclude/math-vector-fortran.h
REM seed 1314177090 -276492633 11235226 -250918165 -906672073 1011367758 67070731 -1944275889 1145526307 1119470447 1634996797 1456452012 -1589964188 -811028184 -1400160205 997750975 -1012101550 1100775726 1396211480 -798091179 943645673 -959785874 -798913032 -1336850517 229918132 -1632940461 185169708 886890974 -1203986620 917849134 -370794071 392857588 896177147
REM
CELL 1.54180   50.00000   50.00000   50.00000   90.00000   90.00000   90.00000
LATT -1
SFAC C  
C      1  0.5563900000000  0.4412660000000  0.5326740000000 1.0
C      1  0.5896070000000  0.5274390000000  0.4403700000000 1.0
C      1  0.5675180000000  0.5352420000000  0.5704880000000 1.0
C      1  0.5503100000000  0.5337010000000  0.4766940000000 1.0
C      1  0.5104280000000  0.4560070000000  0.5876320000000 1.0
C      1  0.5690070000000  0.4893510000000  0.4718260000000 1.0
C      1  0.4854970000000  0.4052000000000  0.4729090000000 1.0
C      1  0.4468590000000  0.4946000000000  0.4416120000000 1.0
C      1  0.5124260000000  0.4870790000000  0.5357990000000 1.0
C      1  0.5402000000000  0.5234010000000  0.5565140000000 1.0
C      1  0.5433460000000  0.5889660000000  0.5171020000000 1.0
C      1  0.6089120000000  0.5087620000000  0.4846490000000 1.0
C      1  0.5133780000000  0.3973870000000  0.4896970000000 1.0
C      1  0.5241650000000  0.4151730000000  0.5439940000000 1.0
C      1  0.5547680000000  0.4602050000000  0.4286830000000 1.0
C      1  0.5570750000000  0.5203910000000  0.4474610000000 1.0
C      1  0.5973920000000  0.4707430000000  0.5246030000000 1.0
C      1  0.4583150000000  0.5048720000000  0.4860860000000 1.0
C      1  0.4685890000000  0.4131510000000  0.5475080000000 1.0
C      1  0.3920320000000  0.4741820000000  0.4593620000000 1.0
C      1  0.4853690000000  0.4753390000000  0.4838010000000 1.0
C      1  0.4875730000000  0.5262610000000  0.5785110000000 1.0
C      1  0.4975490000000  0.5028350000000  0.4388440000000 1.0
C      1  0.4783930000000  0.4867750000000  0.4183200000000 1.0
C      1  0.4955020000000  0.5645060000000  0.5386040000000 1.0
C      1  0.4495060000000  0.5207800000000  0.4580010000000 1.0
C      1  0.5096070000000  0.5328510000000  0.4324190000000 1.0
C      1  0.5657940000000  0.4266260000000  0.4958330000000 1.0
C      1  0.4037120000000  0.4979940000000  0.5339740000000 1.0
C      1  0.4093600000000  0.4360050000000  0.4858620000000 1.0
C      1  0.4572080000000  0.5760110000000  0.4679700000000 1.0
C      1  0.4668680000000  0.4908000000000  0.5160930000000 1.0
C      1  0.4653230000000  0.4266420000000  0.4569990000000 1.0
C      1  0.4349760000000  0.5736360000000  0.5351720000000 1.0
C      1  0.5412110000000  0.4122740000000  0.4929940000000 1.0
C      1  0.5297380000000  0.4615180000000  0.4884330000000 1.0
C      1  0.5492020000000  0.4495370000000  0.5804830000000 1.0
C      1  0.4515950000000  0.4420830000000  0.5417380000000 1.0
C      1  0.5109140000000  0.5323150000000  0.5106480000000 1.0
C      1  0.4822720000000  0.4804270000000  0.5513360000000 1.0
C      1  0.4044080000000  0.5610710000000  0.4964600000000 1.0
C      1  0.5390510000000  0.5323720000000  0.4241860000000 1.0
C      1  0.5856180000000  0.4914280000000  0.5000820000000 1.0
C      1  0.4805040000000  0.5362760000000  0.5486150000000 1.0
C      1  0.4295830000000  0.4917870000000  0.5665650000000 1.0
C      1  0.3968580000000  0.4844040000000  0.4858910000000 1.0
C      1  0.5935310000000  0.4541170000000  0.4888460000000 1.0
C      1  0.4932780000000  0.4667060000000  0.4544570000000 1.0
C      1  0.4085100000000  0.4686780000000  0.5296110000000 1.0
C      1  0.5047850000000  0.4468790000000  0.5577920000000 1.0
C      1  0.5136690000000  0.4823280000000  0.5955910000000 1.0
C      1  0.4567320000000  0.4072230000000  0.4907240000000 1.0
C      1  0.5218510000000  0.5858980000000  0.5425170000000 1.0
C      1  0.4560810000000  0.4418070000000  0.4304830000000 1.0
C      1  0.5196660000000  0.5464670000000  0.5473030000000 1.0
C      1  0.5608570000000  0.4845340000000  0.5200530000000 1.0
C      1  0.5225560000000  0.4273070000000  0.5137560000000 1.0
C      1  0.5834690000000  0.5639150000000  0.4910910000000 1.0
C      1  0.5298000000000  0.4577420000000  0.5377640000000 1.0
C      1  0.4901800000000  0.5129970000000  0.5276760000000 1.0
C      1  0.5818670000000  0.5267000000000  0.4778720000000 1.0
C      1  0.5234870000000  0.4762600000000  0.4476660000000 1.0
C      1  0.5349000000000  0.5529140000000  0.4969780000000 1.0
C      1  0.4993260000000  0.4984980000000  0.5717390000000 1.0
C      1  0.5089990000000  0.5840560000000  0.4697920000000 1.0
C      1  0.4384880000000  0.4444930000000  0.5016490000000 1.0
C      1  0.4101530000000  0.4483170000000  0.4539990000000 1.0
C      1  0.4100430000000  0.5696080000000  0.5222640000000 1.0
C      1  0.4497290000000  0.4176360000000  0.5196040000000 1.0
C      1  0.5576150000000  0.5085730000000  0.5891250000000 1.0
C      1  0.5147570000000  0.4251730000000  0.4545050000000 1.0
C      1  0.5870760000000  0.4397420000000  0.5191360000000 1.0
C      1  0.5669350000000  0.5628480000000  0.5558090000000 1.0
C      1  0.5123660000000  0.6010760000000  0.5140840000000 1.0
C      1  0.4380510000000  0.4951060000000  0.5337290000000 1.0
C      1  0.5561430000000  0.4793030000000  0.5718310000000 1.0
C      1  0.5433370000000  0.5493450000000  0.5266420000000 1.0
C      1  0.4075120000000  0.5105460000000  0.4913210000000 1.0
C      1  0.4704140000000  0.5631230000000  0.5200550000000 1.0
C      1  0.4018830000000  0.5359880000000  0.4786610000000 1.0
C      1  0.4787440000000  0.4434590000000  0.4835400000000 1.0
C      1  0.4909200000000  0.5066880000000  0.4879500000000 1.0
C      1  0.5141940000000  0.5325240000000  0.5938840000000 1.0
C      1  0.5484530000000  0.5047420000000  0.4118040000000 1.0
C      1  0.5901890000000  0.5282120000000  0.5288620000000 1.0
C      1  0.4129430000000  0.5431290000000  0.4506890000000 1.0
C      1  0.4299990000000  0.4813450000000  0.4227730000000 1.0
C      1  0.5883130000000  0.4955130000000  0.4452510000000 1.0
C      1  0.5705540000000  0.5691700000000  0.5224220000000 1.0
C      1  0.5301490000000  0.5138150000000  0.4911460000000 1.0
C      1  0.3933560000000  0.5238430000000  0.5717120000000 1.0
C      1  0.4400430000000  0.4546920000000  0.4691660000000 1.0
C      1  0.5413210000000  0.5748890000000  0.5648340000000 1.0
C      1  0.4296870000000  0.4529660000000  0.4293190000000 1.0
C      1  0.5052150000000  0.4446840000000  0.4313450000000 1.0
C      1  0.4025720000000  0.4619070000000  0.5035810000000 1.0
C      1  0.5606780000000  0.4603490000000  0.4979380000000 1.0
C      1  0.4772650000000  0.4577850000000  0.4192680000000 1.0
C      1  0.5295980000000  0.5088750000000  0.6005930000000 1.0
C      1  0.4251120000000  0.5673470000000  0.4705680000000 1.0
C      1  0.5256060000000  0.4016180000000  0.4497320000000 1.0
C      1  0.3855570000000  0.5144970000000  0.5469720000000 1.0
C      1  0.4597560000000  0.4725440000000  0.4555910000000 1.0
C      1  0.5462900000000  0.4291390000000  0.5601020000000 1.0
C      1  0.4291640000000  0.4606240000000  0.5517430000000 1.0
C      1  0.4601580000000  0.5389570000000  0.4318610000000 1.0
C      1  0.5786830000000  0.5545650000000  0.4581910000000 1.0
C      1  0.5303430000000  0.4969810000000  0.5624960000000 1.0
C      1  0.5269250000000  0.4854120000000  0.4150900000000 1.0
C      1  0.4943550000000  0.4390180000000  0.5259250000000 1.0
C      1  0.4950530000000  0.5380100000000  0.4824810000000 1.0
C      1  0.4201070000000  0.5173350000000  0.5782510000000 1.0
C      1  0.4955300000000  0.4141650000000  0.5568140000000 1.0
C      1  0.5630430000000  0.5235660000000  0.5325460000000 1.0
C      1  0.4450120000000  0.5403160000000  0.5157100000000 1.0
C      1  0.5030380000000  0.5732380000000  0.4321040000000 1.0
C      1  0.4485700000000  0.5464490000000  0.5489660000000 1.0
C      1  0.4678520000000  0.4566800000000  0.5143530000000 1.0
C      1  0.4581370000000  0.4751120000000  0.5627670000000 1.0
C      1  0.5478930000000  0.4574150000000  0.4602980000000 1.0
C      1  0.5798650000000  0.4593370000000  0.4596400000000 1.0
C      1  0.5285330000000  0.4544250000000  0.4146010000000 1.0
C      1  0.5101090000000  0.4364890000000  0.4830710000000 1.0
C      1  0.4720610000000  0.5666400000000  0.4410250000000 1.0
C      1  0.4716920000000  0.5544820000000  0.4900360000000 1.0
C      1  0.5399100000000  0.4969690000000  0.4656850000000 1.0
C      1  0.4341810000000  0.5115210000000  0.5065170000000 1.0
C      1  0.5752340000000  0.4784790000000  0.5484550000000 1.0
C      1  0.5682270000000  0.4851070000000  0.4230390000000 1.0
C      1  0.4352850000000  0.4200690000000  0.4705370000000 1.0
C      1  0.5998410000000  0.5362910000000  0.5032290000000 1.0
C      1  0.5049780000000  0.5522830000000  0.4586400000000 1.0
C      1  0.5532730000000  0.5789720000000  0.4878470000000 1.0
C      1  0.4869800000000  0.4117900000000  0.5064550000000 1.0
C      1  0.4959280000000  0.5962710000000  0.4920050000000 1.0
C      1  0.4429440000000  0.5414360000000  0.4815980000000 1.0
C      1  0.5378810000000  0.5043110000000  0.5199930000000 1.0
C      1  0.4677560000000  0.5941250000000  0.4926270000000 1.0
C      1  0.5268410000000  0.5530050000000  0.5798120000000 1.0
C      1  0.6069780000000  0.4786070000000  0.4688770000000 1.0
C      1  0.5534420000000  0.5583610000000  0.4357120000000 1.0
C      1  0.5098300000000  0.4817780000000  0.5022410000000 1.0
C      1  0.4544650000000  0.5912630000000  0.5197230000000 1.0
C      1  0.4805260000000  0.5212690000000  0.4179600000000 1.0
C      1  0.5374060000000  0.5919800000000  0.4656830000000 1.0
C      1  0.5340290000000  0.5790580000000  0.4390650000000 1.0
C      1  0.4278500000000  0.5374640000000  0.4288950000000 1.0
C      1  0.4398740000000  0.5373450000000  0.5772040000000 1.0
C      1  0.4617480000000  0.5337270000000  0.5935700000000 1.0
END
