TITL C-2778429-3646-840 -0.00278756080096495 125000 -602.472207478906 0 0 103 (C1) n - 1
REM
REM in /home/nfs/bkarasulu/CARBON/AIRSS/Generating-Clusters/REBO/Only-C1/SD-CG/HFTN-CG
REM
REM
REM
REM
REM
REM ./C.cell (11c1c37f851c82e70ff6c80c92926a4b)
REM
REM compiler GCC version 9.2.1 20190827 (Red Hat 9.2.1-1)
REM options -cpp -mtune=generic -march=x86-64 -g -O0 -fpre-include=/usr/include/finclude/math-vector-fortran.h
REM seed 784081709 -2115103838 -509455732 214919705 620903978 -1999053763 1793227872 -834366848 912890292 513243914 -838735055 -2107236522 1054516499 -1979694335 -1819037647 -1362893315 -1369920196 257506456 1037963277 229544847 -1905368447 -2058227913 1942070625 1604898376 1140442208 1621977425 876873324 -2044563863 886806702 62251507 -621761576 -2127351730 711283707
REM
CELL 1.54180   50.00000   50.00000   50.00000   90.00000   90.00000   90.00000
LATT -1
SFAC C  
C      1  0.5852510000000  0.5322320000000  0.5163690000000 1.0
C      1  0.5077770000000  0.5044260000000  0.4559870000000 1.0
C      1  0.5445970000000  0.4598440000000  0.4969100000000 1.0
C      1  0.5697990000000  0.5122930000000  0.5392920000000 1.0
C      1  0.5213480000000  0.5703700000000  0.5616940000000 1.0
C      1  0.5332130000000  0.4967120000000  0.4346880000000 1.0
C      1  0.5453380000000  0.5373700000000  0.4600790000000 1.0
C      1  0.4396700000000  0.5506450000000  0.5102210000000 1.0
C      1  0.5944450000000  0.5029640000000  0.5093950000000 1.0
C      1  0.4847870000000  0.5676010000000  0.4993590000000 1.0
C      1  0.4452380000000  0.4612010000000  0.5515440000000 1.0
C      1  0.4317140000000  0.5337260000000  0.4198180000000 1.0
C      1  0.4506230000000  0.5893050000000  0.5530880000000 1.0
C      1  0.4595900000000  0.4610430000000  0.4879920000000 1.0
C      1  0.4787090000000  0.4342390000000  0.5752780000000 1.0
C      1  0.4780490000000  0.4399950000000  0.4344770000000 1.0
C      1  0.4150360000000  0.4433370000000  0.4946290000000 1.0
C      1  0.4103640000000  0.4596500000000  0.5175090000000 1.0
C      1  0.5694900000000  0.4800940000000  0.4732710000000 1.0
C      1  0.5283440000000  0.4364910000000  0.4635350000000 1.0
C      1  0.5685170000000  0.5352570000000  0.5622790000000 1.0
C      1  0.4902130000000  0.5901390000000  0.5238590000000 1.0
C      1  0.5757010000000  0.4533670000000  0.5237750000000 1.0
C      1  0.5565130000000  0.4450380000000  0.4617160000000 1.0
C      1  0.4141940000000  0.4881290000000  0.5140710000000 1.0
C      1  0.4629120000000  0.6020590000000  0.5349420000000 1.0
C      1  0.4617390000000  0.5033140000000  0.5723710000000 1.0
C      1  0.4905900000000  0.4559760000000  0.4784000000000 1.0
C      1  0.4820290000000  0.4870120000000  0.4227680000000 1.0
C      1  0.4798340000000  0.4176480000000  0.5540970000000 1.0
C      1  0.5375990000000  0.5419400000000  0.5714400000000 1.0
C      1  0.4900410000000  0.4175470000000  0.4918820000000 1.0
C      1  0.4607990000000  0.5539930000000  0.4620530000000 1.0
C      1  0.4876590000000  0.5450260000000  0.5783140000000 1.0
C      1  0.5420630000000  0.5666180000000  0.5403120000000 1.0
C      1  0.4406120000000  0.5269910000000  0.5251450000000 1.0
C      1  0.5119820000000  0.4975890000000  0.3870000000000 1.0
C      1  0.4777690000000  0.4239730000000  0.5230550000000 1.0
C      1  0.5373560000000  0.5063880000000  0.5327460000000 1.0
C      1  0.4193970000000  0.4991510000000  0.4880080000000 1.0
C      1  0.5353750000000  0.4838330000000  0.4752140000000 1.0
C      1  0.5317920000000  0.5294870000000  0.4366320000000 1.0
C      1  0.4485210000000  0.5578370000000  0.4856170000000 1.0
C      1  0.5075540000000  0.5329520000000  0.5611320000000 1.0
C      1  0.4902400000000  0.5411480000000  0.5060930000000 1.0
C      1  0.4566540000000  0.4160410000000  0.4987700000000 1.0
C      1  0.4213720000000  0.4491740000000  0.5418310000000 1.0
C      1  0.5063650000000  0.5926210000000  0.4950020000000 1.0
C      1  0.5004030000000  0.4706670000000  0.5407730000000 1.0
C      1  0.5293560000000  0.4605310000000  0.5458520000000 1.0
C      1  0.5084620000000  0.5875470000000  0.4613050000000 1.0
C      1  0.5366200000000  0.5450820000000  0.5229330000000 1.0
C      1  0.4620760000000  0.4771240000000  0.5157610000000 1.0
C      1  0.5571940000000  0.4738560000000  0.4435230000000 1.0
C      1  0.4263000000000  0.5029700000000  0.5363360000000 1.0
C      1  0.5510610000000  0.5633980000000  0.4694540000000 1.0
C      1  0.5110100000000  0.4969420000000  0.5129860000000 1.0
C      1  0.4994760000000  0.5045900000000  0.5442080000000 1.0
C      1  0.5362190000000  0.4705710000000  0.5737470000000 1.0
C      1  0.4598560000000  0.4148050000000  0.4388480000000 1.0
C      1  0.5339290000000  0.4892900000000  0.4017720000000 1.0
C      1  0.4534470000000  0.5413930000000  0.4055140000000 1.0
C      1  0.4763980000000  0.5174790000000  0.4920370000000 1.0
C      1  0.5133010000000  0.4919130000000  0.5798110000000 1.0
C      1  0.4729230000000  0.5455210000000  0.4400330000000 1.0
C      1  0.4726370000000  0.4531630000000  0.5372470000000 1.0
C      1  0.5545740000000  0.5310410000000  0.5065990000000 1.0
C      1  0.5758360000000  0.4503560000000  0.4896010000000 1.0
C      1  0.5191450000000  0.4214200000000  0.4862570000000 1.0
C      1  0.4227230000000  0.5209830000000  0.4421120000000 1.0
C      1  0.4852530000000  0.4870700000000  0.5808320000000 1.0
C      1  0.5451950000000  0.4786270000000  0.5217090000000 1.0
C      1  0.5059550000000  0.5709040000000  0.4391050000000 1.0
C      1  0.4944700000000  0.5758080000000  0.5532200000000 1.0
C      1  0.5343200000000  0.4305040000000  0.5075720000000 1.0
C      1  0.5630630000000  0.4851370000000  0.5676890000000 1.0
C      1  0.5416780000000  0.5167540000000  0.4824310000000 1.0
C      1  0.4790920000000  0.4594990000000  0.5846020000000 1.0
C      1  0.4593860000000  0.5065100000000  0.5142790000000 1.0
C      1  0.6009590000000  0.5544620000000  0.5164210000000 1.0
C      1  0.4422310000000  0.4382020000000  0.4883890000000 1.0
C      1  0.4420890000000  0.4892290000000  0.5566680000000 1.0
C      1  0.5105100000000  0.5456490000000  0.4267230000000 1.0
C      1  0.4847980000000  0.5334370000000  0.4105140000000 1.0
C      1  0.4809500000000  0.5024290000000  0.4472340000000 1.0
C      1  0.4623400000000  0.5104890000000  0.4663400000000 1.0
C      1  0.4439690000000  0.3955480000000  0.4289720000000 1.0
C      1  0.4935700000000  0.4691660000000  0.5073000000000 1.0
C      1  0.5497940000000  0.4402300000000  0.5312760000000 1.0
C      1  0.5559720000000  0.4733550000000  0.4117170000000 1.0
C      1  0.4889580000000  0.5046860000000  0.4015320000000 1.0
C      1  0.4337350000000  0.5097760000000  0.4657160000000 1.0
C      1  0.5794870000000  0.4794320000000  0.5419130000000 1.0
C      1  0.5388960000000  0.5090990000000  0.5654580000000 1.0
C      1  0.4648270000000  0.5647850000000  0.5659830000000 1.0
C      1  0.5086470000000  0.5337600000000  0.5280790000000 1.0
C      1  0.4744070000000  0.4289500000000  0.4655890000000 1.0
C      1  0.4599160000000  0.5317580000000  0.5741370000000 1.0
C      1  0.4942730000000  0.4620990000000  0.4316560000000 1.0
C      1  0.5095790000000  0.5121560000000  0.4864920000000 1.0
C      1  0.5725900000000  0.4874160000000  0.5034720000000 1.0
C      1  0.5129430000000  0.4648260000000  0.4580710000000 1.0
C      1  0.5344300000000  0.5838160000000  0.4785450000000 1.0
END
