TITL C-2778433-5640-417 -0.00391381173564614 125000 -644.362014801258 0 0 112 (C1) n - 1
REM
REM in /home/nfs/bkarasulu/CARBON/AIRSS/Generating-Clusters/REBO/Only-C1/SD-CG/HFTN-CG
REM
REM
REM
REM
REM
REM ./C.cell (11c1c37f851c82e70ff6c80c92926a4b)
REM
REM compiler GCC version 9.2.1 20190827 (Red Hat 9.2.1-1)
REM options -cpp -mtune=generic -march=x86-64 -g -O0 -fpre-include=/usr/include/finclude/math-vector-fortran.h
REM seed -171691817 1433366777 -384960950 -1740744852 -1684493134 -1026069896 1948579236 1848433123 -284397554 1113103145 -36982422 810520077 -543282525 -1946867383 -270629772 2088265624 2126832511 -1685339021 1519040025 1516856715 10377293 -1590147318 -1344329768 1699420728 378031616 -598062868 2025676294 -1957009450 1749917856 -1457524141 -714347673 188372128 -1846076942
REM
CELL 1.54180   50.00000   50.00000   50.00000   90.00000   90.00000   90.00000
LATT -1
SFAC C  
C      1  0.5552230000000  0.4499200000000  0.4635780000000 1.0
C      1  0.5218920000000  0.4099820000000  0.4820150000000 1.0
C      1  0.5129600000000  0.5368180000000  0.4942750000000 1.0
C      1  0.5231200000000  0.5558560000000  0.4195070000000 1.0
C      1  0.5561190000000  0.5446850000000  0.5552990000000 1.0
C      1  0.5775350000000  0.5180300000000  0.5538550000000 1.0
C      1  0.5483770000000  0.4129430000000  0.4919400000000 1.0
C      1  0.5285590000000  0.4617620000000  0.5190690000000 1.0
C      1  0.5421690000000  0.4904410000000  0.4414180000000 1.0
C      1  0.5354800000000  0.4435410000000  0.4440610000000 1.0
C      1  0.5287220000000  0.4445170000000  0.5683320000000 1.0
C      1  0.4220130000000  0.4835370000000  0.4781250000000 1.0
C      1  0.5037940000000  0.5107330000000  0.4108840000000 1.0
C      1  0.4719490000000  0.4189780000000  0.4276750000000 1.0
C      1  0.5027460000000  0.5195640000000  0.5285070000000 1.0
C      1  0.4570140000000  0.5313880000000  0.5753930000000 1.0
C      1  0.4795850000000  0.4994490000000  0.4827730000000 1.0
C      1  0.4538880000000  0.5070460000000  0.4156900000000 1.0
C      1  0.5281180000000  0.5616290000000  0.5077770000000 1.0
C      1  0.5021800000000  0.5195180000000  0.5596680000000 1.0
C      1  0.5449890000000  0.4715660000000  0.6020840000000 1.0
C      1  0.4897410000000  0.5928510000000  0.4959550000000 1.0
C      1  0.5502270000000  0.5173340000000  0.5749350000000 1.0
C      1  0.5398350000000  0.5627750000000  0.4441940000000 1.0
C      1  0.4980630000000  0.5347690000000  0.4423030000000 1.0
C      1  0.5509210000000  0.4966100000000  0.5489320000000 1.0
C      1  0.4573990000000  0.4306920000000  0.5299010000000 1.0
C      1  0.4851840000000  0.4687230000000  0.5698620000000 1.0
C      1  0.4699370000000  0.5678450000000  0.4568850000000 1.0
C      1  0.5506810000000  0.5195320000000  0.5246860000000 1.0
C      1  0.4336080000000  0.4992750000000  0.4564280000000 1.0
C      1  0.5656790000000  0.4347410000000  0.4862780000000 1.0
C      1  0.4761410000000  0.5074050000000  0.5717110000000 1.0
C      1  0.4970020000000  0.4439200000000  0.5644930000000 1.0
C      1  0.4870700000000  0.4438250000000  0.4863510000000 1.0
C      1  0.4361640000000  0.4829650000000  0.5423290000000 1.0
C      1  0.4483110000000  0.4282270000000  0.4977730000000 1.0
C      1  0.4716690000000  0.5281400000000  0.4565910000000 1.0
C      1  0.5264380000000  0.5272780000000  0.4137520000000 1.0
C      1  0.5314370000000  0.4671150000000  0.4280650000000 1.0
C      1  0.5124800000000  0.4294220000000  0.4591150000000 1.0
C      1  0.5016250000000  0.4895920000000  0.5855490000000 1.0
C      1  0.5120590000000  0.5894380000000  0.5432300000000 1.0
C      1  0.4657900000000  0.4977470000000  0.4527010000000 1.0
C      1  0.4837810000000  0.4207830000000  0.4508280000000 1.0
C      1  0.4987230000000  0.5670380000000  0.4388660000000 1.0
C      1  0.5045710000000  0.4924260000000  0.4604970000000 1.0
C      1  0.4985440000000  0.3988400000000  0.4924360000000 1.0
C      1  0.4531920000000  0.4530060000000  0.4404200000000 1.0
C      1  0.4750390000000  0.4566370000000  0.5218410000000 1.0
C      1  0.5322230000000  0.4841670000000  0.4952930000000 1.0
C      1  0.4728380000000  0.4145420000000  0.4807740000000 1.0
C      1  0.5776470000000  0.4459350000000  0.5464010000000 1.0
C      1  0.4627580000000  0.5564850000000  0.5553320000000 1.0
C      1  0.5194560000000  0.5223790000000  0.4657500000000 1.0
C      1  0.4415640000000  0.5140690000000  0.5376280000000 1.0
C      1  0.4508270000000  0.4793720000000  0.4205040000000 1.0
C      1  0.5107770000000  0.5877840000000  0.5141640000000 1.0
C      1  0.5091790000000  0.5450140000000  0.5725100000000 1.0
C      1  0.4246990000000  0.4515860000000  0.4894920000000 1.0
C      1  0.4044950000000  0.5405990000000  0.4687470000000 1.0
C      1  0.4414660000000  0.5729450000000  0.5414770000000 1.0
C      1  0.4896310000000  0.4242630000000  0.5394210000000 1.0
C      1  0.5338710000000  0.4719200000000  0.5511470000000 1.0
C      1  0.4661960000000  0.4854620000000  0.5507370000000 1.0
C      1  0.5087500000000  0.5511670000000  0.5330390000000 1.0
C      1  0.5044240000000  0.4439170000000  0.5156330000000 1.0
C      1  0.4462340000000  0.5450850000000  0.4480580000000 1.0
C      1  0.4782800000000  0.4614070000000  0.4223070000000 1.0
C      1  0.5830020000000  0.4573370000000  0.4956030000000 1.0
C      1  0.4960380000000  0.5856290000000  0.4674360000000 1.0
C      1  0.4815150000000  0.5353710000000  0.5067580000000 1.0
C      1  0.5833380000000  0.4708280000000  0.5238840000000 1.0
C      1  0.4498370000000  0.4457100000000  0.4679400000000 1.0
C      1  0.5000070000000  0.4797120000000  0.4979200000000 1.0
C      1  0.5548190000000  0.4477330000000  0.5224550000000 1.0
C      1  0.5457970000000  0.5166830000000  0.4324090000000 1.0
C      1  0.4655170000000  0.5302870000000  0.5363560000000 1.0
C      1  0.5933730000000  0.5031170000000  0.4773690000000 1.0
C      1  0.5801100000000  0.5624550000000  0.5104480000000 1.0
C      1  0.5271530000000  0.5110910000000  0.5087400000000 1.0
C      1  0.5816750000000  0.4775530000000  0.4750420000000 1.0
C      1  0.4439680000000  0.5674180000000  0.4936160000000 1.0
C      1  0.4208820000000  0.5021370000000  0.5057490000000 1.0
C      1  0.4649240000000  0.5462570000000  0.4833660000000 1.0
C      1  0.5544530000000  0.5512770000000  0.5221150000000 1.0
C      1  0.4201500000000  0.4695080000000  0.5154670000000 1.0
C      1  0.4131900000000  0.5619390000000  0.4838470000000 1.0
C      1  0.4522410000000  0.4971070000000  0.5002520000000 1.0
C      1  0.5502780000000  0.4810120000000  0.4701700000000 1.0
C      1  0.4521580000000  0.5971090000000  0.5299780000000 1.0
C      1  0.4241660000000  0.5271840000000  0.4531030000000 1.0
C      1  0.5105070000000  0.4613220000000  0.4707690000000 1.0
C      1  0.4770210000000  0.4890500000000  0.5211910000000 1.0
C      1  0.4620860000000  0.5921230000000  0.5032730000000 1.0
C      1  0.4206960000000  0.5294660000000  0.5224370000000 1.0
C      1  0.4908800000000  0.5676840000000  0.5572030000000 1.0
C      1  0.4275680000000  0.5569430000000  0.5206880000000 1.0
C      1  0.5312520000000  0.4905490000000  0.5828110000000 1.0
C      1  0.5281000000000  0.5823510000000  0.4611170000000 1.0
C      1  0.5509110000000  0.5269680000000  0.4796960000000 1.0
C      1  0.5804680000000  0.5030020000000  0.5232820000000 1.0
C      1  0.5426900000000  0.4470560000000  0.5950950000000 1.0
C      1  0.5753080000000  0.5191070000000  0.4935500000000 1.0
C      1  0.4618280000000  0.4654650000000  0.4928840000000 1.0
C      1  0.5533710000000  0.5376050000000  0.4513470000000 1.0
C      1  0.5306030000000  0.5639230000000  0.5564150000000 1.0
C      1  0.5520170000000  0.4236720000000  0.5436320000000 1.0
C      1  0.5219990000000  0.4182320000000  0.5485720000000 1.0
C      1  0.4767410000000  0.5234800000000  0.4174170000000 1.0
C      1  0.4911680000000  0.4890770000000  0.4316160000000 1.0
C      1  0.4331340000000  0.4495220000000  0.5397320000000 1.0
END
