TITL C-2778436-5916-338 0.000666637860650745 125000 -816.4459599723 0 0 142 (C1) n - 1
REM
REM in /home/nfs/bkarasulu/CARBON/AIRSS/Generating-Clusters/REBO/Only-C1/SD-CG/HFTN-CG
REM
REM
REM
REM
REM
REM ./C.cell (11c1c37f851c82e70ff6c80c92926a4b)
REM
REM compiler GCC version 9.2.1 20190827 (Red Hat 9.2.1-1)
REM options -cpp -mtune=generic -march=x86-64 -g -O0 -fpre-include=/usr/include/finclude/math-vector-fortran.h
REM seed 1995068377 90369625 -171353502 -1100915921 -951590501 406468547 918780390 1513047076 2921950 1052952435 -1009107848 -430258366 955402005 -1027001866 -927940676 523130744 1951758773 1398898537 -291404055 2058821527 -161899481 631105987 -841501892 -1579335747 -1883773555 1685312316 1558972998 1267792210 1463180644 -1802694136 1824128934 -241511857 -1280018474
REM
CELL 1.54180   50.00000   50.00000   50.00000   90.00000   90.00000   90.00000
LATT -1
SFAC C  
C      1  0.4486130000000  0.5240310000000  0.4617490000000 1.0
C      1  0.5422660000000  0.4261310000000  0.5436400000000 1.0
C      1  0.4887350000000  0.5031830000000  0.4363910000000 1.0
C      1  0.4603340000000  0.4983910000000  0.4487890000000 1.0
C      1  0.4221030000000  0.4861530000000  0.5465820000000 1.0
C      1  0.5781800000000  0.5294940000000  0.5173430000000 1.0
C      1  0.4679240000000  0.5766170000000  0.4547920000000 1.0
C      1  0.5583780000000  0.4869930000000  0.4894820000000 1.0
C      1  0.5102270000000  0.5744500000000  0.4837150000000 1.0
C      1  0.5203630000000  0.4261570000000  0.5096790000000 1.0
C      1  0.5030640000000  0.4865590000000  0.5190170000000 1.0
C      1  0.5892370000000  0.4847680000000  0.4641650000000 1.0
C      1  0.5995870000000  0.5416790000000  0.5077120000000 1.0
C      1  0.4333240000000  0.5155860000000  0.5492210000000 1.0
C      1  0.5034860000000  0.4516060000000  0.5001190000000 1.0
C      1  0.4166550000000  0.4734250000000  0.5065030000000 1.0
C      1  0.5132200000000  0.5433960000000  0.3932780000000 1.0
C      1  0.4337550000000  0.5274860000000  0.5769660000000 1.0
C      1  0.5195890000000  0.5719020000000  0.4358380000000 1.0
C      1  0.5047440000000  0.5538720000000  0.5791640000000 1.0
C      1  0.4442290000000  0.4312950000000  0.5061910000000 1.0
C      1  0.4626970000000  0.4619110000000  0.4285960000000 1.0
C      1  0.4178820000000  0.5503550000000  0.5146510000000 1.0
C      1  0.5124760000000  0.4361540000000  0.5783480000000 1.0
C      1  0.5800760000000  0.5100130000000  0.4764750000000 1.0
C      1  0.5312790000000  0.5484090000000  0.5136000000000 1.0
C      1  0.4181240000000  0.5171410000000  0.4757750000000 1.0
C      1  0.5760850000000  0.4788470000000  0.4400960000000 1.0
C      1  0.4270270000000  0.5486490000000  0.4660750000000 1.0
C      1  0.5651340000000  0.5498540000000  0.5492030000000 1.0
C      1  0.5071150000000  0.4802690000000  0.5506930000000 1.0
C      1  0.4787760000000  0.5388770000000  0.4926460000000 1.0
C      1  0.5183690000000  0.4704800000000  0.4137360000000 1.0
C      1  0.5342600000000  0.4326390000000  0.4292850000000 1.0
C      1  0.5320740000000  0.4040970000000  0.4786040000000 1.0
C      1  0.5914300000000  0.4946850000000  0.5311830000000 1.0
C      1  0.4442140000000  0.5598480000000  0.4418530000000 1.0
C      1  0.4445500000000  0.5665910000000  0.5291890000000 1.0
C      1  0.4568840000000  0.5783860000000  0.5002970000000 1.0
C      1  0.5288460000000  0.5147300000000  0.3954370000000 1.0
C      1  0.5096670000000  0.4006750000000  0.4610960000000 1.0
C      1  0.5626400000000  0.4483030000000  0.4402260000000 1.0
C      1  0.5372560000000  0.5117640000000  0.5883280000000 1.0
C      1  0.5497420000000  0.5027850000000  0.5249730000000 1.0
C      1  0.5644010000000  0.5757860000000  0.5314720000000 1.0
C      1  0.4103200000000  0.4934970000000  0.4287190000000 1.0
C      1  0.5655110000000  0.5003370000000  0.4255340000000 1.0
C      1  0.4662350000000  0.4327270000000  0.5292510000000 1.0
C      1  0.4524460000000  0.5032810000000  0.5818900000000 1.0
C      1  0.4074150000000  0.5250370000000  0.5064850000000 1.0
C      1  0.4748270000000  0.5441420000000  0.4620090000000 1.0
C      1  0.5734330000000  0.4384080000000  0.4709640000000 1.0
C      1  0.4893280000000  0.5530160000000  0.3871590000000 1.0
C      1  0.5377800000000  0.5542520000000  0.5691590000000 1.0
C      1  0.5208760000000  0.5270620000000  0.5554280000000 1.0
C      1  0.4846160000000  0.5099680000000  0.5108570000000 1.0
C      1  0.4913580000000  0.5582120000000  0.5251950000000 1.0
C      1  0.5533760000000  0.5049380000000  0.5662580000000 1.0
C      1  0.4689370000000  0.4834840000000  0.5394530000000 1.0
C      1  0.5111360000000  0.4623570000000  0.5984330000000 1.0
C      1  0.5014150000000  0.4009160000000  0.5492010000000 1.0
C      1  0.5334270000000  0.4830170000000  0.4665060000000 1.0
C      1  0.4598300000000  0.5725250000000  0.5556860000000 1.0
C      1  0.5495200000000  0.5953780000000  0.5446710000000 1.0
C      1  0.5257560000000  0.5481510000000  0.4683820000000 1.0
C      1  0.4566370000000  0.5408080000000  0.5147110000000 1.0
C      1  0.4635560000000  0.5557000000000  0.3947900000000 1.0
C      1  0.4490240000000  0.4371670000000  0.4566760000000 1.0
C      1  0.4867240000000  0.4659100000000  0.4499300000000 1.0
C      1  0.4732430000000  0.4314530000000  0.4366050000000 1.0
C      1  0.5291850000000  0.3930540000000  0.5089080000000 1.0
C      1  0.4926650000000  0.6111030000000  0.5187740000000 1.0
C      1  0.4756490000000  0.5003650000000  0.4794310000000 1.0
C      1  0.4203360000000  0.4445890000000  0.5156050000000 1.0
C      1  0.5707460000000  0.5334790000000  0.4649640000000 1.0
C      1  0.3974420000000  0.4938110000000  0.4508060000000 1.0
C      1  0.5183940000000  0.4034480000000  0.4346390000000 1.0
C      1  0.4843420000000  0.4726520000000  0.5989960000000 1.0
C      1  0.4870100000000  0.5815760000000  0.5042850000000 1.0
C      1  0.4189240000000  0.4409610000000  0.5446040000000 1.0
C      1  0.4913310000000  0.5794430000000  0.5607190000000 1.0
C      1  0.5101410000000  0.5364750000000  0.4958560000000 1.0
C      1  0.5120030000000  0.4812900000000  0.4412500000000 1.0
C      1  0.4423880000000  0.4906230000000  0.5193690000000 1.0
C      1  0.4827950000000  0.4473530000000  0.4771510000000 1.0
C      1  0.4715500000000  0.5355130000000  0.5670460000000 1.0
C      1  0.5029130000000  0.5154800000000  0.4714440000000 1.0
C      1  0.5808090000000  0.4733690000000  0.5113910000000 1.0
C      1  0.5898340000000  0.4635310000000  0.4824490000000 1.0
C      1  0.4933340000000  0.4546600000000  0.5635580000000 1.0
C      1  0.4372040000000  0.4671970000000  0.4603230000000 1.0
C      1  0.5325840000000  0.4784780000000  0.5104580000000 1.0
C      1  0.5812680000000  0.4306160000000  0.5031920000000 1.0
C      1  0.4459880000000  0.5560700000000  0.4153510000000 1.0
C      1  0.5054900000000  0.4393290000000  0.4453500000000 1.0
C      1  0.5250760000000  0.5342860000000  0.4234890000000 1.0
C      1  0.5508920000000  0.5250130000000  0.4988920000000 1.0
C      1  0.4731520000000  0.4986440000000  0.6062020000000 1.0
C      1  0.5434210000000  0.4303410000000  0.4753420000000 1.0
C      1  0.4833930000000  0.4078010000000  0.5292830000000 1.0
C      1  0.4645120000000  0.5177810000000  0.5386110000000 1.0
C      1  0.5359760000000  0.5158010000000  0.4736680000000 1.0
C      1  0.4388330000000  0.4822170000000  0.4310860000000 1.0
C      1  0.4641250000000  0.4582770000000  0.5767740000000 1.0
C      1  0.4039710000000  0.5009270000000  0.5218590000000 1.0
C      1  0.4456730000000  0.5142000000000  0.5036600000000 1.0
C      1  0.5599450000000  0.5731640000000  0.5012660000000 1.0
C      1  0.5399250000000  0.4515900000000  0.5836640000000 1.0
C      1  0.4310890000000  0.5647610000000  0.4916650000000 1.0
C      1  0.5396410000000  0.4817090000000  0.5496950000000 1.0
C      1  0.5562730000000  0.5280270000000  0.4356580000000 1.0
C      1  0.4993850000000  0.5747570000000  0.4543930000000 1.0
C      1  0.5219210000000  0.4529920000000  0.4718630000000 1.0
C      1  0.4972750000000  0.4029120000000  0.5015550000000 1.0
C      1  0.5280340000000  0.5796240000000  0.5120850000000 1.0
C      1  0.4736730000000  0.5303770000000  0.6006930000000 1.0
C      1  0.5048320000000  0.5192310000000  0.5819450000000 1.0
C      1  0.5474500000000  0.4583140000000  0.4112920000000 1.0
C      1  0.5702510000000  0.4476620000000  0.5257390000000 1.0
C      1  0.5421890000000  0.5313160000000  0.5368010000000 1.0
C      1  0.5105010000000  0.5918390000000  0.5349400000000 1.0
C      1  0.5288000000000  0.4017940000000  0.5401540000000 1.0
C      1  0.4948600000000  0.5422400000000  0.5470610000000 1.0
C      1  0.5468260000000  0.5589340000000  0.4462580000000 1.0
C      1  0.5627820000000  0.5606720000000  0.4766040000000 1.0
C      1  0.5382790000000  0.4503990000000  0.5197010000000 1.0
C      1  0.4522030000000  0.4222150000000  0.4810320000000 1.0
C      1  0.4615210000000  0.4714860000000  0.4796680000000 1.0
C      1  0.4468810000000  0.5553460000000  0.5781560000000 1.0
C      1  0.4830100000000  0.4132940000000  0.4759000000000 1.0
C      1  0.5549570000000  0.4547430000000  0.5555130000000 1.0
C      1  0.5505250000000  0.4911890000000  0.4028090000000 1.0
C      1  0.5773870000000  0.5180350000000  0.5494450000000 1.0
C      1  0.4327520000000  0.4643420000000  0.5648340000000 1.0
C      1  0.5251250000000  0.5842350000000  0.5637610000000 1.0
C      1  0.4590820000000  0.6010770000000  0.4647020000000 1.0
C      1  0.4838180000000  0.4587560000000  0.5250500000000 1.0
C      1  0.4502630000000  0.4364860000000  0.5552900000000 1.0
C      1  0.4829330000000  0.4973340000000  0.5675620000000 1.0
C      1  0.5118970000000  0.4880380000000  0.3931480000000 1.0
C      1  0.4999990000000  0.5319620000000  0.4425160000000 1.0
C      1  0.4146260000000  0.4832330000000  0.4766750000000 1.0
END
