TITL C-2778436-5916-764 -0.00922002963690928 125000 -983.242522541234 0 0 171 (C1) n - 1
REM
REM in /home/nfs/bkarasulu/CARBON/AIRSS/Generating-Clusters/REBO/Only-C1/SD-CG/HFTN-CG
REM
REM
REM
REM
REM
REM ./C.cell (11c1c37f851c82e70ff6c80c92926a4b)
REM
REM compiler GCC version 9.2.1 20190827 (Red Hat 9.2.1-1)
REM options -cpp -mtune=generic -march=x86-64 -g -O0 -fpre-include=/usr/include/finclude/math-vector-fortran.h
REM seed -1091709239 -978416539 -492194409 467481956 -1171871522 1654158606 393859255 426082721 605485986 -173115200 1318060130 -1134284208 -959315479 643175669 -2037406721 425698327 1533377106 1437704180 1662210217 -1286226082 -1917921463 -927353555 122018667 1580457847 -889749899 663512267 105930924 -943418543 -1466677115 2081428337 2014969558 2060491743 803742053
REM
CELL 1.54180   50.00000   50.00000   50.00000   90.00000   90.00000   90.00000
LATT -1
SFAC C  
C      1  0.5778300000000  0.5649270000000  0.4816090000000 1.0
C      1  0.5388830000000  0.5173100000000  0.4947230000000 1.0
C      1  0.4715520000000  0.6044080000000  0.4546050000000 1.0
C      1  0.5595570000000  0.5271670000000  0.4304040000000 1.0
C      1  0.5417670000000  0.4073250000000  0.5387660000000 1.0
C      1  0.5322440000000  0.3922960000000  0.4882420000000 1.0
C      1  0.4850570000000  0.4657790000000  0.4115250000000 1.0
C      1  0.5094390000000  0.5535860000000  0.5708840000000 1.0
C      1  0.4971210000000  0.5836030000000  0.5744110000000 1.0
C      1  0.4747910000000  0.5026060000000  0.5864300000000 1.0
C      1  0.5850300000000  0.4398620000000  0.4942280000000 1.0
C      1  0.5696440000000  0.4481120000000  0.4504790000000 1.0
C      1  0.5205350000000  0.4266950000000  0.4580160000000 1.0
C      1  0.4414310000000  0.5753160000000  0.5467900000000 1.0
C      1  0.5033850000000  0.5882480000000  0.4815810000000 1.0
C      1  0.4450530000000  0.5084890000000  0.5751110000000 1.0
C      1  0.5788470000000  0.5097400000000  0.5733460000000 1.0
C      1  0.4342600000000  0.5478210000000  0.4522560000000 1.0
C      1  0.5001700000000  0.5230960000000  0.5633370000000 1.0
C      1  0.5391600000000  0.5537880000000  0.4300880000000 1.0
C      1  0.4738520000000  0.5355220000000  0.5806110000000 1.0
C      1  0.5164940000000  0.4880150000000  0.5272700000000 1.0
C      1  0.4228270000000  0.4702980000000  0.5542320000000 1.0
C      1  0.4484740000000  0.5559510000000  0.5690770000000 1.0
C      1  0.5246920000000  0.5780420000000  0.4493510000000 1.0
C      1  0.5599350000000  0.4853650000000  0.4837010000000 1.0
C      1  0.4758830000000  0.4411360000000  0.5042460000000 1.0
C      1  0.4935420000000  0.6160880000000  0.4985350000000 1.0
C      1  0.4878170000000  0.4778440000000  0.4429480000000 1.0
C      1  0.4709030000000  0.5480310000000  0.4000560000000 1.0
C      1  0.5269730000000  0.5036260000000  0.5624160000000 1.0
C      1  0.4880910000000  0.4200980000000  0.5809170000000 1.0
C      1  0.6029720000000  0.4922140000000  0.5763350000000 1.0
C      1  0.6200280000000  0.4937260000000  0.5215200000000 1.0
C      1  0.4646280000000  0.6188180000000  0.5088460000000 1.0
C      1  0.5454890000000  0.4913170000000  0.5126140000000 1.0
C      1  0.4127350000000  0.5217230000000  0.5463810000000 1.0
C      1  0.5583930000000  0.4534180000000  0.5099220000000 1.0
C      1  0.4578280000000  0.5046050000000  0.3948910000000 1.0
C      1  0.5406480000000  0.5052880000000  0.4644070000000 1.0
C      1  0.5229360000000  0.5318920000000  0.4133070000000 1.0
C      1  0.4262220000000  0.5803590000000  0.5034560000000 1.0
C      1  0.5016060000000  0.4998950000000  0.4240660000000 1.0
C      1  0.4687010000000  0.6216050000000  0.4333130000000 1.0
C      1  0.5811320000000  0.5617620000000  0.5153300000000 1.0
C      1  0.5518690000000  0.4971440000000  0.5804460000000 1.0
C      1  0.5126520000000  0.3973830000000  0.4674320000000 1.0
C      1  0.5429060000000  0.5902510000000  0.5309420000000 1.0
C      1  0.5299240000000  0.5501790000000  0.5369350000000 1.0
C      1  0.4863170000000  0.4809470000000  0.5198210000000 1.0
C      1  0.4347230000000  0.4969850000000  0.4173940000000 1.0
C      1  0.5435240000000  0.5535290000000  0.5676320000000 1.0
C      1  0.5001600000000  0.4908480000000  0.5999710000000 1.0
C      1  0.4949400000000  0.4061250000000  0.5019510000000 1.0
C      1  0.5349960000000  0.5074320000000  0.3978040000000 1.0
C      1  0.4204470000000  0.4398420000000  0.4642130000000 1.0
C      1  0.4462920000000  0.4636050000000  0.4653060000000 1.0
C      1  0.4291350000000  0.5280910000000  0.4302780000000 1.0
C      1  0.4595220000000  0.4303680000000  0.5653110000000 1.0
C      1  0.5936840000000  0.5261970000000  0.4334800000000 1.0
C      1  0.4840250000000  0.4281900000000  0.4232010000000 1.0
C      1  0.5242340000000  0.5191350000000  0.5318530000000 1.0
C      1  0.5739550000000  0.4263110000000  0.4697330000000 1.0
C      1  0.5507760000000  0.4873510000000  0.4123300000000 1.0
C      1  0.4619330000000  0.5933610000000  0.5311760000000 1.0
C      1  0.5096130000000  0.4582360000000  0.5982050000000 1.0
C      1  0.4449980000000  0.4466340000000  0.4947610000000 1.0
C      1  0.5457470000000  0.5741230000000  0.5032890000000 1.0
C      1  0.5141800000000  0.4321800000000  0.5856590000000 1.0
C      1  0.5557180000000  0.4086060000000  0.4880260000000 1.0
C      1  0.5130640000000  0.5353280000000  0.5040950000000 1.0
C      1  0.5121360000000  0.4179660000000  0.4195040000000 1.0
C      1  0.5544690000000  0.5539370000000  0.4594670000000 1.0
C      1  0.4110300000000  0.5513750000000  0.4704680000000 1.0
C      1  0.4779960000000  0.4605720000000  0.4774690000000 1.0
C      1  0.4278670000000  0.5319720000000  0.5683800000000 1.0
C      1  0.3842870000000  0.5080570000000  0.4944830000000 1.0
C      1  0.5205330000000  0.3902330000000  0.5179280000000 1.0
C      1  0.5484000000000  0.4662500000000  0.4616100000000 1.0
C      1  0.4918790000000  0.5377890000000  0.4149280000000 1.0
C      1  0.5867970000000  0.4654370000000  0.5844550000000 1.0
C      1  0.5550140000000  0.5419120000000  0.5051070000000 1.0
C      1  0.4723840000000  0.4272740000000  0.4730510000000 1.0
C      1  0.4559820000000  0.5152810000000  0.4709770000000 1.0
C      1  0.4771560000000  0.4633630000000  0.5926680000000 1.0
C      1  0.5196300000000  0.5629970000000  0.4903840000000 1.0
C      1  0.5923350000000  0.4245560000000  0.5204120000000 1.0
C      1  0.4540860000000  0.4164210000000  0.5341370000000 1.0
C      1  0.4535960000000  0.4907560000000  0.5210650000000 1.0
C      1  0.4143390000000  0.5374290000000  0.5200380000000 1.0
C      1  0.5135750000000  0.5950340000000  0.5135000000000 1.0
C      1  0.4797210000000  0.3953050000000  0.4756500000000 1.0
C      1  0.4907250000000  0.5792970000000  0.4529790000000 1.0
C      1  0.4474040000000  0.4258290000000  0.4526440000000 1.0
C      1  0.4630880000000  0.4983860000000  0.4453210000000 1.0
C      1  0.4607560000000  0.4044620000000  0.5035690000000 1.0
C      1  0.5271400000000  0.4595330000000  0.4976440000000 1.0
C      1  0.4795270000000  0.5564990000000  0.4837780000000 1.0
C      1  0.5100000000000  0.4668990000000  0.3978100000000 1.0
C      1  0.5906200000000  0.4862430000000  0.4773250000000 1.0
C      1  0.5236900000000  0.4396410000000  0.5239290000000 1.0
C      1  0.4537830000000  0.4607800000000  0.5309900000000 1.0
C      1  0.4363470000000  0.5266250000000  0.4949240000000 1.0
C      1  0.4516920000000  0.5138460000000  0.5421530000000 1.0
C      1  0.6022730000000  0.4357750000000  0.5426100000000 1.0
C      1  0.4926880000000  0.4591550000000  0.5621050000000 1.0
C      1  0.4834290000000  0.4498130000000  0.5331950000000 1.0
C      1  0.4356850000000  0.4164450000000  0.4839690000000 1.0
C      1  0.5651650000000  0.4751750000000  0.5357650000000 1.0
C      1  0.4743270000000  0.5672580000000  0.5876160000000 1.0
C      1  0.5185850000000  0.4733960000000  0.5559950000000 1.0
C      1  0.4939550000000  0.5054040000000  0.4870770000000 1.0
C      1  0.4329950000000  0.4761130000000  0.5006210000000 1.0
C      1  0.5922350000000  0.4630410000000  0.5516860000000 1.0
C      1  0.5606710000000  0.5349270000000  0.5363510000000 1.0
C      1  0.3890480000000  0.4894400000000  0.5217490000000 1.0
C      1  0.4149620000000  0.4700530000000  0.4547000000000 1.0
C      1  0.5595620000000  0.4716450000000  0.5918230000000 1.0
C      1  0.5084460000000  0.5706990000000  0.5348940000000 1.0
C      1  0.4482310000000  0.5539530000000  0.5077240000000 1.0
C      1  0.4954750000000  0.5319080000000  0.4681650000000 1.0
C      1  0.3907370000000  0.4854540000000  0.4706700000000 1.0
C      1  0.4318210000000  0.4417860000000  0.5391770000000 1.0
C      1  0.4569670000000  0.4384620000000  0.4269320000000 1.0
C      1  0.4069890000000  0.4933340000000  0.5443970000000 1.0
C      1  0.5213220000000  0.5126980000000  0.6009540000000 1.0
C      1  0.5599950000000  0.4199320000000  0.5176740000000 1.0
C      1  0.4664290000000  0.5551080000000  0.4537840000000 1.0
C      1  0.5852920000000  0.4755880000000  0.4495100000000 1.0
C      1  0.4994970000000  0.4471150000000  0.4437010000000 1.0
C      1  0.4858740000000  0.5028010000000  0.3966050000000 1.0
C      1  0.5348880000000  0.5314060000000  0.5919060000000 1.0
C      1  0.5347230000000  0.4366890000000  0.4284160000000 1.0
C      1  0.4835510000000  0.4126480000000  0.5499640000000 1.0
C      1  0.4180050000000  0.5010380000000  0.4459410000000 1.0
C      1  0.5496670000000  0.5836870000000  0.4721360000000 1.0
C      1  0.6096390000000  0.4920990000000  0.4965090000000 1.0
C      1  0.4853310000000  0.6002620000000  0.5486270000000 1.0
C      1  0.5027890000000  0.4778120000000  0.4823530000000 1.0
C      1  0.5762990000000  0.4968680000000  0.4288720000000 1.0
C      1  0.5411330000000  0.4543720000000  0.5482630000000 1.0
C      1  0.4538290000000  0.4722030000000  0.4239090000000 1.0
C      1  0.5215420000000  0.4665030000000  0.4588360000000 1.0
C      1  0.3975160000000  0.5331940000000  0.4918700000000 1.0
C      1  0.4598830000000  0.6057220000000  0.4798510000000 1.0
C      1  0.5251580000000  0.5417790000000  0.4655020000000 1.0
C      1  0.5220770000000  0.5168180000000  0.4425940000000 1.0
C      1  0.4811040000000  0.5313290000000  0.5051400000000 1.0
C      1  0.4833840000000  0.5567270000000  0.5481770000000 1.0
C      1  0.5916660000000  0.5408440000000  0.4641450000000 1.0
C      1  0.5700760000000  0.5175630000000  0.4622530000000 1.0
C      1  0.4207060000000  0.5003480000000  0.4799820000000 1.0
C      1  0.4658360000000  0.5804360000000  0.4997240000000 1.0
C      1  0.4793290000000  0.5279990000000  0.4412580000000 1.0
C      1  0.4186760000000  0.5680150000000  0.5300240000000 1.0
C      1  0.6152060000000  0.4864860000000  0.5479460000000 1.0
C      1  0.4507680000000  0.4596610000000  0.5707630000000 1.0
C      1  0.5644080000000  0.5680630000000  0.5445150000000 1.0
C      1  0.4108750000000  0.5783590000000  0.4802790000000 1.0
C      1  0.4707570000000  0.4833000000000  0.5592660000000 1.0
C      1  0.4842700000000  0.5067210000000  0.5417190000000 1.0
C      1  0.4009050000000  0.4725550000000  0.5000540000000 1.0
C      1  0.4652360000000  0.5400860000000  0.5310190000000 1.0
C      1  0.5163710000000  0.4288380000000  0.4917780000000 1.0
C      1  0.4467110000000  0.5319670000000  0.4026290000000 1.0
C      1  0.5089140000000  0.4142950000000  0.5380530000000 1.0
C      1  0.5130150000000  0.4938250000000  0.3844400000000 1.0
C      1  0.5348100000000  0.4275630000000  0.5653020000000 1.0
C      1  0.5355450000000  0.4617550000000  0.4136950000000 1.0
C      1  0.5680580000000  0.5079290000000  0.5455500000000 1.0
C      1  0.5188110000000  0.5986150000000  0.5527230000000 1.0
END
