TITL C-2778428-5639-1385 -0.0869286707803419 125000 -333.622881993105 0 0 56 (C1) n - 1
REM
REM in /home/nfs/bkarasulu/CARBON/AIRSS/Generating-Clusters/REBO/Only-C1/SD-CG/HFTN-CG
REM
REM
REM
REM
REM
REM ./C.cell (11c1c37f851c82e70ff6c80c92926a4b)
REM
REM compiler GCC version 9.2.1 20190827 (Red Hat 9.2.1-1)
REM options -cpp -mtune=generic -march=x86-64 -g -O0 -fpre-include=/usr/include/finclude/math-vector-fortran.h
REM seed 1857082478 1229997599 -1639912698 -473402594 2024605386 2073665590 1146577803 -1753018369 -2133391367 -369735981 1143591260 -1673005160 -854081655 -1008463482 -586395821 -172167050 -1755268045 1850966756 -1743412686 -1511202984 -482646532 798238689 -1813969017 362681396 1430858088 -313689702 -1154777623 -1548265422 401812305 -483015230 -357359278 -540302105 1402359439
REM
CELL 1.54180   50.00000   50.00000   50.00000   90.00000   90.00000   90.00000
LATT -1
SFAC C  
C      1  0.4453860000000  0.4477190000000  0.5313510000000 1.0
C      1  0.5226660000000  0.4671440000000  0.4715740000000 1.0
C      1  0.4663230000000  0.5295590000000  0.5467830000000 1.0
C      1  0.4748250000000  0.4557810000000  0.4746550000000 1.0
C      1  0.4317940000000  0.4693280000000  0.5440150000000 1.0
C      1  0.5020910000000  0.5060670000000  0.5238570000000 1.0
C      1  0.5271330000000  0.5466650000000  0.4206760000000 1.0
C      1  0.4848490000000  0.3633050000000  0.4768690000000 1.0
C      1  0.5282940000000  0.5787160000000  0.4633520000000 1.0
C      1  0.4753020000000  0.4112220000000  0.4998450000000 1.0
C      1  0.4874530000000  0.4201800000000  0.5243470000000 1.0
C      1  0.5405110000000  0.5001110000000  0.4370420000000 1.0
C      1  0.4859610000000  0.5716490000000  0.4962700000000 1.0
C      1  0.5323960000000  0.5201490000000  0.4186560000000 1.0
C      1  0.4351200000000  0.4729230000000  0.4888450000000 1.0
C      1  0.4502100000000  0.5121470000000  0.4336260000000 1.0
C      1  0.5349510000000  0.4334270000000  0.5061830000000 1.0
C      1  0.5024760000000  0.4965530000000  0.5765540000000 1.0
C      1  0.4928190000000  0.4953260000000  0.4992680000000 1.0
C      1  0.5687180000000  0.6147630000000  0.5131830000000 1.0
C      1  0.4409830000000  0.4472650000000  0.5027210000000 1.0
C      1  0.4423120000000  0.5169140000000  0.5469510000000 1.0
C      1  0.5515790000000  0.4484520000000  0.5393090000000 1.0
C      1  0.5051980000000  0.5826220000000  0.4789880000000 1.0
C      1  0.5693810000000  0.5541360000000  0.4716720000000 1.0
C      1  0.4301150000000  0.4956050000000  0.5328530000000 1.0
C      1  0.4953430000000  0.5139100000000  0.5940730000000 1.0
C      1  0.4584290000000  0.5687920000000  0.4900770000000 1.0
C      1  0.4802150000000  0.3865640000000  0.4880220000000 1.0
C      1  0.5615200000000  0.5964220000000  0.4952670000000 1.0
C      1  0.5201670000000  0.4833420000000  0.4477510000000 1.0
C      1  0.5141120000000  0.4908800000000  0.5455260000000 1.0
C      1  0.4901840000000  0.5313200000000  0.5316290000000 1.0
C      1  0.5759160000000  0.6331040000000  0.5310990000000 1.0
C      1  0.5732680000000  0.5286000000000  0.4640850000000 1.0
C      1  0.4978070000000  0.4694810000000  0.4864600000000 1.0
C      1  0.5406550000000  0.4495340000000  0.4846760000000 1.0
C      1  0.4307250000000  0.4973930000000  0.5038430000000 1.0
C      1  0.4650750000000  0.4928880000000  0.4457270000000 1.0
C      1  0.5830000000000  0.6511530000000  0.5487310000000 1.0
C      1  0.5259540000000  0.5675990000000  0.4375930000000 1.0
C      1  0.4614680000000  0.4327730000000  0.4873020000000 1.0
C      1  0.5539780000000  0.5772050000000  0.4764950000000 1.0
C      1  0.4822270000000  0.4463140000000  0.5648850000000 1.0
C      1  0.5312730000000  0.4624210000000  0.5474650000000 1.0
C      1  0.5055440000000  0.4645810000000  0.5686000000000 1.0
C      1  0.4459810000000  0.5194870000000  0.4925420000000 1.0
C      1  0.4726110000000  0.5110660000000  0.4868990000000 1.0
C      1  0.5637580000000  0.5062900000000  0.4519640000000 1.0
C      1  0.4545370000000  0.4755790000000  0.4659010000000 1.0
C      1  0.5156700000000  0.4235990000000  0.5227950000000 1.0
C      1  0.4930000000000  0.4894090000000  0.4405850000000 1.0
C      1  0.4701280000000  0.4359480000000  0.5415350000000 1.0
C      1  0.5720770000000  0.4343500000000  0.5310770000000 1.0
C      1  0.4949920000000  0.5549970000000  0.5172490000000 1.0
C      1  0.4415390000000  0.5472710000000  0.4907010000000 1.0
END
