TITL C-2778437-8639-952 0.00381991002266454 125000 -665.820410673255 0 0 113 (C1) n - 1
REM
REM in /home/nfs/bkarasulu/CARBON/AIRSS/Generating-Clusters/REBO/Only-C1/SD-CG/HFTN-CG
REM
REM
REM
REM
REM
REM ./C.cell (11c1c37f851c82e70ff6c80c92926a4b)
REM
REM compiler GCC version 9.2.1 20190827 (Red Hat 9.2.1-1)
REM options -cpp -mtune=generic -march=x86-64 -g -O0 -fpre-include=/usr/include/finclude/math-vector-fortran.h
REM seed -673713723 1068816362 -1782957811 5948676 592031978 -933380495 -299885223 -72722700 1589899093 1727569712 1750337415 -535822152 -1859134769 -228372405 -1863843701 -287814372 1867658238 728382196 -352544070 666520355 1833614045 -1723439696 -404143845 2106826984 -805745716 -1674414217 1956626905 -1883590771 -2095988604 1794400397 -544395640 -204689423 -1759733519
REM
CELL 1.54180   50.00000   50.00000   50.00000   90.00000   90.00000   90.00000
LATT -1
SFAC C  
C      1  0.5083660000000  0.4490060000000  0.5682980000000 1.0
C      1  0.4432790000000  0.4903300000000  0.4793220000000 1.0
C      1  0.4916130000000  0.4973960000000  0.5619500000000 1.0
C      1  0.5809190000000  0.4629540000000  0.5162580000000 1.0
C      1  0.5211740000000  0.5181430000000  0.6023310000000 1.0
C      1  0.4386230000000  0.5476420000000  0.4712160000000 1.0
C      1  0.4807090000000  0.5357480000000  0.5614950000000 1.0
C      1  0.5547230000000  0.4691020000000  0.4590500000000 1.0
C      1  0.5141440000000  0.4680350000000  0.5336150000000 1.0
C      1  0.4586620000000  0.5358280000000  0.5403180000000 1.0
C      1  0.5324480000000  0.4936380000000  0.4620230000000 1.0
C      1  0.4816610000000  0.5047920000000  0.5301730000000 1.0
C      1  0.5085590000000  0.5829020000000  0.4634000000000 1.0
C      1  0.5908130000000  0.5093490000000  0.4633360000000 1.0
C      1  0.5898900000000  0.5396400000000  0.5128200000000 1.0
C      1  0.4725310000000  0.4521570000000  0.4390010000000 1.0
C      1  0.5039400000000  0.4500100000000  0.4875580000000 1.0
C      1  0.4067520000000  0.4724700000000  0.5092540000000 1.0
C      1  0.5351750000000  0.4899800000000  0.5012880000000 1.0
C      1  0.4916620000000  0.4787300000000  0.4040360000000 1.0
C      1  0.4445630000000  0.5707130000000  0.5031640000000 1.0
C      1  0.5183210000000  0.5496410000000  0.4212250000000 1.0
C      1  0.5033960000000  0.5285520000000  0.5191220000000 1.0
C      1  0.5719400000000  0.5609440000000  0.5068060000000 1.0
C      1  0.5688430000000  0.4650230000000  0.4885290000000 1.0
C      1  0.4761420000000  0.5145790000000  0.5860390000000 1.0
C      1  0.5081610000000  0.4822390000000  0.4821330000000 1.0
C      1  0.4575660000000  0.5760840000000  0.4738910000000 1.0
C      1  0.5381890000000  0.4957640000000  0.4166620000000 1.0
C      1  0.4571010000000  0.4579010000000  0.5316570000000 1.0
C      1  0.5115360000000  0.5782510000000  0.5585790000000 1.0
C      1  0.5541730000000  0.4875970000000  0.5671450000000 1.0
C      1  0.4941130000000  0.5527290000000  0.4450010000000 1.0
C      1  0.5016860000000  0.4253420000000  0.4653560000000 1.0
C      1  0.5207510000000  0.5408680000000  0.4922450000000 1.0
C      1  0.4958890000000  0.4364820000000  0.4396270000000 1.0
C      1  0.5283630000000  0.5064710000000  0.5742380000000 1.0
C      1  0.4276630000000  0.5453860000000  0.5016180000000 1.0
C      1  0.5093080000000  0.5105920000000  0.4493210000000 1.0
C      1  0.5791310000000  0.4756830000000  0.5478030000000 1.0
C      1  0.5625920000000  0.5198160000000  0.4370820000000 1.0
C      1  0.5681940000000  0.5343780000000  0.4655200000000 1.0
C      1  0.5264780000000  0.5819600000000  0.5319650000000 1.0
C      1  0.4732070000000  0.5211630000000  0.4886910000000 1.0
C      1  0.5559020000000  0.5076270000000  0.4825990000000 1.0
C      1  0.4260480000000  0.5114750000000  0.4341480000000 1.0
C      1  0.5624670000000  0.4896690000000  0.4362100000000 1.0
C      1  0.4191190000000  0.4611850000000  0.4664570000000 1.0
C      1  0.5036000000000  0.5227210000000  0.4206730000000 1.0
C      1  0.5187480000000  0.4732320000000  0.4136210000000 1.0
C      1  0.5057390000000  0.4106530000000  0.5107170000000 1.0
C      1  0.4251080000000  0.4790840000000  0.4456140000000 1.0
C      1  0.5413060000000  0.4440820000000  0.4499680000000 1.0
C      1  0.4306360000000  0.4541520000000  0.5123750000000 1.0
C      1  0.4779090000000  0.4250800000000  0.5125640000000 1.0
C      1  0.4643170000000  0.4645450000000  0.5802610000000 1.0
C      1  0.5921670000000  0.4927450000000  0.5216890000000 1.0
C      1  0.6005930000000  0.5093170000000  0.5483960000000 1.0
C      1  0.5151670000000  0.5879260000000  0.5020980000000 1.0
C      1  0.5209180000000  0.4488750000000  0.4295780000000 1.0
C      1  0.5821850000000  0.5139290000000  0.5020850000000 1.0
C      1  0.4940870000000  0.5634420000000  0.5680400000000 1.0
C      1  0.4304190000000  0.4937150000000  0.5065890000000 1.0
C      1  0.5439650000000  0.4298620000000  0.5330930000000 1.0
C      1  0.4336380000000  0.5237860000000  0.5435600000000 1.0
C      1  0.3692510000000  0.4715540000000  0.4745350000000 1.0
C      1  0.4515970000000  0.4907260000000  0.5301400000000 1.0
C      1  0.4671020000000  0.5320680000000  0.4478470000000 1.0
C      1  0.4704880000000  0.4430010000000  0.4878100000000 1.0
C      1  0.4856330000000  0.5075380000000  0.4049220000000 1.0
C      1  0.5422030000000  0.5362800000000  0.5170490000000 1.0
C      1  0.5499160000000  0.5639480000000  0.5278550000000 1.0
C      1  0.4857640000000  0.5809020000000  0.4853690000000 1.0
C      1  0.4993920000000  0.5316680000000  0.4714020000000 1.0
C      1  0.4565890000000  0.4906950000000  0.5803020000000 1.0
C      1  0.4492800000000  0.4895930000000  0.4252200000000 1.0
C      1  0.4645090000000  0.4673580000000  0.4658290000000 1.0
C      1  0.4681300000000  0.4668260000000  0.4156720000000 1.0
C      1  0.4794590000000  0.4970420000000  0.4390780000000 1.0
C      1  0.4792140000000  0.4443430000000  0.5672320000000 1.0
C      1  0.5881230000000  0.4863080000000  0.4722410000000 1.0
C      1  0.5616120000000  0.5600740000000  0.4801120000000 1.0
C      1  0.4895550000000  0.5583060000000  0.5097650000000 1.0
C      1  0.5016250000000  0.4108860000000  0.5409960000000 1.0
C      1  0.3946350000000  0.4680020000000  0.4827960000000 1.0
C      1  0.5363440000000  0.4575090000000  0.4953360000000 1.0
C      1  0.5136090000000  0.4758460000000  0.5727790000000 1.0
C      1  0.4820390000000  0.4940530000000  0.4729760000000 1.0
C      1  0.4655660000000  0.5379730000000  0.5123450000000 1.0
C      1  0.4229090000000  0.5225990000000  0.5169820000000 1.0
C      1  0.5689980000000  0.4396730000000  0.5341890000000 1.0
C      1  0.5858470000000  0.4979560000000  0.5726970000000 1.0
C      1  0.4870600000000  0.4724040000000  0.5310580000000 1.0
C      1  0.4599560000000  0.5816330000000  0.5231620000000 1.0
C      1  0.4428630000000  0.5148580000000  0.4631820000000 1.0
C      1  0.5316020000000  0.4264560000000  0.4708510000000 1.0
C      1  0.4965510000000  0.5200770000000  0.6084930000000 1.0
C      1  0.4349500000000  0.4967770000000  0.5592420000000 1.0
C      1  0.4328290000000  0.4493660000000  0.5519030000000 1.0
C      1  0.4375420000000  0.4463610000000  0.4854880000000 1.0
C      1  0.5225060000000  0.4283550000000  0.5525700000000 1.0
C      1  0.6031680000000  0.5363170000000  0.5383110000000 1.0
C      1  0.4361600000000  0.5438570000000  0.4371100000000 1.0
C      1  0.5423790000000  0.5297440000000  0.4169770000000 1.0
C      1  0.4198130000000  0.4690600000000  0.5616700000000 1.0
C      1  0.5384590000000  0.5100030000000  0.5250590000000 1.0
C      1  0.5105520000000  0.5231820000000  0.5504870000000 1.0
C      1  0.4737670000000  0.4245880000000  0.5458040000000 1.0
C      1  0.4907370000000  0.5873850000000  0.5257630000000 1.0
C      1  0.5323940000000  0.5682480000000  0.4803090000000 1.0
C      1  0.5357140000000  0.4855030000000  0.5410180000000 1.0
C      1  0.5324180000000  0.4249440000000  0.5032460000000 1.0
C      1  0.4622060000000  0.5650480000000  0.4443240000000 1.0
END
