TITL C-2778429-3646-574 0.00305240406788388 125000 -565.149930515167 0 0 98 (C1) n - 1
REM
REM in /home/nfs/bkarasulu/CARBON/AIRSS/Generating-Clusters/REBO/Only-C1/SD-CG/HFTN-CG
REM
REM
REM
REM
REM
REM ./C.cell (11c1c37f851c82e70ff6c80c92926a4b)
REM
REM compiler GCC version 9.2.1 20190827 (Red Hat 9.2.1-1)
REM options -cpp -mtune=generic -march=x86-64 -g -O0 -fpre-include=/usr/include/finclude/math-vector-fortran.h
REM seed 1532010241 2004191102 -1306888969 2033631770 -1440752987 51213767 -1242864124 -291424764 294754577 654315703 300135611 969342846 1378143702 994490148 -1465497550 -1828001287 176381930 -1493721024 23960673 66661079 1765881681 -1840535922 -346085842 1485900656 1768684231 705669381 -1278278114 11947800 1568498070 -1312404112 715655080 -59333017 31424597
REM
CELL 1.54180   50.00000   50.00000   50.00000   90.00000   90.00000   90.00000
LATT -1
SFAC C  
C      1  0.4784020000000  0.4962410000000  0.4185650000000 1.0
C      1  0.4742850000000  0.5088310000000  0.5082790000000 1.0
C      1  0.4165450000000  0.5195110000000  0.4777800000000 1.0
C      1  0.5093170000000  0.4088000000000  0.5002540000000 1.0
C      1  0.4493360000000  0.5168880000000  0.4780890000000 1.0
C      1  0.5456750000000  0.5455130000000  0.5726420000000 1.0
C      1  0.5032840000000  0.5535960000000  0.5448300000000 1.0
C      1  0.5646510000000  0.5039790000000  0.5223620000000 1.0
C      1  0.5291820000000  0.5211760000000  0.4269040000000 1.0
C      1  0.5414760000000  0.5732260000000  0.5036830000000 1.0
C      1  0.4992220000000  0.4751960000000  0.4152540000000 1.0
C      1  0.4569370000000  0.5498190000000  0.5617710000000 1.0
C      1  0.5012000000000  0.5054640000000  0.5158450000000 1.0
C      1  0.4849100000000  0.4531650000000  0.5169490000000 1.0
C      1  0.4542360000000  0.5225110000000  0.5673630000000 1.0
C      1  0.5426590000000  0.4495460000000  0.5231690000000 1.0
C      1  0.5110220000000  0.4577510000000  0.5330430000000 1.0
C      1  0.4011200000000  0.4967900000000  0.4943390000000 1.0
C      1  0.4933630000000  0.5829350000000  0.5037130000000 1.0
C      1  0.5751540000000  0.5481610000000  0.4831030000000 1.0
C      1  0.5381640000000  0.4412730000000  0.4679620000000 1.0
C      1  0.4481080000000  0.4415170000000  0.4646970000000 1.0
C      1  0.5390590000000  0.4918900000000  0.4659610000000 1.0
C      1  0.4837100000000  0.5141590000000  0.4413310000000 1.0
C      1  0.4728990000000  0.5016510000000  0.5474830000000 1.0
C      1  0.4489200000000  0.4742530000000  0.5633740000000 1.0
C      1  0.4243960000000  0.4864020000000  0.4720620000000 1.0
C      1  0.5132990000000  0.4819800000000  0.5867040000000 1.0
C      1  0.5106220000000  0.5103400000000  0.4603000000000 1.0
C      1  0.4719420000000  0.4459740000000  0.4497370000000 1.0
C      1  0.5652900000000  0.5246460000000  0.5562530000000 1.0
C      1  0.5703600000000  0.5570670000000  0.5138910000000 1.0
C      1  0.5506930000000  0.4498970000000  0.4922530000000 1.0
C      1  0.5636660000000  0.4900510000000  0.4422320000000 1.0
C      1  0.4859340000000  0.4121600000000  0.4768190000000 1.0
C      1  0.4640900000000  0.5576360000000  0.5139800000000 1.0
C      1  0.4337360000000  0.5573260000000  0.5038200000000 1.0
C      1  0.5983700000000  0.5030790000000  0.5261280000000 1.0
C      1  0.5533530000000  0.4935190000000  0.5529280000000 1.0
C      1  0.5647120000000  0.4673980000000  0.5379080000000 1.0
C      1  0.4509930000000  0.4842350000000  0.4239640000000 1.0
C      1  0.4853580000000  0.5766920000000  0.4766420000000 1.0
C      1  0.4731230000000  0.5583100000000  0.5401070000000 1.0
C      1  0.5722190000000  0.5084190000000  0.4242220000000 1.0
C      1  0.4929440000000  0.5377500000000  0.4720160000000 1.0
C      1  0.5456630000000  0.4612010000000  0.4413680000000 1.0
C      1  0.5179490000000  0.5283770000000  0.5176120000000 1.0
C      1  0.5056330000000  0.5358820000000  0.4160450000000 1.0
C      1  0.5264460000000  0.4871970000000  0.4283710000000 1.0
C      1  0.4412480000000  0.4634300000000  0.4857050000000 1.0
C      1  0.5401950000000  0.4206200000000  0.5360360000000 1.0
C      1  0.5586400000000  0.5594730000000  0.4595870000000 1.0
C      1  0.4661660000000  0.5401840000000  0.4849050000000 1.0
C      1  0.5100740000000  0.5714010000000  0.4595900000000 1.0
C      1  0.5816460000000  0.5327240000000  0.5293730000000 1.0
C      1  0.5263950000000  0.4220390000000  0.5611030000000 1.0
C      1  0.5318740000000  0.5524730000000  0.4405870000000 1.0
C      1  0.5905240000000  0.4742760000000  0.5291910000000 1.0
C      1  0.4607270000000  0.4895420000000  0.4885220000000 1.0
C      1  0.5090660000000  0.4875390000000  0.5391770000000 1.0
C      1  0.5576000000000  0.4977510000000  0.4945560000000 1.0
C      1  0.5138990000000  0.4709850000000  0.4566530000000 1.0
C      1  0.5008730000000  0.5203000000000  0.5526860000000 1.0
C      1  0.5134660000000  0.5735030000000  0.5199860000000 1.0
C      1  0.5690770000000  0.4703600000000  0.4866060000000 1.0
C      1  0.4343970000000  0.4040570000000  0.5233240000000 1.0
C      1  0.5258990000000  0.4916940000000  0.5644190000000 1.0
C      1  0.4864190000000  0.5468990000000  0.4396450000000 1.0
C      1  0.5069200000000  0.4429160000000  0.5612320000000 1.0
C      1  0.5169090000000  0.5432820000000  0.4942890000000 1.0
C      1  0.4911270000000  0.4588030000000  0.4658490000000 1.0
C      1  0.4184430000000  0.5089010000000  0.5376540000000 1.0
C      1  0.4399960000000  0.5561740000000  0.4514490000000 1.0
C      1  0.5586840000000  0.5241900000000  0.4783620000000 1.0
C      1  0.4292640000000  0.5338720000000  0.5220140000000 1.0
C      1  0.4126760000000  0.4621330000000  0.5262180000000 1.0
C      1  0.5504540000000  0.5751680000000  0.5348780000000 1.0
C      1  0.5321180000000  0.5305080000000  0.4729180000000 1.0
C      1  0.4553110000000  0.5336250000000  0.4424220000000 1.0
C      1  0.5318420000000  0.4016660000000  0.5182690000000 1.0
C      1  0.5328680000000  0.5271210000000  0.5465530000000 1.0
C      1  0.4497130000000  0.4243330000000  0.5167130000000 1.0
C      1  0.4793790000000  0.4227620000000  0.5087130000000 1.0
C      1  0.4552620000000  0.5210210000000  0.5274420000000 1.0
C      1  0.4048380000000  0.4893230000000  0.5215530000000 1.0
C      1  0.4411530000000  0.4538800000000  0.5156010000000 1.0
C      1  0.4711270000000  0.4577950000000  0.4234870000000 1.0
C      1  0.4819600000000  0.4673040000000  0.4903080000000 1.0
C      1  0.4955240000000  0.4597510000000  0.5819810000000 1.0
C      1  0.4409270000000  0.5030720000000  0.4473290000000 1.0
C      1  0.4520750000000  0.5695160000000  0.4777350000000 1.0
C      1  0.5321380000000  0.5660940000000  0.5547600000000 1.0
C      1  0.5365480000000  0.5734700000000  0.4741820000000 1.0
C      1  0.4630520000000  0.4712870000000  0.5347200000000 1.0
C      1  0.4670040000000  0.4640610000000  0.5831300000000 1.0
C      1  0.5809410000000  0.4715270000000  0.4619970000000 1.0
C      1  0.4351330000000  0.5003970000000  0.5604940000000 1.0
C      1  0.5148000000000  0.4274170000000  0.4719900000000 1.0
END
