TITL C-2778432-5617-53 -0.0109473963583722 125000 -1169.19356654728 0 0 199 (C1) n - 1
REM
REM in /home/nfs/bkarasulu/CARBON/AIRSS/Generating-Clusters/REBO/Only-C1/SD-CG/HFTN-CG
REM
REM
REM
REM
REM
REM ./C.cell (11c1c37f851c82e70ff6c80c92926a4b)
REM
REM compiler GCC version 9.2.1 20190827 (Red Hat 9.2.1-1)
REM options -cpp -mtune=generic -march=x86-64 -g -O0 -fpre-include=/usr/include/finclude/math-vector-fortran.h
REM seed 373087765 -1139074311 429684537 -1646007515 -646150113 1814767346 1929659688 1922422792 1554833849 -1454631030 2000652247 957150232 -1829417310 1464316254 122730616 -1876937407 127304630 -948509421 499766265 -396778439 1867677840 -1014810747 -1537065813 -994879120 -691981721 901945074 1733846633 -2051333354 -1072193901 -1655359618 1471469717 1918729771 -1092549121
REM
CELL 1.54180   50.00000   50.00000   50.00000   90.00000   90.00000   90.00000
LATT -1
SFAC C  
C      1  0.5109480000000  0.5128640000000  0.5112260000000 1.0
C      1  0.4230360000000  0.4484490000000  0.5363640000000 1.0
C      1  0.4473840000000  0.5732180000000  0.4781590000000 1.0
C      1  0.5298200000000  0.4725910000000  0.5483450000000 1.0
C      1  0.4236560000000  0.4280880000000  0.5638140000000 1.0
C      1  0.4681990000000  0.5591900000000  0.5787980000000 1.0
C      1  0.4254440000000  0.5394770000000  0.5291740000000 1.0
C      1  0.4968200000000  0.4682380000000  0.4640190000000 1.0
C      1  0.5047480000000  0.5046480000000  0.4177880000000 1.0
C      1  0.5488870000000  0.4004970000000  0.5088520000000 1.0
C      1  0.4767310000000  0.3965880000000  0.5546020000000 1.0
C      1  0.4637400000000  0.5935720000000  0.4563680000000 1.0
C      1  0.5385410000000  0.4051630000000  0.4558300000000 1.0
C      1  0.5406090000000  0.4608130000000  0.5182720000000 1.0
C      1  0.5435880000000  0.5025860000000  0.5480440000000 1.0
C      1  0.4107630000000  0.5752280000000  0.4941200000000 1.0
C      1  0.5114350000000  0.6158160000000  0.5151000000000 1.0
C      1  0.5431020000000  0.5655010000000  0.4543610000000 1.0
C      1  0.5071410000000  0.3935940000000  0.5025550000000 1.0
C      1  0.6083690000000  0.4830110000000  0.4461200000000 1.0
C      1  0.4382540000000  0.5858400000000  0.5352190000000 1.0
C      1  0.5878510000000  0.4333920000000  0.5029120000000 1.0
C      1  0.5425540000000  0.5128370000000  0.4018070000000 1.0
C      1  0.4239730000000  0.3991860000000  0.5001660000000 1.0
C      1  0.4914720000000  0.4806280000000  0.5243980000000 1.0
C      1  0.5043800000000  0.5751380000000  0.4549460000000 1.0
C      1  0.5049060000000  0.4356680000000  0.4205970000000 1.0
C      1  0.6246080000000  0.4996600000000  0.5015180000000 1.0
C      1  0.4983010000000  0.5102200000000  0.4498870000000 1.0
C      1  0.4028660000000  0.5248560000000  0.5789960000000 1.0
C      1  0.5117780000000  0.5379820000000  0.5955620000000 1.0
C      1  0.4690190000000  0.5867130000000  0.5331860000000 1.0
C      1  0.5426170000000  0.4848110000000  0.4045850000000 1.0
C      1  0.5385160000000  0.5758010000000  0.4155040000000 1.0
C      1  0.4131740000000  0.4756980000000  0.4670950000000 1.0
C      1  0.5176900000000  0.4816670000000  0.5056620000000 1.0
C      1  0.5423810000000  0.4285100000000  0.5273990000000 1.0
C      1  0.4860710000000  0.6095640000000  0.4635830000000 1.0
C      1  0.5219390000000  0.4881900000000  0.6071160000000 1.0
C      1  0.4800530000000  0.5188640000000  0.5034540000000 1.0
C      1  0.5183030000000  0.4465300000000  0.6169630000000 1.0
C      1  0.5162510000000  0.5688640000000  0.5815500000000 1.0
C      1  0.4634590000000  0.4976040000000  0.5325720000000 1.0
C      1  0.4584700000000  0.4298400000000  0.4447070000000 1.0
C      1  0.5517410000000  0.4247490000000  0.5692920000000 1.0
C      1  0.5642740000000  0.5343550000000  0.4923920000000 1.0
C      1  0.5241770000000  0.3932570000000  0.5311450000000 1.0
C      1  0.4169420000000  0.4499060000000  0.4265730000000 1.0
C      1  0.5621560000000  0.5707410000000  0.5678500000000 1.0
C      1  0.4465970000000  0.4817040000000  0.6022340000000 1.0
C      1  0.5327700000000  0.5296670000000  0.4916960000000 1.0
C      1  0.5955700000000  0.4671820000000  0.4802370000000 1.0
C      1  0.5973710000000  0.5098820000000  0.4286380000000 1.0
C      1  0.5828700000000  0.4578300000000  0.5517320000000 1.0
C      1  0.4864390000000  0.5979930000000  0.5558590000000 1.0
C      1  0.4039420000000  0.4502710000000  0.4837690000000 1.0
C      1  0.4498330000000  0.4161760000000  0.5482240000000 1.0
C      1  0.5271150000000  0.5264610000000  0.4282560000000 1.0
C      1  0.4709460000000  0.5448900000000  0.4367700000000 1.0
C      1  0.3918350000000  0.5047000000000  0.5006620000000 1.0
C      1  0.5735980000000  0.5784760000000  0.5173820000000 1.0
C      1  0.5411890000000  0.5897750000000  0.4729340000000 1.0
C      1  0.4965820000000  0.5664920000000  0.5334110000000 1.0
C      1  0.5543900000000  0.4078390000000  0.4786460000000 1.0
C      1  0.4258620000000  0.5928570000000  0.5087390000000 1.0
C      1  0.5287320000000  0.5157740000000  0.5997590000000 1.0
C      1  0.5595390000000  0.5594510000000  0.5365120000000 1.0
C      1  0.4462670000000  0.4243470000000  0.4760770000000 1.0
C      1  0.5173480000000  0.4344640000000  0.4728340000000 1.0
C      1  0.5433920000000  0.4487830000000  0.4864450000000 1.0
C      1  0.5133780000000  0.6039210000000  0.4479700000000 1.0
C      1  0.4641140000000  0.5032900000000  0.6008060000000 1.0
C      1  0.4344350000000  0.5219210000000  0.5750440000000 1.0
C      1  0.5097310000000  0.5424440000000  0.3889010000000 1.0
C      1  0.4559340000000  0.4543020000000  0.5379020000000 1.0
C      1  0.4876200000000  0.5803370000000  0.5777440000000 1.0
C      1  0.5148770000000  0.4734190000000  0.4125550000000 1.0
C      1  0.4296780000000  0.5631480000000  0.5487790000000 1.0
C      1  0.6194170000000  0.4887660000000  0.4766180000000 1.0
C      1  0.5808460000000  0.5742850000000  0.4642110000000 1.0
C      1  0.3976230000000  0.5549690000000  0.4726910000000 1.0
C      1  0.5505600000000  0.5107950000000  0.4453570000000 1.0
C      1  0.4337950000000  0.4922280000000  0.5583750000000 1.0
C      1  0.4703520000000  0.4016800000000  0.5156990000000 1.0
C      1  0.4592380000000  0.5942540000000  0.5023560000000 1.0
C      1  0.5388610000000  0.4436770000000  0.5923410000000 1.0
C      1  0.5199830000000  0.4817380000000  0.4754320000000 1.0
C      1  0.4417750000000  0.5533570000000  0.5726150000000 1.0
C      1  0.4718700000000  0.4446310000000  0.4220410000000 1.0
C      1  0.4846260000000  0.6144380000000  0.4941230000000 1.0
C      1  0.5741500000000  0.4166500000000  0.5244800000000 1.0
C      1  0.4518860000000  0.5292290000000  0.5119960000000 1.0
C      1  0.5492920000000  0.4813150000000  0.4623230000000 1.0
C      1  0.4555690000000  0.3958070000000  0.4877170000000 1.0
C      1  0.5942020000000  0.5022830000000  0.5443970000000 1.0
C      1  0.4801030000000  0.5307960000000  0.4652960000000 1.0
C      1  0.4853130000000  0.4260180000000  0.4632820000000 1.0
C      1  0.4864590000000  0.5350880000000  0.5751710000000 1.0
C      1  0.5701090000000  0.4872090000000  0.5913340000000 1.0
C      1  0.5562060000000  0.5292620000000  0.5311550000000 1.0
C      1  0.4619490000000  0.4675450000000  0.3987430000000 1.0
C      1  0.5687090000000  0.4337740000000  0.4812760000000 1.0
C      1  0.5340780000000  0.5763040000000  0.5231050000000 1.0
C      1  0.6083250000000  0.4892170000000  0.5235260000000 1.0
C      1  0.5000290000000  0.4235900000000  0.5002630000000 1.0
C      1  0.4214240000000  0.5442760000000  0.4335080000000 1.0
C      1  0.5359180000000  0.6009440000000  0.5005660000000 1.0
C      1  0.4320700000000  0.5178690000000  0.4172200000000 1.0
C      1  0.5688510000000  0.4830040000000  0.4859930000000 1.0
C      1  0.5635660000000  0.4706000000000  0.4161960000000 1.0
C      1  0.4563400000000  0.4799350000000  0.4361260000000 1.0
C      1  0.5078270000000  0.4486040000000  0.3918580000000 1.0
C      1  0.6016600000000  0.5426940000000  0.5214770000000 1.0
C      1  0.5174490000000  0.5521590000000  0.5106790000000 1.0
C      1  0.4292450000000  0.4819440000000  0.4960470000000 1.0
C      1  0.4123250000000  0.5068860000000  0.4428320000000 1.0
C      1  0.3945150000000  0.4807170000000  0.5199320000000 1.0
C      1  0.5333050000000  0.5845580000000  0.5562000000000 1.0
C      1  0.3891940000000  0.5139640000000  0.5571560000000 1.0
C      1  0.5392790000000  0.5997780000000  0.4342960000000 1.0
C      1  0.4922470000000  0.3819110000000  0.5307800000000 1.0
C      1  0.4703630000000  0.4856820000000  0.4639510000000 1.0
C      1  0.4673800000000  0.4659970000000  0.5084760000000 1.0
C      1  0.4983130000000  0.5868250000000  0.5063830000000 1.0
C      1  0.4948610000000  0.5418240000000  0.4888370000000 1.0
C      1  0.4341560000000  0.4478960000000  0.5896410000000 1.0
C      1  0.4030180000000  0.5189060000000  0.5277510000000 1.0
C      1  0.5119950000000  0.6069620000000  0.5458310000000 1.0
C      1  0.4142140000000  0.4273650000000  0.4707190000000 1.0
C      1  0.4260510000000  0.4290870000000  0.4422260000000 1.0
C      1  0.4620380000000  0.4757260000000  0.5636720000000 1.0
C      1  0.4301810000000  0.4981320000000  0.5248250000000 1.0
C      1  0.5914890000000  0.4668720000000  0.5766680000000 1.0
C      1  0.4871360000000  0.5247330000000  0.3880550000000 1.0
C      1  0.4968340000000  0.4965680000000  0.3856630000000 1.0
C      1  0.5189680000000  0.5519340000000  0.4409140000000 1.0
C      1  0.5082870000000  0.5420940000000  0.5530950000000 1.0
C      1  0.4789000000000  0.4319700000000  0.5257800000000 1.0
C      1  0.5019230000000  0.3811060000000  0.4752820000000 1.0
C      1  0.5705430000000  0.4754760000000  0.5252290000000 1.0
C      1  0.4512840000000  0.5138680000000  0.4629940000000 1.0
C      1  0.5854440000000  0.5402600000000  0.4658780000000 1.0
C      1  0.4657180000000  0.4542230000000  0.6019380000000 1.0
C      1  0.5963870000000  0.4613560000000  0.5122500000000 1.0
C      1  0.5586250000000  0.5509730000000  0.4276140000000 1.0
C      1  0.5457340000000  0.4720080000000  0.6029510000000 1.0
C      1  0.4947390000000  0.4681040000000  0.6131790000000 1.0
C      1  0.4894130000000  0.4703900000000  0.4325490000000 1.0
C      1  0.5705730000000  0.4957740000000  0.5596110000000 1.0
C      1  0.3970070000000  0.5479320000000  0.4454820000000 1.0
C      1  0.5090270000000  0.5668110000000  0.4052190000000 1.0
C      1  0.5710910000000  0.5380070000000  0.5680990000000 1.0
C      1  0.4342310000000  0.5150430000000  0.4883340000000 1.0
C      1  0.5235530000000  0.4189240000000  0.5519130000000 1.0
C      1  0.4853020000000  0.4988450000000  0.6185720000000 1.0
C      1  0.4754830000000  0.5066850000000  0.5718340000000 1.0
C      1  0.5425390000000  0.5466010000000  0.3977300000000 1.0
C      1  0.5629900000000  0.6037460000000  0.5168250000000 1.0
C      1  0.4511210000000  0.5255840000000  0.5455880000000 1.0
C      1  0.4854540000000  0.5687880000000  0.4187620000000 1.0
C      1  0.4896310000000  0.4585260000000  0.5698730000000 1.0
C      1  0.5201110000000  0.4484700000000  0.5663100000000 1.0
C      1  0.5149270000000  0.5151260000000  0.5409910000000 1.0
C      1  0.5251150000000  0.5126590000000  0.4659970000000 1.0
C      1  0.5931850000000  0.5311080000000  0.5459420000000 1.0
C      1  0.4471760000000  0.4926210000000  0.3996660000000 1.0
C      1  0.4610140000000  0.4316810000000  0.5769040000000 1.0
C      1  0.3988660000000  0.5037370000000  0.4735810000000 1.0
C      1  0.4683590000000  0.5109820000000  0.4331220000000 1.0
C      1  0.4411090000000  0.4498290000000  0.4981500000000 1.0
C      1  0.4991130000000  0.4882680000000  0.5555950000000 1.0
C      1  0.5736650000000  0.4308910000000  0.5521550000000 1.0
C      1  0.4013890000000  0.4855180000000  0.5494840000000 1.0
C      1  0.4672350000000  0.4932590000000  0.4931070000000 1.0
C      1  0.5892000000000  0.4808850000000  0.4179970000000 1.0
C      1  0.4872470000000  0.4699200000000  0.3838840000000 1.0
C      1  0.6038220000000  0.5392230000000  0.4944770000000 1.0
C      1  0.5224730000000  0.3820730000000  0.4559760000000 1.0
C      1  0.5379330000000  0.5465750000000  0.5672400000000 1.0
C      1  0.4419550000000  0.4206210000000  0.5156370000000 1.0
C      1  0.4589650000000  0.5228190000000  0.3964900000000 1.0
C      1  0.4837400000000  0.4494740000000  0.4872690000000 1.0
C      1  0.4979390000000  0.5708160000000  0.4814150000000 1.0
C      1  0.5563100000000  0.5173220000000  0.5896430000000 1.0
C      1  0.4270700000000  0.5469690000000  0.4862950000000 1.0
C      1  0.5295390000000  0.4341430000000  0.4419180000000 1.0
C      1  0.4616130000000  0.5828020000000  0.4290350000000 1.0
C      1  0.5745770000000  0.5663650000000  0.4930780000000 1.0
C      1  0.5856260000000  0.4578900000000  0.4504280000000 1.0
C      1  0.5763100000000  0.5274950000000  0.4404330000000 1.0
C      1  0.5677270000000  0.5055320000000  0.5097040000000 1.0
C      1  0.4868870000000  0.4285290000000  0.5568330000000 1.0
C      1  0.4267240000000  0.4770580000000  0.4376130000000 1.0
C      1  0.4438810000000  0.5603760000000  0.4466010000000 1.0
C      1  0.4784440000000  0.3957820000000  0.4675230000000 1.0
C      1  0.4041310000000  0.4552640000000  0.5119860000000 1.0
C      1  0.5535500000000  0.4553480000000  0.4422080000000 1.0
C      1  0.4119920000000  0.4599020000000  0.5666460000000 1.0
C      1  0.5654550000000  0.5983130000000  0.4526160000000 1.0
END
