TITL C-2778430-5657-1187 0.0057970590399607 125000 -875.796155917052 0 0 151 (C1) n - 1
REM
REM in /home/nfs/bkarasulu/CARBON/AIRSS/Generating-Clusters/REBO/Only-C1/SD-CG/HFTN-CG
REM
REM
REM
REM
REM
REM ./C.cell (11c1c37f851c82e70ff6c80c92926a4b)
REM
REM compiler GCC version 9.2.1 20190827 (Red Hat 9.2.1-1)
REM options -cpp -mtune=generic -march=x86-64 -g -O0 -fpre-include=/usr/include/finclude/math-vector-fortran.h
REM seed -763482483 1750137934 -126775668 -1168780033 -1452049561 1028996531 1227257583 -2067071016 934429629 1215100893 1310882073 -2060373680 -1761573086 1450701202 -2004972158 1039863954 -220889592 -1818212992 -332667193 1277209723 -1276164963 -551260921 -2014854036 1555423572 -681280308 1323553093 -1287776213 -2146323846 -1923876092 1248612460 749806689 1443794027 -1982416121
REM
CELL 1.54180   50.00000   50.00000   50.00000   90.00000   90.00000   90.00000
LATT -1
SFAC C  
C      1  0.5685550000000  0.5750840000000  0.5232070000000 1.0
C      1  0.4366710000000  0.4847150000000  0.5121020000000 1.0
C      1  0.5223810000000  0.4190190000000  0.4547770000000 1.0
C      1  0.4605770000000  0.4665430000000  0.4380340000000 1.0
C      1  0.5244980000000  0.4896280000000  0.5493680000000 1.0
C      1  0.4732900000000  0.5920470000000  0.4548210000000 1.0
C      1  0.4628240000000  0.5082790000000  0.4905440000000 1.0
C      1  0.5842080000000  0.5494560000000  0.5133280000000 1.0
C      1  0.4666630000000  0.4336220000000  0.4370400000000 1.0
C      1  0.4467170000000  0.4596900000000  0.5490900000000 1.0
C      1  0.4099090000000  0.4688410000000  0.4629420000000 1.0
C      1  0.4446830000000  0.5187160000000  0.5680200000000 1.0
C      1  0.4643830000000  0.4019090000000  0.4491580000000 1.0
C      1  0.4793790000000  0.5041300000000  0.5575840000000 1.0
C      1  0.4199420000000  0.4555070000000  0.4853390000000 1.0
C      1  0.5260370000000  0.4186350000000  0.5263700000000 1.0
C      1  0.5169310000000  0.3989400000000  0.4813750000000 1.0
C      1  0.4889820000000  0.4051350000000  0.5221620000000 1.0
C      1  0.5044360000000  0.4748300000000  0.4996410000000 1.0
C      1  0.4221330000000  0.4539380000000  0.5182220000000 1.0
C      1  0.5640830000000  0.4860210000000  0.4175030000000 1.0
C      1  0.5349620000000  0.4270040000000  0.5570380000000 1.0
C      1  0.5108360000000  0.5614450000000  0.4076720000000 1.0
C      1  0.5391500000000  0.4968120000000  0.4794450000000 1.0
C      1  0.5170210000000  0.4845860000000  0.4184590000000 1.0
C      1  0.4750420000000  0.4933530000000  0.5185500000000 1.0
C      1  0.5201700000000  0.5976730000000  0.4971810000000 1.0
C      1  0.4783190000000  0.4364140000000  0.5306050000000 1.0
C      1  0.4405100000000  0.5855750000000  0.4954810000000 1.0
C      1  0.4920300000000  0.3939240000000  0.4956120000000 1.0
C      1  0.5650350000000  0.4357750000000  0.5293660000000 1.0
C      1  0.4466080000000  0.4162910000000  0.5440580000000 1.0
C      1  0.5527290000000  0.4481200000000  0.5682180000000 1.0
C      1  0.5295610000000  0.5925400000000  0.5557940000000 1.0
C      1  0.5734630000000  0.5209340000000  0.5172400000000 1.0
C      1  0.5479450000000  0.4914460000000  0.5247620000000 1.0
C      1  0.4302790000000  0.5403940000000  0.4524460000000 1.0
C      1  0.5786760000000  0.5023470000000  0.4361190000000 1.0
C      1  0.5437470000000  0.4595480000000  0.5315370000000 1.0
C      1  0.4927450000000  0.5388740000000  0.4064390000000 1.0
C      1  0.5362400000000  0.4727850000000  0.5766740000000 1.0
C      1  0.4559730000000  0.4213760000000  0.4974270000000 1.0
C      1  0.5683420000000  0.5685570000000  0.4920830000000 1.0
C      1  0.4657260000000  0.5467660000000  0.4160630000000 1.0
C      1  0.4106300000000  0.5155640000000  0.4768230000000 1.0
C      1  0.4153070000000  0.4919670000000  0.5642240000000 1.0
C      1  0.5127720000000  0.6144650000000  0.5180140000000 1.0
C      1  0.5524250000000  0.4353360000000  0.4532240000000 1.0
C      1  0.5783320000000  0.4931420000000  0.5730510000000 1.0
C      1  0.4892560000000  0.4223460000000  0.4584810000000 1.0
C      1  0.5165460000000  0.5858030000000  0.4481130000000 1.0
C      1  0.5386390000000  0.5580640000000  0.4164490000000 1.0
C      1  0.4889550000000  0.4906090000000  0.3907190000000 1.0
C      1  0.5573680000000  0.5551840000000  0.4655270000000 1.0
C      1  0.4594720000000  0.4499330000000  0.5772050000000 1.0
C      1  0.4401220000000  0.4280370000000  0.5201620000000 1.0
C      1  0.4354430000000  0.4811470000000  0.4477180000000 1.0
C      1  0.5082530000000  0.5558440000000  0.5251490000000 1.0
C      1  0.5878300000000  0.5411890000000  0.4715580000000 1.0
C      1  0.4792300000000  0.4445270000000  0.4105250000000 1.0
C      1  0.5320350000000  0.5327950000000  0.4609630000000 1.0
C      1  0.4070430000000  0.5173560000000  0.5544570000000 1.0
C      1  0.5516700000000  0.4742190000000  0.4956090000000 1.0
C      1  0.4883390000000  0.5541840000000  0.4816910000000 1.0
C      1  0.5176480000000  0.4487570000000  0.4670770000000 1.0
C      1  0.5023360000000  0.5133910000000  0.4214820000000 1.0
C      1  0.5704940000000  0.4545870000000  0.4750090000000 1.0
C      1  0.5484320000000  0.5315260000000  0.4144580000000 1.0
C      1  0.5479940000000  0.4957990000000  0.3958100000000 1.0
C      1  0.4635970000000  0.5522360000000  0.4700100000000 1.0
C      1  0.5305120000000  0.5406700000000  0.4928150000000 1.0
C      1  0.4731930000000  0.4738100000000  0.4068730000000 1.0
C      1  0.4984010000000  0.5800760000000  0.4264210000000 1.0
C      1  0.4727380000000  0.5131540000000  0.4365050000000 1.0
C      1  0.6031170000000  0.4928300000000  0.5562240000000 1.0
C      1  0.4467610000000  0.5226720000000  0.4206000000000 1.0
C      1  0.4181550000000  0.5388440000000  0.4904180000000 1.0
C      1  0.5145410000000  0.4706530000000  0.4486340000000 1.0
C      1  0.5255080000000  0.4532960000000  0.4142730000000 1.0
C      1  0.5075590000000  0.5097890000000  0.4551240000000 1.0
C      1  0.4453520000000  0.5616160000000  0.5700180000000 1.0
C      1  0.4252620000000  0.5649290000000  0.5482410000000 1.0
C      1  0.5426500000000  0.5706370000000  0.5390450000000 1.0
C      1  0.5143510000000  0.5055440000000  0.5777090000000 1.0
C      1  0.5150130000000  0.4569630000000  0.5263480000000 1.0
C      1  0.4275610000000  0.5038170000000  0.4264880000000 1.0
C      1  0.5036330000000  0.4141650000000  0.5518030000000 1.0
C      1  0.4729300000000  0.4245110000000  0.5623800000000 1.0
C      1  0.4956420000000  0.5318920000000  0.6007940000000 1.0
C      1  0.5412110000000  0.4890310000000  0.4499170000000 1.0
C      1  0.4563580000000  0.5401350000000  0.5442540000000 1.0
C      1  0.5397720000000  0.4136330000000  0.4977650000000 1.0
C      1  0.4341420000000  0.5823060000000  0.5279890000000 1.0
C      1  0.5205910000000  0.5442810000000  0.5976310000000 1.0
C      1  0.5084580000000  0.5029970000000  0.4867880000000 1.0
C      1  0.5987580000000  0.4967720000000  0.4981380000000 1.0
C      1  0.5038430000000  0.5043940000000  0.5264940000000 1.0
C      1  0.5185130000000  0.4982760000000  0.3882440000000 1.0
C      1  0.5411240000000  0.5156220000000  0.4348980000000 1.0
C      1  0.5499270000000  0.4604750000000  0.4332340000000 1.0
C      1  0.4882360000000  0.5772990000000  0.5371990000000 1.0
C      1  0.4120060000000  0.5398900000000  0.4338740000000 1.0
C      1  0.4354250000000  0.4946840000000  0.4792250000000 1.0
C      1  0.4511970000000  0.4606310000000  0.4922250000000 1.0
C      1  0.5068760000000  0.4352340000000  0.5030650000000 1.0
C      1  0.4648700000000  0.5316140000000  0.5148410000000 1.0
C      1  0.3937790000000  0.4924770000000  0.4683320000000 1.0
C      1  0.4554920000000  0.4728360000000  0.5963250000000 1.0
C      1  0.5060240000000  0.4370890000000  0.4053780000000 1.0
C      1  0.5358540000000  0.4476160000000  0.4932960000000 1.0
C      1  0.5312630000000  0.5708090000000  0.5066590000000 1.0
C      1  0.5006170000000  0.5018040000000  0.6085920000000 1.0
C      1  0.5311400000000  0.5410730000000  0.5439050000000 1.0
C      1  0.4307800000000  0.5326650000000  0.5147680000000 1.0
C      1  0.4789800000000  0.4780980000000  0.6102750000000 1.0
C      1  0.4201390000000  0.4712910000000  0.5459140000000 1.0
C      1  0.5438080000000  0.5280120000000  0.5926960000000 1.0
C      1  0.5067310000000  0.6013970000000  0.5429310000000 1.0
C      1  0.5408150000000  0.5710220000000  0.4431580000000 1.0
C      1  0.6010350000000  0.5235910000000  0.4879690000000 1.0
C      1  0.4862560000000  0.4847650000000  0.4440050000000 1.0
C      1  0.5061010000000  0.5247060000000  0.5531990000000 1.0
C      1  0.4979580000000  0.4537370000000  0.5516970000000 1.0
C      1  0.4572240000000  0.5227430000000  0.4609370000000 1.0
C      1  0.4773920000000  0.5606760000000  0.5603790000000 1.0
C      1  0.5761450000000  0.4215100000000  0.5122160000000 1.0
C      1  0.4365930000000  0.4925290000000  0.5868170000000 1.0
C      1  0.4501000000000  0.5010880000000  0.5389170000000 1.0
C      1  0.5580430000000  0.5208590000000  0.4887030000000 1.0
C      1  0.5869850000000  0.4800760000000  0.4779000000000 1.0
C      1  0.5712740000000  0.4700140000000  0.5489810000000 1.0
C      1  0.4338220000000  0.5632210000000  0.4771240000000 1.0
C      1  0.5753390000000  0.5039870000000  0.4644160000000 1.0
C      1  0.4757340000000  0.4614100000000  0.5119200000000 1.0
C      1  0.4748520000000  0.4740300000000  0.5538100000000 1.0
C      1  0.5877420000000  0.4916430000000  0.5275910000000 1.0
C      1  0.5015830000000  0.5961510000000  0.4737740000000 1.0
C      1  0.5669840000000  0.4228720000000  0.4813840000000 1.0
C      1  0.4664480000000  0.5860220000000  0.5185370000000 1.0
C      1  0.5525900000000  0.5201540000000  0.5425590000000 1.0
C      1  0.4832480000000  0.4317530000000  0.4865200000000 1.0
C      1  0.4981980000000  0.5307230000000  0.5044730000000 1.0
C      1  0.4697650000000  0.5698910000000  0.4347270000000 1.0
C      1  0.5066990000000  0.4461510000000  0.5777570000000 1.0
C      1  0.4702530000000  0.5970270000000  0.4870000000000 1.0
C      1  0.5102310000000  0.4705750000000  0.5987610000000 1.0
C      1  0.5613930000000  0.5154260000000  0.5712830000000 1.0
C      1  0.4753360000000  0.5314640000000  0.5778140000000 1.0
C      1  0.4167410000000  0.5389130000000  0.5389610000000 1.0
C      1  0.4662210000000  0.3964900000000  0.4793490000000 1.0
C      1  0.5395510000000  0.4972380000000  0.5993940000000 1.0
END
