TITL C-2778430-5657-793 0.00115402457892891 125000 -226.625642041783 0 0 41 (C1) n - 1
REM
REM in /home/nfs/bkarasulu/CARBON/AIRSS/Generating-Clusters/REBO/Only-C1/SD-CG/HFTN-CG
REM
REM
REM
REM
REM
REM ./C.cell (11c1c37f851c82e70ff6c80c92926a4b)
REM
REM compiler GCC version 9.2.1 20190827 (Red Hat 9.2.1-1)
REM options -cpp -mtune=generic -march=x86-64 -g -O0 -fpre-include=/usr/include/finclude/math-vector-fortran.h
REM seed -1929439493 -2093591223 -26693092 1290661523 -1750281021 798386418 -707204785 376153287 -1290458589 730746924 1196475587 -462077453 -1556037285 1266442471 -1550190108 -1302284600 1173266061 -665551181 -2014701416 -1835293438 2091246808 -1375784194 741901645 1742744628 48025352 -140332747 -1664654370 1313671100 467938948 -319351101 -1524501280 1806752628 44545339
REM
CELL 1.54180   50.00000   50.00000   50.00000   90.00000   90.00000   90.00000
LATT -1
SFAC C  
C      1  0.5193190000000  0.5776090000000  0.4836470000000 1.0
C      1  0.4624300000000  0.5677830000000  0.4945190000000 1.0
C      1  0.5351580000000  0.4480070000000  0.4624850000000 1.0
C      1  0.5329050000000  0.5139110000000  0.4829680000000 1.0
C      1  0.5060410000000  0.4564660000000  0.4621130000000 1.0
C      1  0.4483410000000  0.4795730000000  0.5075860000000 1.0
C      1  0.5154310000000  0.4457820000000  0.5209220000000 1.0
C      1  0.4847320000000  0.5023110000000  0.4768330000000 1.0
C      1  0.4453040000000  0.5281440000000  0.5238010000000 1.0
C      1  0.4956970000000  0.4919500000000  0.5336620000000 1.0
C      1  0.5565370000000  0.5139080000000  0.5151980000000 1.0
C      1  0.5004540000000  0.4450290000000  0.5441830000000 1.0
C      1  0.4379020000000  0.5095310000000  0.4965270000000 1.0
C      1  0.4944530000000  0.5648390000000  0.4969350000000 1.0
C      1  0.4798400000000  0.4563280000000  0.4467640000000 1.0
C      1  0.5077280000000  0.5224260000000  0.4646940000000 1.0
C      1  0.5397190000000  0.5445760000000  0.4292730000000 1.0
C      1  0.5377110000000  0.5568860000000  0.4788930000000 1.0
C      1  0.5248560000000  0.5048160000000  0.5377850000000 1.0
C      1  0.4702820000000  0.5112550000000  0.5389480000000 1.0
C      1  0.4906590000000  0.5387120000000  0.5399820000000 1.0
C      1  0.4566810000000  0.4898400000000  0.4765480000000 1.0
C      1  0.4598920000000  0.4306950000000  0.5235320000000 1.0
C      1  0.5364450000000  0.5374410000000  0.5056150000000 1.0
C      1  0.5184530000000  0.4843310000000  0.5113860000000 1.0
C      1  0.5407230000000  0.5194580000000  0.5515130000000 1.0
C      1  0.5087950000000  0.5463470000000  0.5194340000000 1.0
C      1  0.5307790000000  0.5421760000000  0.4550760000000 1.0
C      1  0.5498270000000  0.4500930000000  0.4829580000000 1.0
C      1  0.5574950000000  0.4893980000000  0.5181890000000 1.0
C      1  0.4724720000000  0.4297510000000  0.4987990000000 1.0
C      1  0.4509990000000  0.5397200000000  0.4932570000000 1.0
C      1  0.4829920000000  0.5358090000000  0.4828260000000 1.0
C      1  0.4626440000000  0.5499890000000  0.5419130000000 1.0
C      1  0.4587820000000  0.4683010000000  0.4542790000000 1.0
C      1  0.4659470000000  0.4781870000000  0.5328730000000 1.0
C      1  0.5017980000000  0.4788950000000  0.4855940000000 1.0
C      1  0.5426220000000  0.4612630000000  0.5113260000000 1.0
C      1  0.4973870000000  0.4462650000000  0.4961960000000 1.0
C      1  0.5478860000000  0.4926570000000  0.4795030000000 1.0
C      1  0.4718820000000  0.4495400000000  0.5414660000000 1.0
END
