TITL C-2778422-5617-972 0.000825804100112683 125000 -1047.64201558122 0 0 176 (C1) n - 1
REM
REM in /home/nfs/bkarasulu/CARBON/AIRSS/Generating-Clusters/REBO/Only-C1/SD-CG/HFTN-CG
REM
REM
REM
REM
REM
REM ./C.cell (11c1c37f851c82e70ff6c80c92926a4b)
REM
REM compiler GCC version 9.2.1 20190827 (Red Hat 9.2.1-1)
REM options -cpp -mtune=generic -march=x86-64 -g -O0 -fpre-include=/usr/include/finclude/math-vector-fortran.h
REM seed 191989722 -2130370335 2000682255 1464173190 13599069 1251228768 1539359516 47197489 272136527 1458491906 436434337 -930946512 333748148 -1152878736 -96733135 553027572 -1455340333 567274120 -905137747 -65942177 -708983558 1667962241 136206579 411455514 -686697204 -522709661 1856544536 -761297148 -1510644050 1640628009 1997551202 1148764929 646292227
REM
CELL 1.54180   50.00000   50.00000   50.00000   90.00000   90.00000   90.00000
LATT -1
SFAC C  
C      1  0.4642600000000  0.4213100000000  0.4472900000000 1.0
C      1  0.4933870000000  0.4302450000000  0.5927120000000 1.0
C      1  0.5094710000000  0.4312410000000  0.4159690000000 1.0
C      1  0.4425950000000  0.4698980000000  0.5528630000000 1.0
C      1  0.4980970000000  0.5376260000000  0.4023840000000 1.0
C      1  0.4608670000000  0.5828920000000  0.4757460000000 1.0
C      1  0.5102960000000  0.4819730000000  0.5358990000000 1.0
C      1  0.5198680000000  0.5264220000000  0.5584420000000 1.0
C      1  0.4246370000000  0.5075270000000  0.5819520000000 1.0
C      1  0.5548200000000  0.5204400000000  0.5207010000000 1.0
C      1  0.4570520000000  0.4990680000000  0.4225780000000 1.0
C      1  0.5485300000000  0.5827200000000  0.5512050000000 1.0
C      1  0.5600640000000  0.5075490000000  0.3932650000000 1.0
C      1  0.4662700000000  0.4746790000000  0.5947260000000 1.0
C      1  0.4134450000000  0.5149140000000  0.4588660000000 1.0
C      1  0.5213890000000  0.4486400000000  0.4560530000000 1.0
C      1  0.5774650000000  0.4943840000000  0.5732150000000 1.0
C      1  0.4568350000000  0.5766770000000  0.4308040000000 1.0
C      1  0.4182750000000  0.5464910000000  0.5410460000000 1.0
C      1  0.4262910000000  0.5100810000000  0.4215140000000 1.0
C      1  0.5438130000000  0.4902040000000  0.3859300000000 1.0
C      1  0.4890300000000  0.5191080000000  0.5583320000000 1.0
C      1  0.4925300000000  0.4814020000000  0.5068970000000 1.0
C      1  0.4151410000000  0.5592560000000  0.5155830000000 1.0
C      1  0.5328310000000  0.4989690000000  0.5485540000000 1.0
C      1  0.4673620000000  0.4603120000000  0.5114400000000 1.0
C      1  0.5163320000000  0.5804810000000  0.4597190000000 1.0
C      1  0.5882610000000  0.4958390000000  0.4698890000000 1.0
C      1  0.5072970000000  0.4754510000000  0.4702260000000 1.0
C      1  0.5126080000000  0.4401230000000  0.5117300000000 1.0
C      1  0.4565460000000  0.4112340000000  0.5523000000000 1.0
C      1  0.5156490000000  0.4133980000000  0.4381880000000 1.0
C      1  0.4784440000000  0.6024020000000  0.4600010000000 1.0
C      1  0.4896660000000  0.6167530000000  0.5056410000000 1.0
C      1  0.4242170000000  0.4587740000000  0.5730750000000 1.0
C      1  0.4634370000000  0.4452150000000  0.4836650000000 1.0
C      1  0.4502690000000  0.5007980000000  0.6000760000000 1.0
C      1  0.4143960000000  0.4730800000000  0.4769220000000 1.0
C      1  0.5675740000000  0.4182390000000  0.4911840000000 1.0
C      1  0.5288250000000  0.4690530000000  0.5923930000000 1.0
C      1  0.5660420000000  0.4209560000000  0.4620970000000 1.0
C      1  0.4493660000000  0.4570540000000  0.4572790000000 1.0
C      1  0.5693990000000  0.4896960000000  0.4958720000000 1.0
C      1  0.5000820000000  0.4919770000000  0.6072590000000 1.0
C      1  0.4939680000000  0.4095320000000  0.4559040000000 1.0
C      1  0.4044800000000  0.4704530000000  0.4483730000000 1.0
C      1  0.5760020000000  0.5307470000000  0.4437980000000 1.0
C      1  0.4596630000000  0.5865570000000  0.5379330000000 1.0
C      1  0.4596380000000  0.4857210000000  0.4534540000000 1.0
C      1  0.5073520000000  0.5283060000000  0.5098860000000 1.0
C      1  0.4609810000000  0.5685100000000  0.5129950000000 1.0
C      1  0.4876710000000  0.5403040000000  0.5331870000000 1.0
C      1  0.5439520000000  0.4091740000000  0.5075250000000 1.0
C      1  0.4040100000000  0.4962810000000  0.4371170000000 1.0
C      1  0.4742320000000  0.4095790000000  0.5164770000000 1.0
C      1  0.5441720000000  0.4608490000000  0.5377020000000 1.0
C      1  0.4504820000000  0.5497910000000  0.4203110000000 1.0
C      1  0.5574020000000  0.5896180000000  0.5245640000000 1.0
C      1  0.5133360000000  0.4838180000000  0.3928860000000 1.0
C      1  0.5491610000000  0.5889640000000  0.4390320000000 1.0
C      1  0.4954050000000  0.4475760000000  0.4862210000000 1.0
C      1  0.5176680000000  0.4992070000000  0.5006190000000 1.0
C      1  0.4265190000000  0.5379930000000  0.4289420000000 1.0
C      1  0.5287640000000  0.5248430000000  0.4110220000000 1.0
C      1  0.5666190000000  0.5216520000000  0.4914200000000 1.0
C      1  0.5987480000000  0.5243190000000  0.4682630000000 1.0
C      1  0.5014520000000  0.5124380000000  0.3846530000000 1.0
C      1  0.4887690000000  0.4523400000000  0.4529780000000 1.0
C      1  0.4924410000000  0.5507310000000  0.5991260000000 1.0
C      1  0.5365530000000  0.5622640000000  0.4890110000000 1.0
C      1  0.4433860000000  0.5628080000000  0.4574220000000 1.0
C      1  0.4657340000000  0.4272840000000  0.5773910000000 1.0
C      1  0.5466660000000  0.4825490000000  0.5712040000000 1.0
C      1  0.4670980000000  0.4776420000000  0.4023800000000 1.0
C      1  0.5707750000000  0.4640230000000  0.5592080000000 1.0
C      1  0.5794660000000  0.5667020000000  0.5158980000000 1.0
C      1  0.6140610000000  0.4690680000000  0.4846040000000 1.0
C      1  0.4741240000000  0.3879870000000  0.5422350000000 1.0
C      1  0.4344110000000  0.5750950000000  0.4943740000000 1.0
C      1  0.4941530000000  0.3947940000000  0.4933490000000 1.0
C      1  0.5630460000000  0.4652990000000  0.4385350000000 1.0
C      1  0.4894450000000  0.5704150000000  0.5748050000000 1.0
C      1  0.5668400000000  0.5613440000000  0.4316250000000 1.0
C      1  0.4934190000000  0.4574210000000  0.4013560000000 1.0
C      1  0.4443550000000  0.4130500000000  0.5011170000000 1.0
C      1  0.5436310000000  0.4102790000000  0.4462160000000 1.0
C      1  0.4858550000000  0.5738560000000  0.4953430000000 1.0
C      1  0.5930390000000  0.5087770000000  0.5218190000000 1.0
C      1  0.5435840000000  0.4489620000000  0.4997970000000 1.0
C      1  0.5351640000000  0.4631700000000  0.4342260000000 1.0
C      1  0.6026670000000  0.4542150000000  0.4647490000000 1.0
C      1  0.5542420000000  0.5578540000000  0.4632300000000 1.0
C      1  0.4840350000000  0.4372450000000  0.5252580000000 1.0
C      1  0.4394320000000  0.4686990000000  0.5237370000000 1.0
C      1  0.4405790000000  0.4219670000000  0.5339890000000 1.0
C      1  0.5240900000000  0.5013920000000  0.4691520000000 1.0
C      1  0.4408360000000  0.5090320000000  0.4643760000000 1.0
C      1  0.5224180000000  0.4383210000000  0.5815280000000 1.0
C      1  0.4855640000000  0.5134580000000  0.5872910000000 1.0
C      1  0.5157190000000  0.4546120000000  0.5533330000000 1.0
C      1  0.4115910000000  0.4489070000000  0.4329850000000 1.0
C      1  0.5307520000000  0.4314840000000  0.4773690000000 1.0
C      1  0.4905540000000  0.3733500000000  0.5160460000000 1.0
C      1  0.4080420000000  0.5368440000000  0.4915670000000 1.0
C      1  0.4061890000000  0.5194180000000  0.5386280000000 1.0
C      1  0.4310350000000  0.4467230000000  0.4843070000000 1.0
C      1  0.5709630000000  0.4338590000000  0.5494090000000 1.0
C      1  0.5015100000000  0.5711850000000  0.4074150000000 1.0
C      1  0.5450420000000  0.5994350000000  0.5010180000000 1.0
C      1  0.4370810000000  0.5530290000000  0.5629170000000 1.0
C      1  0.4932890000000  0.4984530000000  0.4407470000000 1.0
C      1  0.5813100000000  0.5442770000000  0.5611860000000 1.0
C      1  0.5926560000000  0.5411570000000  0.5327490000000 1.0
C      1  0.5962720000000  0.5344550000000  0.4993740000000 1.0
C      1  0.5153140000000  0.4814070000000  0.4242790000000 1.0
C      1  0.4062670000000  0.4624140000000  0.5252990000000 1.0
C      1  0.4072470000000  0.5003100000000  0.5600680000000 1.0
C      1  0.5329820000000  0.5008180000000  0.6040290000000 1.0
C      1  0.4900260000000  0.6196670000000  0.4780570000000 1.0
C      1  0.4609410000000  0.5032860000000  0.5169940000000 1.0
C      1  0.4592620000000  0.5346810000000  0.5171670000000 1.0
C      1  0.5033210000000  0.5489750000000  0.4578340000000 1.0
C      1  0.4672840000000  0.4061190000000  0.4773280000000 1.0
C      1  0.4828500000000  0.5296190000000  0.4500190000000 1.0
C      1  0.5791120000000  0.4707130000000  0.5207820000000 1.0
C      1  0.5507340000000  0.5521400000000  0.5128690000000 1.0
C      1  0.4861550000000  0.5987050000000  0.5266140000000 1.0
C      1  0.4206310000000  0.4357230000000  0.5116320000000 1.0
C      1  0.5219670000000  0.5484140000000  0.5817870000000 1.0
C      1  0.5205370000000  0.5168700000000  0.4414790000000 1.0
C      1  0.5695250000000  0.5697730000000  0.5657660000000 1.0
C      1  0.4413810000000  0.5417330000000  0.4912700000000 1.0
C      1  0.5713310000000  0.4911370000000  0.4455020000000 1.0
C      1  0.4955790000000  0.5697110000000  0.5412910000000 1.0
C      1  0.4848100000000  0.5899720000000  0.4306680000000 1.0
C      1  0.4388260000000  0.4859790000000  0.4969190000000 1.0
C      1  0.4800850000000  0.4942080000000  0.5424160000000 1.0
C      1  0.5307740000000  0.5579660000000  0.4129160000000 1.0
C      1  0.5650010000000  0.4966340000000  0.5371690000000 1.0
C      1  0.5183130000000  0.5921350000000  0.4284020000000 1.0
C      1  0.5618070000000  0.5330080000000  0.4133220000000 1.0
C      1  0.5452080000000  0.5265670000000  0.5893460000000 1.0
C      1  0.4869540000000  0.3564870000000  0.5428640000000 1.0
C      1  0.4588900000000  0.5718860000000  0.5616320000000 1.0
C      1  0.4966130000000  0.4613800000000  0.6012980000000 1.0
C      1  0.5290350000000  0.5355330000000  0.5312830000000 1.0
C      1  0.5316640000000  0.5473750000000  0.4436160000000 1.0
C      1  0.5091050000000  0.5242170000000  0.6106770000000 1.0
C      1  0.4577250000000  0.5342100000000  0.4651240000000 1.0
C      1  0.4706510000000  0.4716440000000  0.5621150000000 1.0
C      1  0.4455850000000  0.4480750000000  0.5901400000000 1.0
C      1  0.3995430000000  0.4847930000000  0.5034740000000 1.0
C      1  0.4413080000000  0.4401040000000  0.4309920000000 1.0
C      1  0.4639610000000  0.5321710000000  0.6022380000000 1.0
C      1  0.5144960000000  0.5883420000000  0.4926770000000 1.0
C      1  0.4743640000000  0.4469130000000  0.4267860000000 1.0
C      1  0.4006670000000  0.5124270000000  0.5107590000000 1.0
C      1  0.5709330000000  0.5230890000000  0.5769570000000 1.0
C      1  0.5209800000000  0.4050570000000  0.4884790000000 1.0
C      1  0.5711650000000  0.4395710000000  0.5173390000000 1.0
C      1  0.5790900000000  0.4448250000000  0.4516090000000 1.0
C      1  0.5456150000000  0.5961110000000  0.4697730000000 1.0
C      1  0.4854360000000  0.4444750000000  0.5556030000000 1.0
C      1  0.5761330000000  0.5627300000000  0.4834230000000 1.0
C      1  0.5536030000000  0.5142550000000  0.4634020000000 1.0
C      1  0.6068500000000  0.4818170000000  0.5071790000000 1.0
C      1  0.4690100000000  0.4909100000000  0.4857780000000 1.0
C      1  0.5432520000000  0.4233120000000  0.5629440000000 1.0
C      1  0.4735910000000  0.5286550000000  0.4194750000000 1.0
C      1  0.4138300000000  0.5471370000000  0.4594470000000 1.0
C      1  0.5418600000000  0.4798230000000  0.5094440000000 1.0
C      1  0.4028340000000  0.4714100000000  0.5555400000000 1.0
C      1  0.4378300000000  0.5348700000000  0.5842440000000 1.0
C      1  0.5211780000000  0.5745290000000  0.5615790000000 1.0
C      1  0.5065530000000  0.5496880000000  0.4886170000000 1.0
C      1  0.5358310000000  0.4274830000000  0.5321240000000 1.0
END
