TITL C-2778436-5916-12 0.0054935838733113 125000 -467.778258725956 0 0 83 (C1) n - 1
REM
REM in /home/nfs/bkarasulu/CARBON/AIRSS/Generating-Clusters/REBO/Only-C1/SD-CG/HFTN-CG
REM
REM
REM
REM
REM
REM ./C.cell (11c1c37f851c82e70ff6c80c92926a4b)
REM
REM compiler GCC version 9.2.1 20190827 (Red Hat 9.2.1-1)
REM options -cpp -mtune=generic -march=x86-64 -g -O0 -fpre-include=/usr/include/finclude/math-vector-fortran.h
REM seed 2065849096 -836301468 -199641788 -706284933 -1835927466 1650292541 607577539 -1300881141 1383318768 -426640920 1607303883 1732868240 -1193067035 2083030683 -1908333793 -379051848 1322930761 1315528281 990664344 -1918389247 1094060657 1226729031 -1065148811 -1215021533 -1483005202 -1932655863 -1989332870 -921760264 1059322679 -915959560 -1406355488 1449891478 -333877270
REM
CELL 1.54180   50.00000   50.00000   50.00000   90.00000   90.00000   90.00000
LATT -1
SFAC C  
C      1  0.4816620000000  0.4463510000000  0.5701680000000 1.0
C      1  0.5338030000000  0.4839470000000  0.4674740000000 1.0
C      1  0.5455770000000  0.4368290000000  0.5170240000000 1.0
C      1  0.4238270000000  0.5299650000000  0.5295730000000 1.0
C      1  0.5070070000000  0.5033340000000  0.5776170000000 1.0
C      1  0.5301830000000  0.5778450000000  0.4862720000000 1.0
C      1  0.5513540000000  0.5297340000000  0.5549710000000 1.0
C      1  0.5205230000000  0.4287330000000  0.4619330000000 1.0
C      1  0.5365640000000  0.4949540000000  0.5058110000000 1.0
C      1  0.4996000000000  0.4702470000000  0.4276470000000 1.0
C      1  0.5464630000000  0.4767790000000  0.5516970000000 1.0
C      1  0.4878010000000  0.4332340000000  0.4590210000000 1.0
C      1  0.4461520000000  0.4987830000000  0.5708590000000 1.0
C      1  0.5474280000000  0.4630690000000  0.4307530000000 1.0
C      1  0.5479030000000  0.5503840000000  0.4759600000000 1.0
C      1  0.5578930000000  0.5602150000000  0.5406780000000 1.0
C      1  0.5441310000000  0.5373750000000  0.4462420000000 1.0
C      1  0.4709830000000  0.4504590000000  0.5402250000000 1.0
C      1  0.5240850000000  0.5125130000000  0.4829630000000 1.0
C      1  0.5689900000000  0.5540580000000  0.5701060000000 1.0
C      1  0.5477430000000  0.4922480000000  0.4311680000000 1.0
C      1  0.4916740000000  0.4594910000000  0.4896480000000 1.0
C      1  0.5041010000000  0.5145910000000  0.5474510000000 1.0
C      1  0.5016010000000  0.5544790000000  0.4986750000000 1.0
C      1  0.5758620000000  0.5093990000000  0.4734340000000 1.0
C      1  0.5614910000000  0.5139950000000  0.4442950000000 1.0
C      1  0.5604360000000  0.4677850000000  0.5227570000000 1.0
C      1  0.4966760000000  0.4625530000000  0.5231520000000 1.0
C      1  0.4697670000000  0.5320760000000  0.4887640000000 1.0
C      1  0.5251170000000  0.4538870000000  0.5382170000000 1.0
C      1  0.4927510000000  0.4919150000000  0.4963060000000 1.0
C      1  0.4861970000000  0.5797040000000  0.5350800000000 1.0
C      1  0.5377720000000  0.5049810000000  0.5666180000000 1.0
C      1  0.5007440000000  0.4156870000000  0.5070840000000 1.0
C      1  0.4643860000000  0.5414270000000  0.4564170000000 1.0
C      1  0.4502630000000  0.4568160000000  0.4947140000000 1.0
C      1  0.4535350000000  0.4297820000000  0.4903110000000 1.0
C      1  0.4635740000000  0.5012830000000  0.4556740000000 1.0
C      1  0.4846630000000  0.5438640000000  0.4374410000000 1.0
C      1  0.4738060000000  0.5726340000000  0.4979400000000 1.0
C      1  0.4186810000000  0.5215340000000  0.5025300000000 1.0
C      1  0.5250790000000  0.4210550000000  0.4949020000000 1.0
C      1  0.4469840000000  0.4726840000000  0.5408170000000 1.0
C      1  0.4910070000000  0.4941420000000  0.5283050000000 1.0
C      1  0.4476310000000  0.5630670000000  0.5009300000000 1.0
C      1  0.4763930000000  0.4636140000000  0.4593500000000 1.0
C      1  0.5001480000000  0.4879780000000  0.4630350000000 1.0
C      1  0.5632870000000  0.4806730000000  0.4661160000000 1.0
C      1  0.4380520000000  0.5557590000000  0.5299040000000 1.0
C      1  0.5771570000000  0.4591940000000  0.4602700000000 1.0
C      1  0.4774640000000  0.4945370000000  0.4308740000000 1.0
C      1  0.5122320000000  0.5344880000000  0.5212400000000 1.0
C      1  0.4372630000000  0.5207650000000  0.4559400000000 1.0
C      1  0.4613150000000  0.4881320000000  0.4869680000000 1.0
C      1  0.4875000000000  0.5979510000000  0.5558310000000 1.0
C      1  0.4801330000000  0.4262360000000  0.5208510000000 1.0
C      1  0.5689090000000  0.4946050000000  0.5031990000000 1.0
C      1  0.4610780000000  0.5029490000000  0.5177130000000 1.0
C      1  0.4622930000000  0.4735810000000  0.5715990000000 1.0
C      1  0.5159350000000  0.5314680000000  0.4337070000000 1.0
C      1  0.5824360000000  0.5622470000000  0.5918710000000 1.0
C      1  0.4384850000000  0.5059900000000  0.5405850000000 1.0
C      1  0.4707490000000  0.4169850000000  0.4731420000000 1.0
C      1  0.4270940000000  0.4900120000000  0.4664480000000 1.0
C      1  0.5362310000000  0.4630290000000  0.5009620000000 1.0
C      1  0.4685140000000  0.5569270000000  0.5344050000000 1.0
C      1  0.4426840000000  0.4677560000000  0.4572420000000 1.0
C      1  0.4967800000000  0.5248600000000  0.4726350000000 1.0
C      1  0.4949310000000  0.4762020000000  0.5808850000000 1.0
C      1  0.4363270000000  0.5381860000000  0.4838300000000 1.0
C      1  0.5213470000000  0.4505790000000  0.4358070000000 1.0
C      1  0.5143230000000  0.4511140000000  0.5682980000000 1.0
C      1  0.5041850000000  0.5861600000000  0.5069000000000 1.0
C      1  0.5302490000000  0.4999420000000  0.5332980000000 1.0
C      1  0.4872270000000  0.5192450000000  0.4182090000000 1.0
C      1  0.5155210000000  0.5512500000000  0.4700710000000 1.0
C      1  0.5586600000000  0.5271390000000  0.4971130000000 1.0
C      1  0.5168480000000  0.4988880000000  0.4349390000000 1.0
C      1  0.5430730000000  0.5362110000000  0.5225710000000 1.0
C      1  0.4782740000000  0.5310900000000  0.5202110000000 1.0
C      1  0.4334720000000  0.4745450000000  0.5121450000000 1.0
C      1  0.5194910000000  0.4561630000000  0.4770230000000 1.0
C      1  0.4204670000000  0.4936650000000  0.4951870000000 1.0
END
