TITL C-2778437-8639-233 -0.00632810307934688 125000 -741.454378617031 0 0 130 (C1) n - 1
REM
REM in /home/nfs/bkarasulu/CARBON/AIRSS/Generating-Clusters/REBO/Only-C1/SD-CG/HFTN-CG
REM
REM
REM
REM
REM
REM ./C.cell (11c1c37f851c82e70ff6c80c92926a4b)
REM
REM compiler GCC version 9.2.1 20190827 (Red Hat 9.2.1-1)
REM options -cpp -mtune=generic -march=x86-64 -g -O0 -fpre-include=/usr/include/finclude/math-vector-fortran.h
REM seed 1642851646 171918550 934762068 -1782546623 61064936 -596458407 880021802 1735329082 161738849 -1050363159 441326796 -1605080904 -115663588 -290895483 -1256505724 -1900622810 -669931135 1318897571 217991052 1546045800 7986201 607813037 -382054315 -674583796 -33537807 -246550630 1458861506 -1365438297 1111051759 2022675712 -1371199726 1766980720 -1526296714
REM
CELL 1.54180   50.00000   50.00000   50.00000   90.00000   90.00000   90.00000
LATT -1
SFAC C  
C      1  0.5816160000000  0.4950560000000  0.4417400000000 1.0
C      1  0.5319090000000  0.4575260000000  0.5014560000000 1.0
C      1  0.4308260000000  0.5364340000000  0.4416660000000 1.0
C      1  0.5570000000000  0.5362190000000  0.4667450000000 1.0
C      1  0.4271380000000  0.5522310000000  0.5299780000000 1.0
C      1  0.5408980000000  0.4179310000000  0.4732210000000 1.0
C      1  0.5757670000000  0.4935590000000  0.4723750000000 1.0
C      1  0.4616620000000  0.5765290000000  0.5062270000000 1.0
C      1  0.3452120000000  0.4843090000000  0.4870410000000 1.0
C      1  0.4681090000000  0.4450820000000  0.4432720000000 1.0
C      1  0.5462310000000  0.4382680000000  0.5462820000000 1.0
C      1  0.4955750000000  0.6040340000000  0.4620820000000 1.0
C      1  0.5629080000000  0.4982290000000  0.5741050000000 1.0
C      1  0.4602710000000  0.4821540000000  0.5109330000000 1.0
C      1  0.5308010000000  0.5455030000000  0.5835230000000 1.0
C      1  0.4904040000000  0.4090310000000  0.5361700000000 1.0
C      1  0.5945440000000  0.5023250000000  0.5275920000000 1.0
C      1  0.4790170000000  0.5084740000000  0.4850080000000 1.0
C      1  0.4527610000000  0.4671130000000  0.4231470000000 1.0
C      1  0.4912570000000  0.4287000000000  0.5626770000000 1.0
C      1  0.4644470000000  0.4388990000000  0.5517700000000 1.0
C      1  0.4657270000000  0.4571180000000  0.5229710000000 1.0
C      1  0.4643170000000  0.5726510000000  0.5580440000000 1.0
C      1  0.4855350000000  0.5169110000000  0.4169240000000 1.0
C      1  0.5426430000000  0.5615550000000  0.5509520000000 1.0
C      1  0.4139370000000  0.5150210000000  0.4704470000000 1.0
C      1  0.5204130000000  0.4536010000000  0.4635170000000 1.0
C      1  0.4545910000000  0.5293200000000  0.4912980000000 1.0
C      1  0.4308380000000  0.4856450000000  0.4272100000000 1.0
C      1  0.4864250000000  0.5432650000000  0.4623040000000 1.0
C      1  0.5085290000000  0.5265210000000  0.5660490000000 1.0
C      1  0.5632120000000  0.4331840000000  0.4965180000000 1.0
C      1  0.5537210000000  0.4689690000000  0.4817040000000 1.0
C      1  0.5384560000000  0.5871860000000  0.5191040000000 1.0
C      1  0.4765120000000  0.4325480000000  0.4934720000000 1.0
C      1  0.5354400000000  0.5906960000000  0.4906280000000 1.0
C      1  0.4896310000000  0.4889430000000  0.5503250000000 1.0
C      1  0.4810650000000  0.5257560000000  0.5814250000000 1.0
C      1  0.5352590000000  0.4767420000000  0.5281910000000 1.0
C      1  0.4943280000000  0.4724240000000  0.4924700000000 1.0
C      1  0.4660750000000  0.4170120000000  0.5157350000000 1.0
C      1  0.4835870000000  0.5579740000000  0.5708320000000 1.0
C      1  0.5362600000000  0.5353120000000  0.5321450000000 1.0
C      1  0.5935650000000  0.5266750000000  0.5046300000000 1.0
C      1  0.5211060000000  0.4848580000000  0.4651020000000 1.0
C      1  0.5279920000000  0.5343190000000  0.4815800000000 1.0
C      1  0.5995300000000  0.4883250000000  0.4964760000000 1.0
C      1  0.5082170000000  0.5407130000000  0.4180310000000 1.0
C      1  0.5733210000000  0.5152780000000  0.5474070000000 1.0
C      1  0.5621550000000  0.4744650000000  0.5490000000000 1.0
C      1  0.4578020000000  0.5309830000000  0.4596690000000 1.0
C      1  0.4662520000000  0.5057350000000  0.5226610000000 1.0
C      1  0.4235910000000  0.4400350000000  0.5092070000000 1.0
C      1  0.4488620000000  0.5692460000000  0.4808070000000 1.0
C      1  0.4186900000000  0.4675330000000  0.5269340000000 1.0
C      1  0.5052970000000  0.5150500000000  0.4658090000000 1.0
C      1  0.4240350000000  0.5161660000000  0.4241840000000 1.0
C      1  0.5087060000000  0.4356300000000  0.4889590000000 1.0
C      1  0.4211530000000  0.5126900000000  0.5698190000000 1.0
C      1  0.5124100000000  0.4154920000000  0.4546900000000 1.0
C      1  0.5493700000000  0.5357740000000  0.5057660000000 1.0
C      1  0.5315220000000  0.4578950000000  0.5685850000000 1.0
C      1  0.4826340000000  0.4964700000000  0.5926630000000 1.0
C      1  0.5406370000000  0.5069500000000  0.5424170000000 1.0
C      1  0.5075980000000  0.5921650000000  0.4837070000000 1.0
C      1  0.5663710000000  0.5735220000000  0.5296910000000 1.0
C      1  0.4990020000000  0.5453420000000  0.4909710000000 1.0
C      1  0.5585930000000  0.5269490000000  0.4358720000000 1.0
C      1  0.5700150000000  0.4418070000000  0.5243640000000 1.0
C      1  0.5022730000000  0.5149880000000  0.5359470000000 1.0
C      1  0.4512780000000  0.4223640000000  0.4614950000000 1.0
C      1  0.5276660000000  0.5664060000000  0.4272670000000 1.0
C      1  0.5317010000000  0.4313390000000  0.5211940000000 1.0
C      1  0.5037710000000  0.5083430000000  0.5059920000000 1.0
C      1  0.4294680000000  0.4932740000000  0.5462010000000 1.0
C      1  0.5413160000000  0.4988190000000  0.4453790000000 1.0
C      1  0.4507710000000  0.5235490000000  0.5611220000000 1.0
C      1  0.5340890000000  0.4076740000000  0.5021020000000 1.0
C      1  0.4322070000000  0.4464640000000  0.5477080000000 1.0
C      1  0.5128960000000  0.5678930000000  0.5651830000000 1.0
C      1  0.4245910000000  0.5258660000000  0.5000770000000 1.0
C      1  0.5249070000000  0.5138190000000  0.4196270000000 1.0
C      1  0.4243560000000  0.5478420000000  0.4733450000000 1.0
C      1  0.5203960000000  0.4885400000000  0.5630240000000 1.0
C      1  0.5025330000000  0.4724940000000  0.5236070000000 1.0
C      1  0.4501810000000  0.5413980000000  0.5375960000000 1.0
C      1  0.5378880000000  0.4841610000000  0.4083930000000 1.0
C      1  0.3949570000000  0.5008070000000  0.4918040000000 1.0
C      1  0.5035960000000  0.4069180000000  0.5067670000000 1.0
C      1  0.4843120000000  0.4175680000000  0.4548830000000 1.0
C      1  0.5666200000000  0.5010410000000  0.4152800000000 1.0
C      1  0.4599840000000  0.4559020000000  0.4808030000000 1.0
C      1  0.5729490000000  0.5459650000000  0.5485880000000 1.0
C      1  0.5529420000000  0.4676910000000  0.4419900000000 1.0
C      1  0.4546990000000  0.5809090000000  0.5335770000000 1.0
C      1  0.5594770000000  0.4437250000000  0.4640190000000 1.0
C      1  0.4399030000000  0.4212820000000  0.5259630000000 1.0
C      1  0.4544220000000  0.4871950000000  0.4792960000000 1.0
C      1  0.4684030000000  0.5693690000000  0.4588810000000 1.0
C      1  0.4763130000000  0.5378530000000  0.5160650000000 1.0
C      1  0.5406560000000  0.4535370000000  0.4166700000000 1.0
C      1  0.4754380000000  0.5825660000000  0.4350140000000 1.0
C      1  0.5696780000000  0.4781440000000  0.5082730000000 1.0
C      1  0.4609490000000  0.4911340000000  0.5591760000000 1.0
C      1  0.5356710000000  0.5126130000000  0.5815640000000 1.0
C      1  0.5048750000000  0.5472510000000  0.5322010000000 1.0
C      1  0.4850130000000  0.4679730000000  0.4624270000000 1.0
C      1  0.5547740000000  0.5755630000000  0.4729650000000 1.0
C      1  0.4618980000000  0.5079570000000  0.4380960000000 1.0
C      1  0.4147140000000  0.4992770000000  0.5171630000000 1.0
C      1  0.5512700000000  0.5594000000000  0.4436550000000 1.0
C      1  0.4815800000000  0.4697490000000  0.5857620000000 1.0
C      1  0.5042040000000  0.4887280000000  0.4121520000000 1.0
C      1  0.5822210000000  0.5317210000000  0.4833860000000 1.0
C      1  0.4954150000000  0.4414490000000  0.5271560000000 1.0
C      1  0.3699850000000  0.4925250000000  0.4894120000000 1.0
C      1  0.4518880000000  0.4621360000000  0.5709190000000 1.0
C      1  0.4336770000000  0.4381120000000  0.4826150000000 1.0
C      1  0.4353690000000  0.4980150000000  0.4578540000000 1.0
C      1  0.5023640000000  0.4505880000000  0.5781770000000 1.0
C      1  0.5263350000000  0.4963740000000  0.4938580000000 1.0
C      1  0.4971210000000  0.5726400000000  0.4204670000000 1.0
C      1  0.5633450000000  0.5630020000000  0.4993830000000 1.0
C      1  0.5893740000000  0.4687350000000  0.5324060000000 1.0
C      1  0.5267860000000  0.4379510000000  0.4379600000000 1.0
C      1  0.4814490000000  0.4811820000000  0.4334070000000 1.0
C      1  0.5552370000000  0.5056540000000  0.4972560000000 1.0
C      1  0.5604690000000  0.4659450000000  0.5819440000000 1.0
C      1  0.5114530000000  0.5785350000000  0.5326630000000 1.0
C      1  0.4926490000000  0.5740530000000  0.5045670000000 1.0
END
