TITL C-2778428-5639-913 -0.372880994198182 125000 -226.700049174965 0 0 40 (C1) n - 1
REM
REM in /home/nfs/bkarasulu/CARBON/AIRSS/Generating-Clusters/REBO/Only-C1/SD-CG/HFTN-CG
REM
REM
REM
REM
REM
REM ./C.cell (11c1c37f851c82e70ff6c80c92926a4b)
REM
REM compiler GCC version 9.2.1 20190827 (Red Hat 9.2.1-1)
REM options -cpp -mtune=generic -march=x86-64 -g -O0 -fpre-include=/usr/include/finclude/math-vector-fortran.h
REM seed -1208769678 -406576297 -1866309458 -770632735 -1286768439 -2065460634 -1175565531 -1370341510 -616466335 -554230092 -666334656 -793319723 1562802982 228082081 1780892982 -1256299156 399295111 -1009590897 -203639928 431801423 1730872335 -1115261273 -1151682020 1875595675 -753080351 -273060180 1315065269 917429843 -501209035 1560855667 -609630103 1584207182 1386668983
REM
CELL 1.54180   50.00000   50.00000   50.00000   90.00000   90.00000   90.00000
LATT -1
SFAC C  
C      1  0.5126730000000  0.5015370000000  0.4977380000000 1.0
C      1  0.4404290000000  0.5022560000000  0.4846640000000 1.0
C      1  0.5372640000000  0.4684220000000  0.5282840000000 1.0
C      1  0.5218220000000  0.5325140000000  0.5335620000000 1.0
C      1  0.4854500000000  0.5111820000000  0.4992780000000 1.0
C      1  0.4549440000000  0.4558970000000  0.5387680000000 1.0
C      1  0.5184450000000  0.4858370000000  0.5404330000000 1.0
C      1  0.5514240000000  0.4767260000000  0.5048630000000 1.0
C      1  0.5530000000000  0.4824680000000  0.4767640000000 1.0
C      1  0.5316990000000  0.5202440000000  0.5094940000000 1.0
C      1  0.4867790000000  0.5656300000000  0.5354650000000 1.0
C      1  0.4463460000000  0.4630080000000  0.5126960000000 1.0
C      1  0.4828950000000  0.6128220000000  0.5230930000000 1.0
C      1  0.4493380000000  0.4530810000000  0.4600550000000 1.0
C      1  0.5137470000000  0.4747600000000  0.4921790000000 1.0
C      1  0.4941870000000  0.5391010000000  0.5366900000000 1.0
C      1  0.5475550000000  0.5377520000000  0.4935890000000 1.0
C      1  0.5413200000000  0.5105450000000  0.4389890000000 1.0
C      1  0.4610600000000  0.4495610000000  0.4897360000000 1.0
C      1  0.5141950000000  0.4270450000000  0.5148640000000 1.0
C      1  0.5141260000000  0.4415920000000  0.4856560000000 1.0
C      1  0.5321220000000  0.4914240000000  0.4576580000000 1.0
C      1  0.4850530000000  0.4298590000000  0.4987980000000 1.0
C      1  0.4741390000000  0.4695480000000  0.5527940000000 1.0
C      1  0.4764210000000  0.4928690000000  0.4538520000000 1.0
C      1  0.4679970000000  0.5901110000000  0.5368270000000 1.0
C      1  0.4911270000000  0.4906730000000  0.5449710000000 1.0
C      1  0.4772650000000  0.5142940000000  0.5298990000000 1.0
C      1  0.5050180000000  0.4837570000000  0.4544690000000 1.0
C      1  0.5320400000000  0.4403130000000  0.5322160000000 1.0
C      1  0.4372510000000  0.4902330000000  0.5102930000000 1.0
C      1  0.4464550000000  0.5080890000000  0.5311380000000 1.0
C      1  0.5037860000000  0.5886680000000  0.5195180000000 1.0
C      1  0.4576640000000  0.4736890000000  0.4439350000000 1.0
C      1  0.5783360000000  0.4810490000000  0.4659870000000 1.0
C      1  0.5436340000000  0.5648960000000  0.4934700000000 1.0
C      1  0.5498490000000  0.5282750000000  0.4216780000000 1.0
C      1  0.4676140000000  0.5070180000000  0.4773210000000 1.0
C      1  0.4889910000000  0.4605290000000  0.4737160000000 1.0
C      1  0.5265390000000  0.5827260000000  0.5046030000000 1.0
END
