TITL C-2778426-5645-678 0.0012334601645169 125000 -216.71533934997 0 0 38 (C1) n - 1
REM
REM in /home/nfs/bkarasulu/CARBON/AIRSS/Generating-Clusters/REBO/Only-C1/SD-CG/HFTN-CG
REM
REM
REM
REM
REM
REM ./C.cell (11c1c37f851c82e70ff6c80c92926a4b)
REM
REM compiler GCC version 9.2.1 20190827 (Red Hat 9.2.1-1)
REM options -cpp -mtune=generic -march=x86-64 -g -O0 -fpre-include=/usr/include/finclude/math-vector-fortran.h
REM seed -448538184 1396169580 -872562510 -677607868 -2030677997 -1683069131 80361297 1299027829 -1628400185 -469262074 1568007990 1058418771 210789255 -416527040 1596000608 1215520937 -699368542 2096715845 2000142657 -2142131340 -1444686953 1860676301 2106254438 601796559 -578233056 1830393934 1087160580 1844201400 -224891131 2104473930 947130860 -1257908540 1173328981
REM
CELL 1.54180   50.00000   50.00000   50.00000   90.00000   90.00000   90.00000
LATT -1
SFAC C  
C      1  0.5386140000000  0.4588190000000  0.5793620000000 1.0
C      1  0.5499650000000  0.5084730000000  0.5516490000000 1.0
C      1  0.5127110000000  0.5334990000000  0.5010170000000 1.0
C      1  0.5695800000000  0.5347970000000  0.4522370000000 1.0
C      1  0.4792120000000  0.5710960000000  0.4687770000000 1.0
C      1  0.5107050000000  0.4882830000000  0.4397050000000 1.0
C      1  0.5379330000000  0.4946390000000  0.4953630000000 1.0
C      1  0.5290350000000  0.5075760000000  0.4427490000000 1.0
C      1  0.5461480000000  0.5678870000000  0.5005420000000 1.0
C      1  0.5378110000000  0.5230030000000  0.4889220000000 1.0
C      1  0.5425590000000  0.5307180000000  0.4590450000000 1.0
C      1  0.5413670000000  0.4847130000000  0.5614470000000 1.0
C      1  0.4334450000000  0.4498390000000  0.4940220000000 1.0
C      1  0.5063710000000  0.4680360000000  0.5234950000000 1.0
C      1  0.5112450000000  0.4864670000000  0.5040420000000 1.0
C      1  0.5538090000000  0.5515050000000  0.5205110000000 1.0
C      1  0.4646480000000  0.4406550000000  0.5364190000000 1.0
C      1  0.4876180000000  0.4757690000000  0.4470460000000 1.0
C      1  0.4447560000000  0.4412980000000  0.5183030000000 1.0
C      1  0.4976860000000  0.5536790000000  0.4492900000000 1.0
C      1  0.4943450000000  0.5103290000000  0.4994380000000 1.0
C      1  0.4489220000000  0.4668690000000  0.4779040000000 1.0
C      1  0.4681750000000  0.4830400000000  0.4663380000000 1.0
C      1  0.5273970000000  0.5738570000000  0.4802660000000 1.0
C      1  0.5466080000000  0.4443190000000  0.6005780000000 1.0
C      1  0.5543600000000  0.5309590000000  0.5377470000000 1.0
C      1  0.4078990000000  0.4417290000000  0.4862600000000 1.0
C      1  0.5252650000000  0.5561790000000  0.4574220000000 1.0
C      1  0.4741880000000  0.5110610000000  0.4766170000000 1.0
C      1  0.5046310000000  0.5592000000000  0.5096680000000 1.0
C      1  0.5543930000000  0.4301990000000  0.6212390000000 1.0
C      1  0.5187420000000  0.4617930000000  0.5533090000000 1.0
C      1  0.4896770000000  0.4495740000000  0.5426340000000 1.0
C      1  0.4839210000000  0.5262410000000  0.4477520000000 1.0
C      1  0.3595250000000  0.4263720000000  0.4715640000000 1.0
C      1  0.4648800000000  0.5429780000000  0.4691210000000 1.0
C      1  0.3835180000000  0.4339890000000  0.4788530000000 1.0
C      1  0.4983340000000  0.5805590000000  0.4893500000000 1.0
END
