TITL C-2778427-5640-521 0.00708354394904068 125000 -1165.64798986389 0 0 200 (C1) n - 1
REM
REM in /home/nfs/bkarasulu/CARBON/AIRSS/Generating-Clusters/REBO/Only-C1/SD-CG/HFTN-CG
REM
REM
REM
REM
REM
REM ./C.cell (11c1c37f851c82e70ff6c80c92926a4b)
REM
REM compiler GCC version 9.2.1 20190827 (Red Hat 9.2.1-1)
REM options -cpp -mtune=generic -march=x86-64 -g -O0 -fpre-include=/usr/include/finclude/math-vector-fortran.h
REM seed 928627118 947490617 -406655251 1169039885 -1723665039 -442661244 -1983896308 839736100 1011006346 -333047712 -1973226180 520474570 1009050997 -1325564886 -312643445 -858978150 -384017108 -484879590 1250862217 491089456 64983330 -1159933454 -722937650 1887574193 -42433951 2097518004 -715888649 1179603309 476011771 1488443422 -2012457876 -1873303747 2001746580
REM
CELL 1.54180   50.00000   50.00000   50.00000   90.00000   90.00000   90.00000
LATT -1
SFAC C  
C      1  0.4644510000000  0.4820670000000  0.5259070000000 1.0
C      1  0.4405060000000  0.4175280000000  0.5469700000000 1.0
C      1  0.5130820000000  0.4469290000000  0.5475590000000 1.0
C      1  0.4574730000000  0.3898530000000  0.5108690000000 1.0
C      1  0.4731440000000  0.4409180000000  0.5391990000000 1.0
C      1  0.3891150000000  0.5254690000000  0.4409870000000 1.0
C      1  0.6001510000000  0.5538860000000  0.5052580000000 1.0
C      1  0.5931470000000  0.4537970000000  0.5203920000000 1.0
C      1  0.5684980000000  0.5411080000000  0.3997000000000 1.0
C      1  0.4007600000000  0.4496140000000  0.5136870000000 1.0
C      1  0.4767350000000  0.5482860000000  0.4678220000000 1.0
C      1  0.4049020000000  0.5559300000000  0.5117010000000 1.0
C      1  0.4577920000000  0.5689340000000  0.5709710000000 1.0
C      1  0.4412090000000  0.4215280000000  0.4550420000000 1.0
C      1  0.5766380000000  0.4926850000000  0.5711200000000 1.0
C      1  0.5129470000000  0.4438880000000  0.5770550000000 1.0
C      1  0.4207670000000  0.4907940000000  0.5793570000000 1.0
C      1  0.5449510000000  0.5096980000000  0.4470340000000 1.0
C      1  0.4526150000000  0.6128810000000  0.4836450000000 1.0
C      1  0.5076610000000  0.5557440000000  0.4638360000000 1.0
C      1  0.5059800000000  0.4183010000000  0.5332560000000 1.0
C      1  0.5345750000000  0.4771090000000  0.5789180000000 1.0
C      1  0.5398300000000  0.6008250000000  0.5689970000000 1.0
C      1  0.4374160000000  0.4894060000000  0.5431180000000 1.0
C      1  0.4059310000000  0.5005370000000  0.5502580000000 1.0
C      1  0.4006120000000  0.5276310000000  0.5304150000000 1.0
C      1  0.5145230000000  0.5296960000000  0.4930360000000 1.0
C      1  0.4199430000000  0.4265710000000  0.4730950000000 1.0
C      1  0.5253850000000  0.4894300000000  0.5101670000000 1.0
C      1  0.5532540000000  0.5769180000000  0.5685390000000 1.0
C      1  0.5964140000000  0.3738660000000  0.3973100000000 1.0
C      1  0.5102340000000  0.6011950000000  0.4699840000000 1.0
C      1  0.4863390000000  0.5921300000000  0.4339340000000 1.0
C      1  0.5482460000000  0.5179410000000  0.5310590000000 1.0
C      1  0.5408380000000  0.5493250000000  0.5424580000000 1.0
C      1  0.5230190000000  0.3976420000000  0.5656080000000 1.0
C      1  0.5072800000000  0.4089200000000  0.4867340000000 1.0
C      1  0.4566640000000  0.5127730000000  0.6138140000000 1.0
C      1  0.4867150000000  0.4773990000000  0.4844430000000 1.0
C      1  0.5611840000000  0.4633890000000  0.5721180000000 1.0
C      1  0.4758640000000  0.5244060000000  0.4998110000000 1.0
C      1  0.4280580000000  0.5401720000000  0.5421260000000 1.0
C      1  0.5675410000000  0.4592150000000  0.5005240000000 1.0
C      1  0.5737120000000  0.4336250000000  0.5710840000000 1.0
C      1  0.4661580000000  0.5591620000000  0.5409990000000 1.0
C      1  0.5184900000000  0.4575910000000  0.5100740000000 1.0
C      1  0.4855880000000  0.4328360000000  0.5100000000000 1.0
C      1  0.4146000000000  0.5314230000000  0.4551320000000 1.0
C      1  0.4739030000000  0.3740000000000  0.5278100000000 1.0
C      1  0.4464840000000  0.4581540000000  0.4150300000000 1.0
C      1  0.4443700000000  0.5341360000000  0.4041480000000 1.0
C      1  0.5615500000000  0.4880130000000  0.5407900000000 1.0
C      1  0.4348840000000  0.4497580000000  0.5460680000000 1.0
C      1  0.4106820000000  0.5290230000000  0.4829290000000 1.0
C      1  0.4954330000000  0.3863920000000  0.5389460000000 1.0
C      1  0.4741760000000  0.5107800000000  0.5293340000000 1.0
C      1  0.4361720000000  0.5204170000000  0.4985110000000 1.0
C      1  0.5075510000000  0.4635980000000  0.4609380000000 1.0
C      1  0.5848070000000  0.5675530000000  0.4786010000000 1.0
C      1  0.4312510000000  0.5896450000000  0.5375080000000 1.0
C      1  0.5032760000000  0.4704460000000  0.5899490000000 1.0
C      1  0.5338970000000  0.5260020000000  0.4228400000000 1.0
C      1  0.4474270000000  0.5931990000000  0.5077620000000 1.0
C      1  0.5520150000000  0.5257730000000  0.5722790000000 1.0
C      1  0.5174450000000  0.4460600000000  0.4106400000000 1.0
C      1  0.4785930000000  0.4880660000000  0.5745520000000 1.0
C      1  0.4665190000000  0.5446540000000  0.4359910000000 1.0
C      1  0.4865640000000  0.6143130000000  0.4853490000000 1.0
C      1  0.5221050000000  0.4198780000000  0.5856980000000 1.0
C      1  0.4162270000000  0.4973740000000  0.4342550000000 1.0
C      1  0.5955730000000  0.4833800000000  0.5372160000000 1.0
C      1  0.4751840000000  0.4645270000000  0.6065500000000 1.0
C      1  0.6009230000000  0.5108460000000  0.5555590000000 1.0
C      1  0.4743970000000  0.4848340000000  0.4553820000000 1.0
C      1  0.5187880000000  0.5102730000000  0.4662730000000 1.0
C      1  0.5762290000000  0.4917440000000  0.5039950000000 1.0
C      1  0.3943200000000  0.4976840000000  0.4604410000000 1.0
C      1  0.5703460000000  0.4486450000000  0.5425350000000 1.0
C      1  0.5159840000000  0.4229500000000  0.3997270000000 1.0
C      1  0.4667740000000  0.4545610000000  0.4954630000000 1.0
C      1  0.4362340000000  0.4055370000000  0.5213920000000 1.0
C      1  0.3899860000000  0.5026450000000  0.5116430000000 1.0
C      1  0.5629600000000  0.5420340000000  0.4839290000000 1.0
C      1  0.4975510000000  0.5005330000000  0.4986090000000 1.0
C      1  0.5748120000000  0.3744090000000  0.5165390000000 1.0
C      1  0.3900400000000  0.4602550000000  0.4895300000000 1.0
C      1  0.5317570000000  0.5729510000000  0.4153370000000 1.0
C      1  0.4546710000000  0.4841320000000  0.4072990000000 1.0
C      1  0.5474310000000  0.5900980000000  0.5121180000000 1.0
C      1  0.4328290000000  0.5204700000000  0.5907610000000 1.0
C      1  0.5318040000000  0.4812450000000  0.4773600000000 1.0
C      1  0.5039440000000  0.4695050000000  0.4306350000000 1.0
C      1  0.4994510000000  0.5311860000000  0.5313110000000 1.0
C      1  0.4509130000000  0.4853450000000  0.5944610000000 1.0
C      1  0.4411740000000  0.5846820000000  0.4694370000000 1.0
C      1  0.4259960000000  0.4589190000000  0.5782140000000 1.0
C      1  0.4565830000000  0.5222070000000  0.4734480000000 1.0
C      1  0.5531740000000  0.4815230000000  0.4374840000000 1.0
C      1  0.5713280000000  0.5651790000000  0.5448290000000 1.0
C      1  0.4303210000000  0.5676180000000  0.5561900000000 1.0
C      1  0.5357190000000  0.5484690000000  0.4460110000000 1.0
C      1  0.4969410000000  0.5347750000000  0.3901310000000 1.0
C      1  0.4231650000000  0.4270740000000  0.5038230000000 1.0
C      1  0.5200890000000  0.5921880000000  0.4382760000000 1.0
C      1  0.4960030000000  0.6096710000000  0.5164680000000 1.0
C      1  0.6195810000000  0.4767250000000  0.4851480000000 1.0
C      1  0.5503350000000  0.3872180000000  0.5188600000000 1.0
C      1  0.5762190000000  0.5340710000000  0.5540930000000 1.0
C      1  0.4784190000000  0.5630390000000  0.5922120000000 1.0
C      1  0.5416890000000  0.4235080000000  0.4725120000000 1.0
C      1  0.5312970000000  0.5028730000000  0.5618650000000 1.0
C      1  0.4679480000000  0.5144290000000  0.4296820000000 1.0
C      1  0.5309140000000  0.4975320000000  0.3950220000000 1.0
C      1  0.4415210000000  0.5155460000000  0.4470100000000 1.0
C      1  0.5048000000000  0.5292690000000  0.5887020000000 1.0
C      1  0.4858480000000  0.6116880000000  0.5496450000000 1.0
C      1  0.5803990000000  0.3852920000000  0.4148950000000 1.0
C      1  0.4402250000000  0.4539960000000  0.5121580000000 1.0
C      1  0.5297110000000  0.5639890000000  0.5159670000000 1.0
C      1  0.5510300000000  0.3897890000000  0.4272620000000 1.0
C      1  0.5379250000000  0.3981810000000  0.4949180000000 1.0
C      1  0.4408390000000  0.5181470000000  0.5584170000000 1.0
C      1  0.5432730000000  0.5965430000000  0.4633150000000 1.0
C      1  0.5845440000000  0.5533120000000  0.4492130000000 1.0
C      1  0.5758230000000  0.4052380000000  0.4400380000000 1.0
C      1  0.5504340000000  0.5199220000000  0.3970630000000 1.0
C      1  0.4532160000000  0.5841200000000  0.4390620000000 1.0
C      1  0.4965300000000  0.4725420000000  0.5319720000000 1.0
C      1  0.4638970000000  0.5350220000000  0.5909610000000 1.0
C      1  0.4750920000000  0.4054170000000  0.4925900000000 1.0
C      1  0.4389780000000  0.4868720000000  0.5034450000000 1.0
C      1  0.4980120000000  0.5451320000000  0.5591890000000 1.0
C      1  0.5579030000000  0.5048100000000  0.5957670000000 1.0
C      1  0.4940090000000  0.5081480000000  0.4487190000000 1.0
C      1  0.5675980000000  0.5930170000000  0.4868970000000 1.0
C      1  0.5091080000000  0.4420460000000  0.4859330000000 1.0
C      1  0.4629370000000  0.5982180000000  0.5353080000000 1.0
C      1  0.4699520000000  0.6088020000000  0.4559650000000 1.0
C      1  0.5859300000000  0.4464340000000  0.4670740000000 1.0
C      1  0.4855270000000  0.4912640000000  0.4135370000000 1.0
C      1  0.5727390000000  0.4689670000000  0.4560870000000 1.0
C      1  0.5043480000000  0.5069930000000  0.3945020000000 1.0
C      1  0.4548540000000  0.4458940000000  0.5892470000000 1.0
C      1  0.5611510000000  0.5587030000000  0.4254450000000 1.0
C      1  0.4666440000000  0.4124520000000  0.4638710000000 1.0
C      1  0.4910220000000  0.4090570000000  0.5630520000000 1.0
C      1  0.5480760000000  0.4525900000000  0.4837580000000 1.0
C      1  0.3870880000000  0.4881690000000  0.4888570000000 1.0
C      1  0.5794360000000  0.5187380000000  0.5230760000000 1.0
C      1  0.3843450000000  0.5385870000000  0.4955720000000 1.0
C      1  0.4542280000000  0.5595840000000  0.4872080000000 1.0
C      1  0.4019280000000  0.4480250000000  0.4655080000000 1.0
C      1  0.4748330000000  0.5196070000000  0.5623430000000 1.0
C      1  0.5419690000000  0.5355920000000  0.5051510000000 1.0
C      1  0.4923320000000  0.5526850000000  0.5057180000000 1.0
C      1  0.4793830000000  0.5803460000000  0.5103410000000 1.0
C      1  0.5690470000000  0.5200000000000  0.4648340000000 1.0
C      1  0.4631450000000  0.4632920000000  0.5609440000000 1.0
C      1  0.5377920000000  0.3895630000000  0.5437630000000 1.0
C      1  0.4684980000000  0.5376970000000  0.3885650000000 1.0
C      1  0.4436050000000  0.4746470000000  0.4521680000000 1.0
C      1  0.5067640000000  0.5076870000000  0.6073900000000 1.0
C      1  0.5200000000000  0.5748230000000  0.4873640000000 1.0
C      1  0.5039130000000  0.5313780000000  0.4292530000000 1.0
C      1  0.4413730000000  0.4368930000000  0.4309680000000 1.0
C      1  0.5258920000000  0.3939980000000  0.4386920000000 1.0
C      1  0.4096260000000  0.4703130000000  0.5357870000000 1.0
C      1  0.4896100000000  0.4290610000000  0.4518370000000 1.0
C      1  0.4828010000000  0.4951670000000  0.6162260000000 1.0
C      1  0.5082560000000  0.5608140000000  0.5941480000000 1.0
C      1  0.4219720000000  0.5689510000000  0.4929810000000 1.0
C      1  0.6049310000000  0.4524910000000  0.4884980000000 1.0
C      1  0.4667910000000  0.4521260000000  0.4614190000000 1.0
C      1  0.4411630000000  0.5588010000000  0.4230420000000 1.0
C      1  0.6092450000000  0.4969230000000  0.5087420000000 1.0
C      1  0.5276430000000  0.6098670000000  0.5213720000000 1.0
C      1  0.5168330000000  0.4220970000000  0.4503120000000 1.0
C      1  0.5339230000000  0.4745020000000  0.4153260000000 1.0
C      1  0.5643810000000  0.4917120000000  0.4766440000000 1.0
C      1  0.5411590000000  0.4617820000000  0.5352230000000 1.0
C      1  0.6186840000000  0.5031670000000  0.4705410000000 1.0
C      1  0.5345260000000  0.5526240000000  0.5760370000000 1.0
C      1  0.4246830000000  0.4899040000000  0.4740120000000 1.0
C      1  0.4925300000000  0.5777050000000  0.5526360000000 1.0
C      1  0.6106240000000  0.5266910000000  0.4922270000000 1.0
C      1  0.4649600000000  0.4240200000000  0.5678910000000 1.0
C      1  0.5714920000000  0.4223430000000  0.4611490000000 1.0
C      1  0.5217680000000  0.3863770000000  0.4673310000000 1.0
C      1  0.5785640000000  0.5777080000000  0.5164090000000 1.0
C      1  0.5460240000000  0.5641270000000  0.4701440000000 1.0
C      1  0.4124310000000  0.4654280000000  0.4453780000000 1.0
C      1  0.4351240000000  0.5059300000000  0.4088640000000 1.0
C      1  0.6086400000000  0.5335930000000  0.5312370000000 1.0
C      1  0.5317090000000  0.4938510000000  0.6070600000000 1.0
C      1  0.5123490000000  0.5021440000000  0.5373270000000 1.0
C      1  0.5164300000000  0.6022570000000  0.5500310000000 1.0
C      1  0.5992500000000  0.5247880000000  0.4568440000000 1.0
C      1  0.4477010000000  0.5462200000000  0.5174310000000 1.0
C      1  0.5147980000000  0.5563520000000  0.3999360000000 1.0
C      1  0.4938510000000  0.5617480000000  0.4344410000000 1.0
END
