TITL C-2778436-5916-7 0.000263778974887417 125000 -1080.14149186109 0 0 185 (C1) n - 1
REM
REM in /home/nfs/bkarasulu/CARBON/AIRSS/Generating-Clusters/REBO/Only-C1/SD-CG/HFTN-CG
REM
REM
REM
REM
REM
REM ./C.cell (11c1c37f851c82e70ff6c80c92926a4b)
REM
REM compiler GCC version 9.2.1 20190827 (Red Hat 9.2.1-1)
REM options -cpp -mtune=generic -march=x86-64 -g -O0 -fpre-include=/usr/include/finclude/math-vector-fortran.h
REM seed -1045010672 -1828442954 848991695 -1097033942 -283276837 -732637336 -745233495 227182454 2124753261 -1394800302 1013674 -1976853589 -1334130548 -1690085127 -1479153239 -937093061 -1781751075 36106799 1506848102 -1740683414 791478787 275178051 247119892 -1635044600 -1614457099 1882019004 -2010422821 -1809618091 -982397342 -81534666 -1887895543 -1350282771 507007106
REM
CELL 1.54180   50.00000   50.00000   50.00000   90.00000   90.00000   90.00000
LATT -1
SFAC C  
C      1  0.5775450000000  0.4685220000000  0.4215910000000 1.0
C      1  0.5092260000000  0.5232670000000  0.4501350000000 1.0
C      1  0.4008210000000  0.5667620000000  0.4785490000000 1.0
C      1  0.4337420000000  0.4484530000000  0.4426210000000 1.0
C      1  0.5079460000000  0.4449590000000  0.4628810000000 1.0
C      1  0.4318630000000  0.5262720000000  0.4250190000000 1.0
C      1  0.5153570000000  0.5007180000000  0.6045520000000 1.0
C      1  0.5319500000000  0.5760570000000  0.4281200000000 1.0
C      1  0.5677860000000  0.4109940000000  0.4752560000000 1.0
C      1  0.5660230000000  0.5724940000000  0.5340750000000 1.0
C      1  0.5424910000000  0.5408710000000  0.4163500000000 1.0
C      1  0.5714370000000  0.4221710000000  0.5019030000000 1.0
C      1  0.5442380000000  0.5512320000000  0.5781860000000 1.0
C      1  0.4648800000000  0.5940200000000  0.4433900000000 1.0
C      1  0.4495580000000  0.4664970000000  0.4833660000000 1.0
C      1  0.5515090000000  0.4679820000000  0.4845820000000 1.0
C      1  0.4645640000000  0.5077280000000  0.4659750000000 1.0
C      1  0.3775270000000  0.4798540000000  0.5445640000000 1.0
C      1  0.4525660000000  0.5037780000000  0.4215760000000 1.0
C      1  0.6029780000000  0.5131620000000  0.4771120000000 1.0
C      1  0.5268950000000  0.5243720000000  0.5664010000000 1.0
C      1  0.5482670000000  0.4654440000000  0.5243070000000 1.0
C      1  0.4897280000000  0.4237310000000  0.4784000000000 1.0
C      1  0.4566840000000  0.4287320000000  0.4269070000000 1.0
C      1  0.4144350000000  0.4661100000000  0.4643990000000 1.0
C      1  0.3848770000000  0.5065710000000  0.4481130000000 1.0
C      1  0.4705590000000  0.5196780000000  0.5585350000000 1.0
C      1  0.5009500000000  0.4092940000000  0.5395920000000 1.0
C      1  0.4489730000000  0.5207210000000  0.5822630000000 1.0
C      1  0.5980070000000  0.5557790000000  0.5171530000000 1.0
C      1  0.5034490000000  0.4468540000000  0.5261050000000 1.0
C      1  0.4793190000000  0.5703470000000  0.4278290000000 1.0
C      1  0.5108650000000  0.5850450000000  0.5621750000000 1.0
C      1  0.5613200000000  0.5983090000000  0.4713200000000 1.0
C      1  0.6006000000000  0.4642720000000  0.4992930000000 1.0
C      1  0.3811330000000  0.5059520000000  0.5337380000000 1.0
C      1  0.5493870000000  0.5463230000000  0.5274280000000 1.0
C      1  0.4602460000000  0.4020900000000  0.5140480000000 1.0
C      1  0.4802330000000  0.5054700000000  0.4103640000000 1.0
C      1  0.4445860000000  0.4577640000000  0.5209960000000 1.0
C      1  0.5331590000000  0.4146160000000  0.4946550000000 1.0
C      1  0.5206860000000  0.4792310000000  0.4784210000000 1.0
C      1  0.4932390000000  0.3919320000000  0.4675110000000 1.0
C      1  0.3978070000000  0.4614840000000  0.5381380000000 1.0
C      1  0.4357240000000  0.5504760000000  0.5820520000000 1.0
C      1  0.4304290000000  0.5016260000000  0.5393170000000 1.0
C      1  0.5059850000000  0.5560690000000  0.4188720000000 1.0
C      1  0.5388600000000  0.4384960000000  0.4729780000000 1.0
C      1  0.4085550000000  0.5307030000000  0.5756650000000 1.0
C      1  0.4266550000000  0.5669470000000  0.5549030000000 1.0
C      1  0.5890110000000  0.5530340000000  0.5498260000000 1.0
C      1  0.4081150000000  0.4822540000000  0.4824180000000 1.0
C      1  0.4705410000000  0.4056230000000  0.4485220000000 1.0
C      1  0.5416540000000  0.4794450000000  0.5611600000000 1.0
C      1  0.4390620000000  0.5168700000000  0.4676340000000 1.0
C      1  0.5550760000000  0.5103360000000  0.4150930000000 1.0
C      1  0.5615820000000  0.4969820000000  0.5442010000000 1.0
C      1  0.4690930000000  0.4875170000000  0.5294240000000 1.0
C      1  0.5407070000000  0.4187340000000  0.4244400000000 1.0
C      1  0.5446580000000  0.5142650000000  0.5933230000000 1.0
C      1  0.5669070000000  0.4489080000000  0.5664580000000 1.0
C      1  0.4830460000000  0.4985050000000  0.5945380000000 1.0
C      1  0.6103250000000  0.5103670000000  0.4476090000000 1.0
C      1  0.5204580000000  0.3875730000000  0.4542160000000 1.0
C      1  0.4250560000000  0.4747300000000  0.5343850000000 1.0
C      1  0.5658720000000  0.4784950000000  0.4583840000000 1.0
C      1  0.4933190000000  0.4237430000000  0.5094530000000 1.0
C      1  0.5502070000000  0.4100480000000  0.5238620000000 1.0
C      1  0.4837010000000  0.5683800000000  0.5747250000000 1.0
C      1  0.5049410000000  0.4942740000000  0.4396890000000 1.0
C      1  0.4806590000000  0.4204330000000  0.5634270000000 1.0
C      1  0.5005460000000  0.5281340000000  0.4092800000000 1.0
C      1  0.4564910000000  0.4133910000000  0.5404820000000 1.0
C      1  0.5517040000000  0.6006030000000  0.5024770000000 1.0
C      1  0.5845900000000  0.5194760000000  0.5479470000000 1.0
C      1  0.4053190000000  0.5491770000000  0.5352350000000 1.0
C      1  0.6253220000000  0.5071450000000  0.5095650000000 1.0
C      1  0.4470720000000  0.4937420000000  0.5038430000000 1.0
C      1  0.5238770000000  0.5395890000000  0.6029620000000 1.0
C      1  0.5794590000000  0.5697830000000  0.4706710000000 1.0
C      1  0.4333490000000  0.4932510000000  0.5895930000000 1.0
C      1  0.4834570000000  0.6034720000000  0.4666420000000 1.0
C      1  0.5222990000000  0.5752070000000  0.5327530000000 1.0
C      1  0.4972280000000  0.4689430000000  0.5718090000000 1.0
C      1  0.4323840000000  0.4289370000000  0.5458170000000 1.0
C      1  0.4843840000000  0.5405860000000  0.4538570000000 1.0
C      1  0.4230630000000  0.5398640000000  0.5095410000000 1.0
C      1  0.4861240000000  0.5612750000000  0.5419310000000 1.0
C      1  0.3883620000000  0.5158760000000  0.4739120000000 1.0
C      1  0.4312370000000  0.5597780000000  0.4257720000000 1.0
C      1  0.4416650000000  0.4087730000000  0.4946560000000 1.0
C      1  0.4035720000000  0.5138880000000  0.4292530000000 1.0
C      1  0.6134500000000  0.4862040000000  0.4914450000000 1.0
C      1  0.4993940000000  0.5122560000000  0.5698860000000 1.0
C      1  0.5016470000000  0.4385530000000  0.5840850000000 1.0
C      1  0.4361870000000  0.4510800000000  0.5645030000000 1.0
C      1  0.4850080000000  0.4495160000000  0.5495930000000 1.0
C      1  0.5202600000000  0.4239810000000  0.5622690000000 1.0
C      1  0.5740390000000  0.5435980000000  0.5778510000000 1.0
C      1  0.5008790000000  0.3948010000000  0.4097490000000 1.0
C      1  0.5603100000000  0.4982950000000  0.4419290000000 1.0
C      1  0.4936530000000  0.5284640000000  0.6056800000000 1.0
C      1  0.4962580000000  0.5009900000000  0.5319090000000 1.0
C      1  0.5415710000000  0.3944370000000  0.4708170000000 1.0
C      1  0.5146400000000  0.5224600000000  0.5039520000000 1.0
C      1  0.5792890000000  0.5805370000000  0.5035350000000 1.0
C      1  0.5276540000000  0.5166490000000  0.3974210000000 1.0
C      1  0.3938460000000  0.5268790000000  0.5498640000000 1.0
C      1  0.4692070000000  0.5470030000000  0.5906410000000 1.0
C      1  0.5571140000000  0.5768060000000  0.4452820000000 1.0
C      1  0.4858150000000  0.5191420000000  0.4875670000000 1.0
C      1  0.5719900000000  0.5175500000000  0.4776590000000 1.0
C      1  0.4453090000000  0.4779100000000  0.4300350000000 1.0
C      1  0.4113080000000  0.5871950000000  0.4679050000000 1.0
C      1  0.4915350000000  0.5627060000000  0.4756460000000 1.0
C      1  0.5758720000000  0.5114800000000  0.5810480000000 1.0
C      1  0.4590730000000  0.5249070000000  0.5015680000000 1.0
C      1  0.3879160000000  0.5039420000000  0.5040540000000 1.0
C      1  0.5144700000000  0.4874280000000  0.5550000000000 1.0
C      1  0.4614310000000  0.4829570000000  0.5836030000000 1.0
C      1  0.5176980000000  0.5468020000000  0.5221270000000 1.0
C      1  0.4643450000000  0.4582390000000  0.4188170000000 1.0
C      1  0.5708740000000  0.4807970000000  0.5795560000000 1.0
C      1  0.5523050000000  0.4237510000000  0.5534910000000 1.0
C      1  0.6268370000000  0.4963840000000  0.5358160000000 1.0
C      1  0.5328130000000  0.5414970000000  0.4475310000000 1.0
C      1  0.5772940000000  0.4685150000000  0.5421910000000 1.0
C      1  0.5465280000000  0.4685890000000  0.4191590000000 1.0
C      1  0.6109470000000  0.5341530000000  0.5031400000000 1.0
C      1  0.5882490000000  0.5243580000000  0.4303130000000 1.0
C      1  0.5951540000000  0.4916970000000  0.4238070000000 1.0
C      1  0.5648190000000  0.5461470000000  0.4905630000000 1.0
C      1  0.4441650000000  0.5542190000000  0.5312270000000 1.0
C      1  0.4293560000000  0.4295570000000  0.4706200000000 1.0
C      1  0.5317120000000  0.4436510000000  0.5363570000000 1.0
C      1  0.5333280000000  0.4403650000000  0.4083530000000 1.0
C      1  0.4326190000000  0.5979780000000  0.5451420000000 1.0
C      1  0.4665960000000  0.5716360000000  0.4911170000000 1.0
C      1  0.4851750000000  0.4737180000000  0.4063580000000 1.0
C      1  0.4601080000000  0.4303200000000  0.4665370000000 1.0
C      1  0.5591720000000  0.4275210000000  0.4479900000000 1.0
C      1  0.4606260000000  0.5437910000000  0.4319450000000 1.0
C      1  0.5056920000000  0.4699380000000  0.5044700000000 1.0
C      1  0.5423310000000  0.5746690000000  0.5587150000000 1.0
C      1  0.4115060000000  0.4366740000000  0.5262420000000 1.0
C      1  0.5566000000000  0.4986070000000  0.4992780000000 1.0
C      1  0.6023930000000  0.4910690000000  0.5465170000000 1.0
C      1  0.5211430000000  0.4896150000000  0.4128090000000 1.0
C      1  0.4701320000000  0.6048630000000  0.4983930000000 1.0
C      1  0.5010300000000  0.5915460000000  0.4921640000000 1.0
C      1  0.4779070000000  0.4866550000000  0.4512620000000 1.0
C      1  0.5038870000000  0.5856710000000  0.4456740000000 1.0
C      1  0.4356260000000  0.5864190000000  0.4460680000000 1.0
C      1  0.4258510000000  0.4453980000000  0.4970390000000 1.0
C      1  0.4518240000000  0.5232710000000  0.5335230000000 1.0
C      1  0.5232260000000  0.3966690000000  0.4272950000000 1.0
C      1  0.5451780000000  0.4612140000000  0.5898370000000 1.0
C      1  0.5616130000000  0.5297100000000  0.4494550000000 1.0
C      1  0.5144290000000  0.5073230000000  0.4762410000000 1.0
C      1  0.5386060000000  0.5177260000000  0.5397570000000 1.0
C      1  0.5227400000000  0.5648100000000  0.4651750000000 1.0
C      1  0.5705080000000  0.5244370000000  0.5166310000000 1.0
C      1  0.5227900000000  0.5947090000000  0.5111780000000 1.0
C      1  0.5121030000000  0.4605980000000  0.4008200000000 1.0
C      1  0.4586350000000  0.6037090000000  0.5305010000000 1.0
C      1  0.5280540000000  0.4929760000000  0.5177890000000 1.0
C      1  0.4108200000000  0.5354180000000  0.4719880000000 1.0
C      1  0.5198570000000  0.3953360000000  0.5176490000000 1.0
C      1  0.5152620000000  0.4668950000000  0.5987060000000 1.0
C      1  0.4743560000000  0.4651540000000  0.5060570000000 1.0
C      1  0.4765570000000  0.4039470000000  0.4164580000000 1.0
C      1  0.4197850000000  0.4683360000000  0.5812470000000 1.0
C      1  0.4653230000000  0.5730360000000  0.5217960000000 1.0
C      1  0.5259730000000  0.4686460000000  0.4463810000000 1.0
C      1  0.4802480000000  0.5940820000000  0.5521200000000 1.0
C      1  0.4928940000000  0.5320140000000  0.5359490000000 1.0
C      1  0.4609720000000  0.4692200000000  0.5554570000000 1.0
C      1  0.4766570000000  0.4585940000000  0.4640430000000 1.0
C      1  0.5430420000000  0.5718200000000  0.4854980000000 1.0
C      1  0.4899670000000  0.3911440000000  0.5014080000000 1.0
C      1  0.4447920000000  0.5511750000000  0.4872620000000 1.0
C      1  0.4195870000000  0.5106160000000  0.5019870000000 1.0
C      1  0.4335420000000  0.5552310000000  0.4589260000000 1.0
C      1  0.5728790000000  0.4526090000000  0.5044370000000 1.0
C      1  0.5827210000000  0.4454050000000  0.4366810000000 1.0
END
