TITL C-2778426-5645-1445 0.000374043713497998 125000 -879.425335313682 0 0 154 (C1) n - 1
REM
REM in /home/nfs/bkarasulu/CARBON/AIRSS/Generating-Clusters/REBO/Only-C1/SD-CG/HFTN-CG
REM
REM
REM
REM
REM
REM ./C.cell (11c1c37f851c82e70ff6c80c92926a4b)
REM
REM compiler GCC version 9.2.1 20190827 (Red Hat 9.2.1-1)
REM options -cpp -mtune=generic -march=x86-64 -g -O0 -fpre-include=/usr/include/finclude/math-vector-fortran.h
REM seed 529686054 1052438954 935252276 -1151563925 -254006602 566540946 334112577 1059476085 1123059858 -1195192420 -1343418737 1402163099 519754307 -522756341 -331224375 -823029545 -2115446352 -1072489206 367220544 -1334599875 -231757104 -84626249 -1833330692 333092140 -1592543909 597406523 -431529309 -1282992069 973516219 585536258 248544502 1690298944 1531767047
REM
CELL 1.54180   50.00000   50.00000   50.00000   90.00000   90.00000   90.00000
LATT -1
SFAC C  
C      1  0.4830070000000  0.6002520000000  0.5217720000000 1.0
C      1  0.4111590000000  0.4598040000000  0.4362450000000 1.0
C      1  0.5522210000000  0.4360070000000  0.5295670000000 1.0
C      1  0.5342180000000  0.4662670000000  0.5614800000000 1.0
C      1  0.4562760000000  0.4145430000000  0.5409000000000 1.0
C      1  0.5842750000000  0.4502620000000  0.4813060000000 1.0
C      1  0.4785130000000  0.5646100000000  0.4836470000000 1.0
C      1  0.4459960000000  0.5447870000000  0.5127830000000 1.0
C      1  0.5017550000000  0.4668670000000  0.5382320000000 1.0
C      1  0.5167150000000  0.5182850000000  0.5194280000000 1.0
C      1  0.4930500000000  0.5390930000000  0.4102220000000 1.0
C      1  0.5700430000000  0.5323710000000  0.5721550000000 1.0
C      1  0.4076550000000  0.5234410000000  0.4678180000000 1.0
C      1  0.5855880000000  0.5215990000000  0.4983620000000 1.0
C      1  0.5335900000000  0.5671580000000  0.4238300000000 1.0
C      1  0.5809930000000  0.4562510000000  0.5483060000000 1.0
C      1  0.5394140000000  0.4439770000000  0.4930400000000 1.0
C      1  0.4911590000000  0.5166570000000  0.4432330000000 1.0
C      1  0.4807010000000  0.4598300000000  0.4823490000000 1.0
C      1  0.4532720000000  0.5896160000000  0.5315630000000 1.0
C      1  0.4507200000000  0.5155400000000  0.5037600000000 1.0
C      1  0.4742840000000  0.5688990000000  0.5448410000000 1.0
C      1  0.4558640000000  0.5021650000000  0.3991050000000 1.0
C      1  0.5448810000000  0.4842530000000  0.5954470000000 1.0
C      1  0.5249910000000  0.5641910000000  0.5102270000000 1.0
C      1  0.4568430000000  0.4336870000000  0.4410570000000 1.0
C      1  0.5076000000000  0.5545040000000  0.4755540000000 1.0
C      1  0.5324350000000  0.6032920000000  0.5128170000000 1.0
C      1  0.5529450000000  0.5499370000000  0.4624350000000 1.0
C      1  0.5194030000000  0.4924420000000  0.6055410000000 1.0
C      1  0.5082240000000  0.4153870000000  0.4848650000000 1.0
C      1  0.5637570000000  0.4626720000000  0.5770640000000 1.0
C      1  0.4209620000000  0.4735710000000  0.5041960000000 1.0
C      1  0.4523790000000  0.4718440000000  0.4047120000000 1.0
C      1  0.4726020000000  0.5902610000000  0.4661070000000 1.0
C      1  0.5137270000000  0.4956900000000  0.4708190000000 1.0
C      1  0.4244940000000  0.4509450000000  0.5368070000000 1.0
C      1  0.5532210000000  0.5239790000000  0.4412080000000 1.0
C      1  0.4377780000000  0.4799310000000  0.4322950000000 1.0
C      1  0.5481190000000  0.5194640000000  0.5324740000000 1.0
C      1  0.4471090000000  0.5261680000000  0.5599810000000 1.0
C      1  0.5789170000000  0.5486030000000  0.4827100000000 1.0
C      1  0.5317730000000  0.4973660000000  0.4441230000000 1.0
C      1  0.4954510000000  0.5722900000000  0.5107440000000 1.0
C      1  0.5359800000000  0.5811560000000  0.5648970000000 1.0
C      1  0.4736640000000  0.4137530000000  0.4597840000000 1.0
C      1  0.5206200000000  0.5382560000000  0.4230670000000 1.0
C      1  0.5621600000000  0.4732830000000  0.4305140000000 1.0
C      1  0.5244170000000  0.4696200000000  0.4002900000000 1.0
C      1  0.5766170000000  0.4517930000000  0.5145380000000 1.0
C      1  0.5403940000000  0.5439050000000  0.4953140000000 1.0
C      1  0.3950880000000  0.4883980000000  0.5003540000000 1.0
C      1  0.4920750000000  0.4748500000000  0.4036060000000 1.0
C      1  0.4700270000000  0.5025400000000  0.5964020000000 1.0
C      1  0.4592080000000  0.5096930000000  0.4480670000000 1.0
C      1  0.4437570000000  0.4371540000000  0.5532400000000 1.0
C      1  0.4961400000000  0.4363880000000  0.4356920000000 1.0
C      1  0.4626250000000  0.4724850000000  0.5367190000000 1.0
C      1  0.5250030000000  0.5551300000000  0.5807560000000 1.0
C      1  0.5173540000000  0.5325760000000  0.4563700000000 1.0
C      1  0.5372720000000  0.4104710000000  0.5146840000000 1.0
C      1  0.5132520000000  0.4850470000000  0.5125250000000 1.0
C      1  0.5454370000000  0.4278420000000  0.4496510000000 1.0
C      1  0.5037600000000  0.4915340000000  0.4292940000000 1.0
C      1  0.5983200000000  0.5027700000000  0.4604740000000 1.0
C      1  0.5597570000000  0.5514220000000  0.5293050000000 1.0
C      1  0.4170300000000  0.4836330000000  0.5426460000000 1.0
C      1  0.4879850000000  0.5081470000000  0.3965740000000 1.0
C      1  0.4307580000000  0.4818500000000  0.5718730000000 1.0
C      1  0.4414110000000  0.5189260000000  0.4249260000000 1.0
C      1  0.5187880000000  0.5456420000000  0.6096270000000 1.0
C      1  0.5238490000000  0.4986750000000  0.5636260000000 1.0
C      1  0.4895010000000  0.4367770000000  0.5131260000000 1.0
C      1  0.4989810000000  0.5338820000000  0.5012780000000 1.0
C      1  0.5479340000000  0.4118410000000  0.4858590000000 1.0
C      1  0.4805260000000  0.5283160000000  0.5589370000000 1.0
C      1  0.5187670000000  0.5191410000000  0.6158760000000 1.0
C      1  0.5610450000000  0.4886670000000  0.4572920000000 1.0
C      1  0.4712070000000  0.4022660000000  0.5216090000000 1.0
C      1  0.4416540000000  0.4908550000000  0.5210680000000 1.0
C      1  0.4931220000000  0.4984030000000  0.5485640000000 1.0
C      1  0.5383010000000  0.5165150000000  0.4783140000000 1.0
C      1  0.4791680000000  0.5046610000000  0.5199530000000 1.0
C      1  0.4611290000000  0.5828420000000  0.4416820000000 1.0
C      1  0.4727990000000  0.4490280000000  0.4146100000000 1.0
C      1  0.4704570000000  0.4835630000000  0.5679930000000 1.0
C      1  0.4096280000000  0.5134600000000  0.5277460000000 1.0
C      1  0.4282710000000  0.5732310000000  0.4770580000000 1.0
C      1  0.5406920000000  0.5740280000000  0.4497300000000 1.0
C      1  0.5009340000000  0.5625740000000  0.5608370000000 1.0
C      1  0.4214090000000  0.4284140000000  0.4792690000000 1.0
C      1  0.4931430000000  0.4812940000000  0.6012170000000 1.0
C      1  0.4411610000000  0.5070420000000  0.5810500000000 1.0
C      1  0.4938970000000  0.4278840000000  0.5418200000000 1.0
C      1  0.5411780000000  0.5785020000000  0.5347410000000 1.0
C      1  0.5704560000000  0.5683480000000  0.5046240000000 1.0
C      1  0.4331110000000  0.4470510000000  0.4562960000000 1.0
C      1  0.4831370000000  0.4538910000000  0.5913320000000 1.0
C      1  0.5123440000000  0.5335280000000  0.5483630000000 1.0
C      1  0.5161520000000  0.4391070000000  0.4616280000000 1.0
C      1  0.4002420000000  0.5176310000000  0.4953310000000 1.0
C      1  0.5844100000000  0.4822620000000  0.5045660000000 1.0
C      1  0.4266290000000  0.4415480000000  0.5060710000000 1.0
C      1  0.4354420000000  0.5757340000000  0.5060810000000 1.0
C      1  0.5732360000000  0.4222820000000  0.4691370000000 1.0
C      1  0.5058460000000  0.6100140000000  0.5033000000000 1.0
C      1  0.4524880000000  0.4559440000000  0.5760120000000 1.0
C      1  0.4882980000000  0.4491340000000  0.5602360000000 1.0
C      1  0.4760740000000  0.4150960000000  0.4913670000000 1.0
C      1  0.4620050000000  0.5400960000000  0.4744330000000 1.0
C      1  0.5002330000000  0.4056410000000  0.4468170000000 1.0
C      1  0.5254140000000  0.4338210000000  0.5673780000000 1.0
C      1  0.5002170000000  0.6018430000000  0.4751970000000 1.0
C      1  0.5578750000000  0.4342210000000  0.5607130000000 1.0
C      1  0.4776580000000  0.5660410000000  0.4199240000000 1.0
C      1  0.5463290000000  0.4834350000000  0.4096870000000 1.0
C      1  0.5653200000000  0.5021610000000  0.5819690000000 1.0
C      1  0.4730010000000  0.5622320000000  0.5783220000000 1.0
C      1  0.4371710000000  0.5502030000000  0.4652510000000 1.0
C      1  0.5374260000000  0.5279840000000  0.5700180000000 1.0
C      1  0.4571290000000  0.4568530000000  0.5069340000000 1.0
C      1  0.5138970000000  0.4656200000000  0.4845940000000 1.0
C      1  0.5078360000000  0.4318870000000  0.5902250000000 1.0
C      1  0.5818890000000  0.5360380000000  0.5456400000000 1.0
C      1  0.4720450000000  0.4820210000000  0.4378740000000 1.0
C      1  0.5278270000000  0.4010170000000  0.4612920000000 1.0
C      1  0.5678800000000  0.4990350000000  0.5512940000000 1.0
C      1  0.4213050000000  0.4987320000000  0.4527670000000 1.0
C      1  0.4445180000000  0.5584710000000  0.4243380000000 1.0
C      1  0.5588230000000  0.5929420000000  0.5019290000000 1.0
C      1  0.5204930000000  0.4109720000000  0.5437700000000 1.0
C      1  0.5420620000000  0.5151620000000  0.4102100000000 1.0
C      1  0.5694810000000  0.4502520000000  0.4501660000000 1.0
C      1  0.5359880000000  0.4869260000000  0.5344160000000 1.0
C      1  0.5213650000000  0.4467680000000  0.5199080000000 1.0
C      1  0.5906950000000  0.4845400000000  0.5354450000000 1.0
C      1  0.5653440000000  0.5004650000000  0.4851940000000 1.0
C      1  0.4284480000000  0.5359580000000  0.5386830000000 1.0
C      1  0.4268550000000  0.5688250000000  0.5378660000000 1.0
C      1  0.4221420000000  0.5382710000000  0.4405730000000 1.0
C      1  0.4757110000000  0.5480030000000  0.5198810000000 1.0
C      1  0.4763770000000  0.4567690000000  0.4535210000000 1.0
C      1  0.5046170000000  0.4001510000000  0.5152270000000 1.0
C      1  0.5928470000000  0.5170260000000  0.5261930000000 1.0
C      1  0.4775910000000  0.4882720000000  0.4936610000000 1.0
C      1  0.5171270000000  0.5159790000000  0.3886700000000 1.0
C      1  0.4452010000000  0.5029050000000  0.4760080000000 1.0
C      1  0.5825610000000  0.5246380000000  0.4584000000000 1.0
C      1  0.5194850000000  0.5817360000000  0.4668170000000 1.0
C      1  0.4859140000000  0.5157840000000  0.4770420000000 1.0
C      1  0.5982480000000  0.4802610000000  0.4749140000000 1.0
C      1  0.4598490000000  0.5357330000000  0.4034100000000 1.0
C      1  0.4702270000000  0.5347750000000  0.5909630000000 1.0
C      1  0.4419740000000  0.4690830000000  0.4785550000000 1.0
END
