TITL C-2778427-5640-892 0.000365565515627644 125000 -770.311037769059 0 0 135 (C1) n - 1
REM
REM in /home/nfs/bkarasulu/CARBON/AIRSS/Generating-Clusters/REBO/Only-C1/SD-CG/HFTN-CG
REM
REM
REM
REM
REM
REM ./C.cell (11c1c37f851c82e70ff6c80c92926a4b)
REM
REM compiler GCC version 9.2.1 20190827 (Red Hat 9.2.1-1)
REM options -cpp -mtune=generic -march=x86-64 -g -O0 -fpre-include=/usr/include/finclude/math-vector-fortran.h
REM seed 584499457 -1875691592 2086462010 1550590190 990846219 -136267405 -24631770 1458419972 748865942 397024839 825929302 -229052871 199154426 -1197936397 -1096312096 1637705030 -360618999 -368377554 970312573 524303681 855028682 1845309435 -550134763 -374882678 2098946456 -545996325 -2112258058 1212034684 1503920098 -1033940002 -398057059 804792770 -1673141530
REM
CELL 1.54180   50.00000   50.00000   50.00000   90.00000   90.00000   90.00000
LATT -1
SFAC C  
C      1  0.4951900000000  0.4708770000000  0.4064450000000 1.0
C      1  0.4763400000000  0.4998410000000  0.4879930000000 1.0
C      1  0.5102640000000  0.4505700000000  0.5942840000000 1.0
C      1  0.5679230000000  0.5421460000000  0.4443210000000 1.0
C      1  0.4294090000000  0.5453280000000  0.5427890000000 1.0
C      1  0.5673090000000  0.4665490000000  0.5677790000000 1.0
C      1  0.5304990000000  0.4715460000000  0.5533870000000 1.0
C      1  0.4732440000000  0.4710340000000  0.4465940000000 1.0
C      1  0.5162980000000  0.5965900000000  0.4442860000000 1.0
C      1  0.4154570000000  0.5232470000000  0.5511970000000 1.0
C      1  0.5177070000000  0.4918730000000  0.4085140000000 1.0
C      1  0.5073320000000  0.4581990000000  0.4836920000000 1.0
C      1  0.4480160000000  0.4537690000000  0.4932980000000 1.0
C      1  0.5663890000000  0.5162150000000  0.5710010000000 1.0
C      1  0.4878120000000  0.5978630000000  0.4570170000000 1.0
C      1  0.5548400000000  0.5021500000000  0.4866630000000 1.0
C      1  0.5226060000000  0.4361720000000  0.5133580000000 1.0
C      1  0.5220220000000  0.5186420000000  0.5547880000000 1.0
C      1  0.5920680000000  0.5142740000000  0.5199540000000 1.0
C      1  0.4932280000000  0.4823440000000  0.4687770000000 1.0
C      1  0.5034210000000  0.5448000000000  0.4380360000000 1.0
C      1  0.5161740000000  0.4414690000000  0.5457460000000 1.0
C      1  0.5449430000000  0.5644660000000  0.5500230000000 1.0
C      1  0.5515160000000  0.5765220000000  0.4965500000000 1.0
C      1  0.4841910000000  0.5583030000000  0.5149010000000 1.0
C      1  0.4919640000000  0.4645930000000  0.5453760000000 1.0
C      1  0.4475230000000  0.4211920000000  0.5191220000000 1.0
C      1  0.4894680000000  0.5992400000000  0.4852370000000 1.0
C      1  0.4830780000000  0.4997600000000  0.4343910000000 1.0
C      1  0.4633240000000  0.5396350000000  0.5926670000000 1.0
C      1  0.5203090000000  0.4073600000000  0.4793590000000 1.0
C      1  0.5933760000000  0.5109510000000  0.4932180000000 1.0
C      1  0.4378510000000  0.5790210000000  0.5040350000000 1.0
C      1  0.5004690000000  0.4314900000000  0.4674630000000 1.0
C      1  0.4559610000000  0.4679640000000  0.5710660000000 1.0
C      1  0.4770160000000  0.5092070000000  0.5623920000000 1.0
C      1  0.4720680000000  0.4056510000000  0.4776280000000 1.0
C      1  0.4338780000000  0.4166980000000  0.4910600000000 1.0
C      1  0.5166490000000  0.4454370000000  0.4428490000000 1.0
C      1  0.5522110000000  0.4434130000000  0.5584300000000 1.0
C      1  0.4291620000000  0.4707270000000  0.5049340000000 1.0
C      1  0.5134730000000  0.5741250000000  0.4221470000000 1.0
C      1  0.5474780000000  0.4888030000000  0.5779210000000 1.0
C      1  0.4210360000000  0.5085540000000  0.4630000000000 1.0
C      1  0.5551730000000  0.4545930000000  0.4448530000000 1.0
C      1  0.5671490000000  0.5398080000000  0.5470060000000 1.0
C      1  0.5005000000000  0.5601890000000  0.4850720000000 1.0
C      1  0.5145520000000  0.4953290000000  0.5349250000000 1.0
C      1  0.4225260000000  0.5390000000000  0.4529700000000 1.0
C      1  0.5308290000000  0.5192560000000  0.4248780000000 1.0
C      1  0.5555890000000  0.4116380000000  0.5139340000000 1.0
C      1  0.5176370000000  0.5127150000000  0.4770470000000 1.0
C      1  0.4825420000000  0.5317320000000  0.4855520000000 1.0
C      1  0.5455500000000  0.5326070000000  0.4758720000000 1.0
C      1  0.5402950000000  0.5250090000000  0.5074330000000 1.0
C      1  0.4228920000000  0.4957990000000  0.5353080000000 1.0
C      1  0.5369830000000  0.5270230000000  0.5821380000000 1.0
C      1  0.4639150000000  0.4696090000000  0.5319480000000 1.0
C      1  0.5396290000000  0.5922120000000  0.4687210000000 1.0
C      1  0.4912650000000  0.5329690000000  0.5959650000000 1.0
C      1  0.4831860000000  0.5111390000000  0.4026370000000 1.0
C      1  0.5711400000000  0.4617810000000  0.5191850000000 1.0
C      1  0.4462360000000  0.4859260000000  0.4213780000000 1.0
C      1  0.4692200000000  0.4370630000000  0.5650360000000 1.0
C      1  0.5221260000000  0.4760680000000  0.4515140000000 1.0
C      1  0.5139700000000  0.5459280000000  0.5865220000000 1.0
C      1  0.5823620000000  0.4762340000000  0.5457010000000 1.0
C      1  0.5851800000000  0.5424150000000  0.4705870000000 1.0
C      1  0.3937910000000  0.4957040000000  0.4686200000000 1.0
C      1  0.5202980000000  0.4906920000000  0.5029470000000 1.0
C      1  0.5499630000000  0.4387970000000  0.4928450000000 1.0
C      1  0.4996420000000  0.4163820000000  0.5044850000000 1.0
C      1  0.5605290000000  0.5112150000000  0.4355730000000 1.0
C      1  0.4466830000000  0.5181190000000  0.5859770000000 1.0
C      1  0.5089380000000  0.5281520000000  0.5065380000000 1.0
C      1  0.4323200000000  0.5142500000000  0.4324500000000 1.0
C      1  0.4691230000000  0.5820180000000  0.4451150000000 1.0
C      1  0.5389130000000  0.4664350000000  0.4790640000000 1.0
C      1  0.4251970000000  0.5044800000000  0.5025140000000 1.0
C      1  0.5184310000000  0.5526000000000  0.5343290000000 1.0
C      1  0.4547930000000  0.5767010000000  0.5337640000000 1.0
C      1  0.5819810000000  0.4503270000000  0.4917260000000 1.0
C      1  0.5065670000000  0.5147400000000  0.4482750000000 1.0
C      1  0.4423960000000  0.4489710000000  0.5473750000000 1.0
C      1  0.5517890000000  0.4880360000000  0.5165150000000 1.0
C      1  0.4830700000000  0.4956430000000  0.5213150000000 1.0
C      1  0.4953020000000  0.4835380000000  0.5677450000000 1.0
C      1  0.5781680000000  0.5571070000000  0.4929660000000 1.0
C      1  0.4608920000000  0.5230170000000  0.4233830000000 1.0
C      1  0.5441100000000  0.4823050000000  0.4282040000000 1.0
C      1  0.5852380000000  0.5042320000000  0.5453600000000 1.0
C      1  0.4429800000000  0.5636800000000  0.4490560000000 1.0
C      1  0.5673160000000  0.5646400000000  0.5243280000000 1.0
C      1  0.4698260000000  0.5861850000000  0.5037900000000 1.0
C      1  0.5195580000000  0.4814430000000  0.5905320000000 1.0
C      1  0.4713370000000  0.4288920000000  0.4970790000000 1.0
C      1  0.4469290000000  0.4956580000000  0.4794570000000 1.0
C      1  0.4989350000000  0.4365380000000  0.5727790000000 1.0
C      1  0.4724940000000  0.5264650000000  0.5178580000000 1.0
C      1  0.4947350000000  0.5023440000000  0.5973870000000 1.0
C      1  0.4200400000000  0.4634130000000  0.5326830000000 1.0
C      1  0.5398760000000  0.4288430000000  0.4613880000000 1.0
C      1  0.4933430000000  0.5355340000000  0.5505430000000 1.0
C      1  0.5139430000000  0.5669050000000  0.5642610000000 1.0
C      1  0.5037670000000  0.4461100000000  0.4153460000000 1.0
C      1  0.5484640000000  0.5162810000000  0.5354730000000 1.0
C      1  0.4610680000000  0.5447200000000  0.5442080000000 1.0
C      1  0.4453420000000  0.4979940000000  0.5582120000000 1.0
C      1  0.4213290000000  0.5548750000000  0.5177470000000 1.0
C      1  0.4413590000000  0.4755710000000  0.4531050000000 1.0
C      1  0.4647230000000  0.4910800000000  0.5918070000000 1.0
C      1  0.5224400000000  0.5672100000000  0.5087450000000 1.0
C      1  0.3926430000000  0.4687170000000  0.4640100000000 1.0
C      1  0.4649740000000  0.4149260000000  0.5414650000000 1.0
C      1  0.4662710000000  0.5537840000000  0.4263110000000 1.0
C      1  0.4162050000000  0.4574760000000  0.4556580000000 1.0
C      1  0.4458720000000  0.4338300000000  0.4670200000000 1.0
C      1  0.5043270000000  0.4628480000000  0.5145360000000 1.0
C      1  0.5837660000000  0.5097360000000  0.4606170000000 1.0
C      1  0.6028720000000  0.4497080000000  0.4766400000000 1.0
C      1  0.5168930000000  0.5956960000000  0.4931610000000 1.0
C      1  0.4668060000000  0.4752110000000  0.4073560000000 1.0
C      1  0.4282890000000  0.5597910000000  0.4789200000000 1.0
C      1  0.5639420000000  0.4821970000000  0.4628520000000 1.0
C      1  0.4884050000000  0.4013660000000  0.5320610000000 1.0
C      1  0.5332830000000  0.3949800000000  0.5067960000000 1.0
C      1  0.4716100000000  0.4396890000000  0.4537720000000 1.0
C      1  0.4870760000000  0.5745370000000  0.5448450000000 1.0
C      1  0.4939270000000  0.5513200000000  0.4066810000000 1.0
C      1  0.5117980000000  0.5241330000000  0.3979950000000 1.0
C      1  0.5139410000000  0.5633340000000  0.4596700000000 1.0
C      1  0.5145930000000  0.3869420000000  0.5268940000000 1.0
C      1  0.4169840000000  0.5330700000000  0.4968860000000 1.0
C      1  0.5458590000000  0.5597290000000  0.4607500000000 1.0
C      1  0.5607890000000  0.4344880000000  0.5323680000000 1.0
END
