TITL C-2778427-5640-1260 0.00478905956627536 125000 -1148.58508254987 0 0 198 (C1) n - 1
REM
REM in /home/nfs/bkarasulu/CARBON/AIRSS/Generating-Clusters/REBO/Only-C1/SD-CG/HFTN-CG
REM
REM
REM
REM
REM
REM ./C.cell (11c1c37f851c82e70ff6c80c92926a4b)
REM
REM compiler GCC version 9.2.1 20190827 (Red Hat 9.2.1-1)
REM options -cpp -mtune=generic -march=x86-64 -g -O0 -fpre-include=/usr/include/finclude/math-vector-fortran.h
REM seed -1033239536 -370052916 1294357253 -258820520 931547202 -1498811569 316822997 -2095860757 -824102139 2041522574 1008942966 -1411844797 1301686421 -1430605024 -1416005612 1052207988 -1762439747 340292607 -242097988 1635460071 -1443076069 -1991480553 800024382 -627363977 31327032 1666669859 993992272 -367408593 659666417 -505079725 562964590 438708360 916965943
REM
CELL 1.54180   50.00000   50.00000   50.00000   90.00000   90.00000   90.00000
LATT -1
SFAC C  
C      1  0.4264150000000  0.5438630000000  0.5001910000000 1.0
C      1  0.3896410000000  0.4801930000000  0.5081490000000 1.0
C      1  0.4756440000000  0.3864820000000  0.4860900000000 1.0
C      1  0.5442610000000  0.4546860000000  0.4196240000000 1.0
C      1  0.4843210000000  0.4162350000000  0.4767600000000 1.0
C      1  0.4279670000000  0.4532090000000  0.5659410000000 1.0
C      1  0.4411420000000  0.4832770000000  0.5542860000000 1.0
C      1  0.4804090000000  0.5889800000000  0.4428150000000 1.0
C      1  0.5049750000000  0.3911750000000  0.4714050000000 1.0
C      1  0.5492590000000  0.5604380000000  0.5917100000000 1.0
C      1  0.3989000000000  0.4527700000000  0.4979530000000 1.0
C      1  0.4786380000000  0.4444700000000  0.5516560000000 1.0
C      1  0.5874450000000  0.4578940000000  0.5166800000000 1.0
C      1  0.3907580000000  0.4931070000000  0.5331940000000 1.0
C      1  0.5939340000000  0.4937570000000  0.5325170000000 1.0
C      1  0.6068770000000  0.5062650000000  0.4955260000000 1.0
C      1  0.4480710000000  0.4064570000000  0.5451090000000 1.0
C      1  0.4744670000000  0.5809620000000  0.4946890000000 1.0
C      1  0.5728240000000  0.4236150000000  0.4452740000000 1.0
C      1  0.4259270000000  0.5543070000000  0.5727660000000 1.0
C      1  0.5193170000000  0.5157610000000  0.3820070000000 1.0
C      1  0.3952550000000  0.5214860000000  0.5319100000000 1.0
C      1  0.5840600000000  0.5667830000000  0.4857770000000 1.0
C      1  0.4624110000000  0.6115470000000  0.4969990000000 1.0
C      1  0.5348750000000  0.3871080000000  0.4608970000000 1.0
C      1  0.6086320000000  0.4814300000000  0.4722710000000 1.0
C      1  0.4454100000000  0.5156050000000  0.4956170000000 1.0
C      1  0.5794970000000  0.5216560000000  0.5199820000000 1.0
C      1  0.5412970000000  0.5663090000000  0.4946010000000 1.0
C      1  0.4558840000000  0.5370890000000  0.4267680000000 1.0
C      1  0.4703740000000  0.4527880000000  0.4429230000000 1.0
C      1  0.5545430000000  0.4280330000000  0.4976260000000 1.0
C      1  0.4931220000000  0.4676800000000  0.4634950000000 1.0
C      1  0.4149480000000  0.4234480000000  0.5195360000000 1.0
C      1  0.4470110000000  0.4954210000000  0.4301830000000 1.0
C      1  0.4446830000000  0.4661680000000  0.5899330000000 1.0
C      1  0.4239310000000  0.4716680000000  0.4224720000000 1.0
C      1  0.5422850000000  0.5313040000000  0.5303460000000 1.0
C      1  0.5175700000000  0.4815150000000  0.5605730000000 1.0
C      1  0.4993120000000  0.5511250000000  0.5512380000000 1.0
C      1  0.4524890000000  0.4936460000000  0.5174810000000 1.0
C      1  0.4829690000000  0.4830030000000  0.5633080000000 1.0
C      1  0.5103440000000  0.5450170000000  0.4810210000000 1.0
C      1  0.4476570000000  0.5013030000000  0.4693640000000 1.0
C      1  0.4167090000000  0.5258060000000  0.5723700000000 1.0
C      1  0.4436950000000  0.5797540000000  0.4824670000000 1.0
C      1  0.4781810000000  0.5167770000000  0.5659490000000 1.0
C      1  0.4501770000000  0.5129840000000  0.5522570000000 1.0
C      1  0.5009440000000  0.5481430000000  0.6033810000000 1.0
C      1  0.5578340000000  0.5417740000000  0.5733300000000 1.0
C      1  0.4129500000000  0.4510480000000  0.4732660000000 1.0
C      1  0.4757890000000  0.4573050000000  0.5847850000000 1.0
C      1  0.4273800000000  0.4675320000000  0.3944240000000 1.0
C      1  0.5616890000000  0.4692450000000  0.5813260000000 1.0
C      1  0.5995690000000  0.5095970000000  0.4565090000000 1.0
C      1  0.4845070000000  0.5385970000000  0.5247880000000 1.0
C      1  0.4556790000000  0.4724130000000  0.4810410000000 1.0
C      1  0.5139880000000  0.6026000000000  0.4699470000000 1.0
C      1  0.5389660000000  0.4681660000000  0.4740420000000 1.0
C      1  0.4999390000000  0.4545410000000  0.3899680000000 1.0
C      1  0.6064660000000  0.5176220000000  0.5509930000000 1.0
C      1  0.5664600000000  0.5054690000000  0.4561810000000 1.0
C      1  0.4777300000000  0.5754240000000  0.4115800000000 1.0
C      1  0.5599690000000  0.5492880000000  0.4467710000000 1.0
C      1  0.4707630000000  0.4929430000000  0.6215710000000 1.0
C      1  0.4047360000000  0.4517900000000  0.5318980000000 1.0
C      1  0.5580300000000  0.5420960000000  0.5032580000000 1.0
C      1  0.4099210000000  0.5179500000000  0.4276030000000 1.0
C      1  0.4025710000000  0.4746220000000  0.5576220000000 1.0
C      1  0.5124770000000  0.5480310000000  0.3905290000000 1.0
C      1  0.5336880000000  0.5750550000000  0.4318320000000 1.0
C      1  0.5825300000000  0.5024610000000  0.4273510000000 1.0
C      1  0.4858600000000  0.4676680000000  0.6156070000000 1.0
C      1  0.4472960000000  0.4844560000000  0.3828000000000 1.0
C      1  0.4851560000000  0.5545240000000  0.3936000000000 1.0
C      1  0.5440360000000  0.5166840000000  0.4871580000000 1.0
C      1  0.5113040000000  0.5369600000000  0.5756400000000 1.0
C      1  0.4551640000000  0.5670510000000  0.4348970000000 1.0
C      1  0.5193360000000  0.5020290000000  0.6238350000000 1.0
C      1  0.5227050000000  0.4060620000000  0.5301370000000 1.0
C      1  0.4959550000000  0.5113720000000  0.5101490000000 1.0
C      1  0.4925180000000  0.5191650000000  0.6190490000000 1.0
C      1  0.5190690000000  0.4163140000000  0.5594910000000 1.0
C      1  0.4797950000000  0.4958490000000  0.5319850000000 1.0
C      1  0.4636490000000  0.4714820000000  0.4202650000000 1.0
C      1  0.5140670000000  0.5317300000000  0.4438550000000 1.0
C      1  0.5283120000000  0.4617960000000  0.4455440000000 1.0
C      1  0.4783740000000  0.6057270000000  0.5261600000000 1.0
C      1  0.4929490000000  0.4963390000000  0.4821070000000 1.0
C      1  0.4915720000000  0.5570190000000  0.4481830000000 1.0
C      1  0.5390860000000  0.6094350000000  0.5091460000000 1.0
C      1  0.3949720000000  0.5507650000000  0.5236990000000 1.0
C      1  0.4247330000000  0.5306450000000  0.5407040000000 1.0
C      1  0.4106950000000  0.4605940000000  0.4445890000000 1.0
C      1  0.5065670000000  0.4823150000000  0.4354460000000 1.0
C      1  0.5103030000000  0.6059290000000  0.5200210000000 1.0
C      1  0.4344240000000  0.3949060000000  0.4387850000000 1.0
C      1  0.5095520000000  0.4620300000000  0.5840700000000 1.0
C      1  0.5674610000000  0.4805260000000  0.4744680000000 1.0
C      1  0.5141380000000  0.4400060000000  0.4137330000000 1.0
C      1  0.4472110000000  0.5924670000000  0.5215440000000 1.0
C      1  0.5643100000000  0.3959850000000  0.4762050000000 1.0
C      1  0.4984850000000  0.4364390000000  0.4379850000000 1.0
C      1  0.4277090000000  0.4802130000000  0.4964990000000 1.0
C      1  0.4425890000000  0.4416250000000  0.4592880000000 1.0
C      1  0.5143240000000  0.4778640000000  0.4955570000000 1.0
C      1  0.5427150000000  0.4905180000000  0.5066250000000 1.0
C      1  0.5725700000000  0.4521980000000  0.5395830000000 1.0
C      1  0.4927650000000  0.4191850000000  0.5686180000000 1.0
C      1  0.5514370000000  0.4126020000000  0.5230950000000 1.0
C      1  0.4397130000000  0.4193850000000  0.5084500000000 1.0
C      1  0.5900450000000  0.5642480000000  0.5368510000000 1.0
C      1  0.5620810000000  0.5822300000000  0.4436980000000 1.0
C      1  0.4899600000000  0.5070430000000  0.3956550000000 1.0
C      1  0.4566970000000  0.5604220000000  0.5757270000000 1.0
C      1  0.5290050000000  0.4550840000000  0.5328150000000 1.0
C      1  0.5462170000000  0.4563080000000  0.5050300000000 1.0
C      1  0.4429560000000  0.4241630000000  0.5655560000000 1.0
C      1  0.5201940000000  0.5298420000000  0.5061390000000 1.0
C      1  0.5406420000000  0.6039820000000  0.4811120000000 1.0
C      1  0.5180310000000  0.5854910000000  0.5671500000000 1.0
C      1  0.4922800000000  0.5841250000000  0.5479960000000 1.0
C      1  0.3956360000000  0.5171700000000  0.4584920000000 1.0
C      1  0.4219410000000  0.5695680000000  0.5186700000000 1.0
C      1  0.4663960000000  0.5166730000000  0.4487420000000 1.0
C      1  0.4216060000000  0.4983500000000  0.4519150000000 1.0
C      1  0.5870370000000  0.4608010000000  0.4557210000000 1.0
C      1  0.5417590000000  0.5248660000000  0.4565320000000 1.0
C      1  0.4735120000000  0.4616380000000  0.5062360000000 1.0
C      1  0.5785840000000  0.5782770000000  0.5167090000000 1.0
C      1  0.4736460000000  0.4041760000000  0.5227080000000 1.0
C      1  0.4678820000000  0.5509710000000  0.4691300000000 1.0
C      1  0.5819390000000  0.4856110000000  0.5014860000000 1.0
C      1  0.5867280000000  0.5434950000000  0.5582840000000 1.0
C      1  0.4928040000000  0.5205970000000  0.4643740000000 1.0
C      1  0.5967850000000  0.5366310000000  0.4956400000000 1.0
C      1  0.4367360000000  0.5739400000000  0.4590920000000 1.0
C      1  0.5883250000000  0.5169740000000  0.5795470000000 1.0
C      1  0.5572320000000  0.5950020000000  0.5259260000000 1.0
C      1  0.5184910000000  0.4721630000000  0.6146260000000 1.0
C      1  0.5434310000000  0.5854660000000  0.5493040000000 1.0
C      1  0.5059490000000  0.4473470000000  0.4886710000000 1.0
C      1  0.4015730000000  0.5321090000000  0.4875300000000 1.0
C      1  0.5661900000000  0.4246210000000  0.5431880000000 1.0
C      1  0.5586670000000  0.5022340000000  0.5786360000000 1.0
C      1  0.5407420000000  0.5128220000000  0.6349410000000 1.0
C      1  0.5223720000000  0.5741780000000  0.5172710000000 1.0
C      1  0.4402780000000  0.5750280000000  0.5499490000000 1.0
C      1  0.4484140000000  0.4018690000000  0.4869270000000 1.0
C      1  0.4590370000000  0.5222530000000  0.6108950000000 1.0
C      1  0.4588600000000  0.5442830000000  0.4947030000000 1.0
C      1  0.5979360000000  0.4521460000000  0.4865600000000 1.0
C      1  0.4808610000000  0.6103520000000  0.4683520000000 1.0
C      1  0.4656980000000  0.4247110000000  0.5837210000000 1.0
C      1  0.5120210000000  0.3770670000000  0.5264860000000 1.0
C      1  0.4412380000000  0.4942140000000  0.6043880000000 1.0
C      1  0.4679560000000  0.5291260000000  0.3963170000000 1.0
C      1  0.4996170000000  0.4243120000000  0.5130030000000 1.0
C      1  0.4019080000000  0.4987010000000  0.4864400000000 1.0
C      1  0.4401580000000  0.4104500000000  0.4607320000000 1.0
C      1  0.5496670000000  0.4756250000000  0.5501650000000 1.0
C      1  0.4733630000000  0.5382740000000  0.5875510000000 1.0
C      1  0.4204310000000  0.4956070000000  0.5782000000000 1.0
C      1  0.4867980000000  0.3762420000000  0.5230050000000 1.0
C      1  0.5643620000000  0.5385410000000  0.4086110000000 1.0
C      1  0.5336750000000  0.5630910000000  0.4638360000000 1.0
C      1  0.5954610000000  0.5429770000000  0.4634610000000 1.0
C      1  0.4775700000000  0.4781260000000  0.3928560000000 1.0
C      1  0.4676160000000  0.4403230000000  0.4805950000000 1.0
C      1  0.5290450000000  0.5634030000000  0.4071020000000 1.0
C      1  0.4985050000000  0.4543710000000  0.5272540000000 1.0
C      1  0.5641160000000  0.5895960000000  0.4714360000000 1.0
C      1  0.4306850000000  0.5259420000000  0.4101870000000 1.0
C      1  0.5750480000000  0.4512180000000  0.4292470000000 1.0
C      1  0.5548480000000  0.4030340000000  0.4382740000000 1.0
C      1  0.5354600000000  0.4406140000000  0.5630910000000 1.0
C      1  0.4981600000000  0.5756550000000  0.4760810000000 1.0
C      1  0.4630620000000  0.4364650000000  0.5235890000000 1.0
C      1  0.5120000000000  0.5126360000000  0.4208420000000 1.0
C      1  0.4540170000000  0.5366760000000  0.5281080000000 1.0
C      1  0.4420900000000  0.5126180000000  0.3852250000000 1.0
C      1  0.5349840000000  0.5176930000000  0.5670410000000 1.0
C      1  0.5845570000000  0.5363860000000  0.4317030000000 1.0
C      1  0.5855230000000  0.4865590000000  0.5639160000000 1.0
C      1  0.5177660000000  0.4361780000000  0.4630150000000 1.0
C      1  0.4284760000000  0.4719120000000  0.5274290000000 1.0
C      1  0.5225520000000  0.5713470000000  0.5917740000000 1.0
C      1  0.5391040000000  0.4533680000000  0.5946470000000 1.0
C      1  0.5803420000000  0.4262210000000  0.4765850000000 1.0
C      1  0.5549770000000  0.5019270000000  0.5334870000000 1.0
C      1  0.4904360000000  0.5689060000000  0.5169670000000 1.0
C      1  0.5407490000000  0.5245370000000  0.4062480000000 1.0
C      1  0.5385690000000  0.4181690000000  0.4714580000000 1.0
C      1  0.5418520000000  0.4931810000000  0.3959710000000 1.0
C      1  0.5161120000000  0.4778670000000  0.4031140000000 1.0
C      1  0.5069720000000  0.5104070000000  0.5484450000000 1.0
C      1  0.5667400000000  0.4795510000000  0.4120240000000 1.0
C      1  0.5302970000000  0.5557030000000  0.5436160000000 1.0
END
