TITL C-2778426-5645-204 -0.00267883295474982 125000 -1017.67149295316 0 0 175 (C1) n - 1
REM
REM in /home/nfs/bkarasulu/CARBON/AIRSS/Generating-Clusters/REBO/Only-C1/SD-CG/HFTN-CG
REM
REM
REM
REM
REM
REM ./C.cell (11c1c37f851c82e70ff6c80c92926a4b)
REM
REM compiler GCC version 9.2.1 20190827 (Red Hat 9.2.1-1)
REM options -cpp -mtune=generic -march=x86-64 -g -O0 -fpre-include=/usr/include/finclude/math-vector-fortran.h
REM seed -1156369089 80092551 -1482364558 1177674510 543720601 1304784190 777514659 -1464974327 1203203925 1664316124 -1557553685 -1456215828 -1070282346 947485229 2037336752 -7970737 202165641 -824580818 -1742899512 -697636874 -779702081 -230419616 -1692454549 1557710234 -514042090 -29389944 1682217800 -594707546 238282246 -2115154794 32744451 -443136479 150428266
REM
CELL 1.54180   50.00000   50.00000   50.00000   90.00000   90.00000   90.00000
LATT -1
SFAC C  
C      1  0.5903200000000  0.5482380000000  0.4706580000000 1.0
C      1  0.5794550000000  0.4582370000000  0.4427120000000 1.0
C      1  0.5551070000000  0.4113650000000  0.5418380000000 1.0
C      1  0.5287190000000  0.4598440000000  0.5957220000000 1.0
C      1  0.5621190000000  0.5351310000000  0.5669090000000 1.0
C      1  0.4511590000000  0.5261470000000  0.5758650000000 1.0
C      1  0.4437000000000  0.4589500000000  0.5581420000000 1.0
C      1  0.4438400000000  0.4877940000000  0.5411790000000 1.0
C      1  0.5359840000000  0.4332370000000  0.4977750000000 1.0
C      1  0.5008310000000  0.4437440000000  0.4034050000000 1.0
C      1  0.5921720000000  0.4883720000000  0.4524560000000 1.0
C      1  0.4547520000000  0.4394860000000  0.4721810000000 1.0
C      1  0.5038700000000  0.5068410000000  0.6022300000000 1.0
C      1  0.5256300000000  0.4096160000000  0.5377870000000 1.0
C      1  0.5622790000000  0.4463630000000  0.5789530000000 1.0
C      1  0.4577950000000  0.5304720000000  0.4698380000000 1.0
C      1  0.5489370000000  0.5892640000000  0.5579070000000 1.0
C      1  0.5081730000000  0.5306180000000  0.3927900000000 1.0
C      1  0.5511380000000  0.4949070000000  0.3893660000000 1.0
C      1  0.5171270000000  0.5372960000000  0.5328520000000 1.0
C      1  0.4637300000000  0.3857950000000  0.4997050000000 1.0
C      1  0.5842070000000  0.5737380000000  0.4838680000000 1.0
C      1  0.4903560000000  0.6080170000000  0.5141090000000 1.0
C      1  0.5244520000000  0.6042600000000  0.5144020000000 1.0
C      1  0.5025130000000  0.5004770000000  0.5469980000000 1.0
C      1  0.4792140000000  0.5071160000000  0.4654730000000 1.0
C      1  0.5436690000000  0.4406080000000  0.4453210000000 1.0
C      1  0.4306910000000  0.4159780000000  0.5174150000000 1.0
C      1  0.4413590000000  0.4191000000000  0.4482530000000 1.0
C      1  0.4561650000000  0.4610440000000  0.4052990000000 1.0
C      1  0.5093560000000  0.4375700000000  0.5272600000000 1.0
C      1  0.5309000000000  0.4781570000000  0.4837000000000 1.0
C      1  0.4603000000000  0.5202670000000  0.4023640000000 1.0
C      1  0.4641820000000  0.5071200000000  0.5529280000000 1.0
C      1  0.4522410000000  0.5676600000000  0.4391530000000 1.0
C      1  0.5223680000000  0.5357090000000  0.5642450000000 1.0
C      1  0.4742530000000  0.4492280000000  0.6061640000000 1.0
C      1  0.4610480000000  0.5714100000000  0.5732440000000 1.0
C      1  0.5342600000000  0.5359850000000  0.4765770000000 1.0
C      1  0.4143300000000  0.5510130000000  0.5034720000000 1.0
C      1  0.5218680000000  0.5081380000000  0.4917540000000 1.0
C      1  0.5319270000000  0.4989790000000  0.4355690000000 1.0
C      1  0.4596140000000  0.6085520000000  0.5010890000000 1.0
C      1  0.5780460000000  0.4572130000000  0.4823590000000 1.0
C      1  0.5390130000000  0.4097610000000  0.4591280000000 1.0
C      1  0.4296310000000  0.4802640000000  0.5803240000000 1.0
C      1  0.5140400000000  0.5892000000000  0.4550320000000 1.0
C      1  0.4809730000000  0.5873280000000  0.5613610000000 1.0
C      1  0.5375180000000  0.5204560000000  0.5162550000000 1.0
C      1  0.4882050000000  0.5503900000000  0.6117370000000 1.0
C      1  0.4898210000000  0.4757610000000  0.5072420000000 1.0
C      1  0.5597790000000  0.4797030000000  0.4741690000000 1.0
C      1  0.4386940000000  0.3981150000000  0.4957950000000 1.0
C      1  0.5290870000000  0.4546750000000  0.5483880000000 1.0
C      1  0.4592010000000  0.5792370000000  0.4857840000000 1.0
C      1  0.4877290000000  0.4261630000000  0.5950080000000 1.0
C      1  0.4630830000000  0.5601740000000  0.5126780000000 1.0
C      1  0.5143250000000  0.4396880000000  0.4818720000000 1.0
C      1  0.4990330000000  0.4683530000000  0.6110160000000 1.0
C      1  0.4440610000000  0.5141780000000  0.5193670000000 1.0
C      1  0.4899140000000  0.5257570000000  0.5664810000000 1.0
C      1  0.5158490000000  0.5504260000000  0.5014640000000 1.0
C      1  0.4851450000000  0.3985610000000  0.5125440000000 1.0
C      1  0.5335760000000  0.5601470000000  0.4242890000000 1.0
C      1  0.5699440000000  0.4974570000000  0.5151800000000 1.0
C      1  0.4738460000000  0.4894740000000  0.3984310000000 1.0
C      1  0.4059750000000  0.5039510000000  0.4874880000000 1.0
C      1  0.3984330000000  0.4491980000000  0.5293940000000 1.0
C      1  0.4368450000000  0.4520080000000  0.4390910000000 1.0
C      1  0.5765110000000  0.5763210000000  0.5161150000000 1.0
C      1  0.4965570000000  0.5097450000000  0.4147960000000 1.0
C      1  0.4177920000000  0.5524010000000  0.4749940000000 1.0
C      1  0.5417600000000  0.5089650000000  0.5724270000000 1.0
C      1  0.5018540000000  0.4147050000000  0.4720250000000 1.0
C      1  0.5089510000000  0.5773990000000  0.4269850000000 1.0
C      1  0.5878380000000  0.5432210000000  0.4409080000000 1.0
C      1  0.4974030000000  0.4672910000000  0.5532380000000 1.0
C      1  0.6035780000000  0.5181710000000  0.5092610000000 1.0
C      1  0.5340610000000  0.5221780000000  0.3875600000000 1.0
C      1  0.4079670000000  0.4936750000000  0.5575400000000 1.0
C      1  0.5452200000000  0.5569310000000  0.4552480000000 1.0
C      1  0.4819500000000  0.4286700000000  0.5168060000000 1.0
C      1  0.4059280000000  0.5237950000000  0.5121160000000 1.0
C      1  0.4236100000000  0.4530590000000  0.4704960000000 1.0
C      1  0.4386820000000  0.4644980000000  0.5184100000000 1.0
C      1  0.5589580000000  0.4548480000000  0.4200330000000 1.0
C      1  0.5592760000000  0.5417370000000  0.5070360000000 1.0
C      1  0.4066610000000  0.4870560000000  0.4579840000000 1.0
C      1  0.4417970000000  0.5234540000000  0.4233940000000 1.0
C      1  0.5582260000000  0.4496580000000  0.5313360000000 1.0
C      1  0.5101040000000  0.4788320000000  0.4361250000000 1.0
C      1  0.4355350000000  0.5339530000000  0.5466590000000 1.0
C      1  0.4758350000000  0.4918510000000  0.6024250000000 1.0
C      1  0.5198410000000  0.4297230000000  0.5909640000000 1.0
C      1  0.4319440000000  0.5708110000000  0.5148690000000 1.0
C      1  0.5534350000000  0.4778650000000  0.5803740000000 1.0
C      1  0.5819290000000  0.5143690000000  0.4328360000000 1.0
C      1  0.5110200000000  0.4147990000000  0.5648390000000 1.0
C      1  0.4827210000000  0.5184730000000  0.5279420000000 1.0
C      1  0.4233020000000  0.4894660000000  0.4398010000000 1.0
C      1  0.4247490000000  0.4075260000000  0.4719340000000 1.0
C      1  0.5619320000000  0.5184290000000  0.5394150000000 1.0
C      1  0.5746330000000  0.5029870000000  0.4862830000000 1.0
C      1  0.4514670000000  0.4996180000000  0.5917280000000 1.0
C      1  0.4576880000000  0.4313840000000  0.4216060000000 1.0
C      1  0.5019740000000  0.5236190000000  0.4450270000000 1.0
C      1  0.4761050000000  0.4522550000000  0.4502310000000 1.0
C      1  0.4728500000000  0.4505100000000  0.4954670000000 1.0
C      1  0.5578350000000  0.5177900000000  0.4120010000000 1.0
C      1  0.5230600000000  0.3969730000000  0.4870140000000 1.0
C      1  0.5308480000000  0.4887470000000  0.5494430000000 1.0
C      1  0.4857640000000  0.5499780000000  0.5288890000000 1.0
C      1  0.4809630000000  0.4203430000000  0.5655110000000 1.0
C      1  0.4439270000000  0.5939590000000  0.5451090000000 1.0
C      1  0.5735760000000  0.4913440000000  0.5564880000000 1.0
C      1  0.5472340000000  0.4789760000000  0.5228590000000 1.0
C      1  0.5020610000000  0.5686880000000  0.5521470000000 1.0
C      1  0.4527560000000  0.4806990000000  0.4311260000000 1.0
C      1  0.5080400000000  0.4811990000000  0.5813400000000 1.0
C      1  0.5043950000000  0.5818010000000  0.4974330000000 1.0
C      1  0.4505800000000  0.5349980000000  0.4983740000000 1.0
C      1  0.4354790000000  0.5274520000000  0.4493070000000 1.0
C      1  0.4214000000000  0.4745990000000  0.4925980000000 1.0
C      1  0.5908020000000  0.5449600000000  0.5104350000000 1.0
C      1  0.5670070000000  0.5281260000000  0.4721360000000 1.0
C      1  0.5707600000000  0.4333870000000  0.4644180000000 1.0
C      1  0.5086870000000  0.4124890000000  0.4428270000000 1.0
C      1  0.4505140000000  0.4601900000000  0.5982740000000 1.0
C      1  0.4720820000000  0.5468070000000  0.5860510000000 1.0
C      1  0.5719350000000  0.5560440000000  0.5782800000000 1.0
C      1  0.5641600000000  0.5831730000000  0.4657930000000 1.0
C      1  0.5596530000000  0.4125000000000  0.4864060000000 1.0
C      1  0.5631280000000  0.4234740000000  0.5648960000000 1.0
C      1  0.5544550000000  0.4685500000000  0.3966750000000 1.0
C      1  0.4396450000000  0.5665890000000  0.4646610000000 1.0
C      1  0.5862170000000  0.4488250000000  0.5132060000000 1.0
C      1  0.5323150000000  0.5681450000000  0.5678440000000 1.0
C      1  0.5184890000000  0.4660950000000  0.5117110000000 1.0
C      1  0.4850680000000  0.5462150000000  0.4606060000000 1.0
C      1  0.4322680000000  0.5990370000000  0.5075500000000 1.0
C      1  0.5292810000000  0.5294430000000  0.4265980000000 1.0
C      1  0.4786130000000  0.5654030000000  0.4171350000000 1.0
C      1  0.5227880000000  0.5765410000000  0.5305060000000 1.0
C      1  0.5491860000000  0.5607110000000  0.5301550000000 1.0
C      1  0.4999830000000  0.4710470000000  0.4070930000000 1.0
C      1  0.4890750000000  0.4297670000000  0.4281400000000 1.0
C      1  0.4714290000000  0.6049760000000  0.5398960000000 1.0
C      1  0.5671860000000  0.5615780000000  0.4295810000000 1.0
C      1  0.4576300000000  0.4867660000000  0.5038950000000 1.0
C      1  0.4719550000000  0.4456670000000  0.5514980000000 1.0
C      1  0.5134400000000  0.3932840000000  0.5134300000000 1.0
C      1  0.5970690000000  0.5003140000000  0.5348140000000 1.0
C      1  0.4118650000000  0.4649280000000  0.5481610000000 1.0
C      1  0.5206770000000  0.4602960000000  0.4577720000000 1.0
C      1  0.5424300000000  0.5697530000000  0.4963750000000 1.0
C      1  0.5589500000000  0.4923390000000  0.4447280000000 1.0
C      1  0.4060720000000  0.4288480000000  0.4812050000000 1.0
C      1  0.5548330000000  0.5993850000000  0.5297110000000 1.0
C      1  0.4752440000000  0.5905380000000  0.4395020000000 1.0
C      1  0.6075130000000  0.4673070000000  0.4946450000000 1.0
C      1  0.4065440000000  0.5266770000000  0.4620720000000 1.0
C      1  0.5067650000000  0.5307060000000  0.6160910000000 1.0
C      1  0.3842590000000  0.5270830000000  0.4455020000000 1.0
C      1  0.4692360000000  0.4766060000000  0.4733010000000 1.0
C      1  0.4100820000000  0.5160050000000  0.5400150000000 1.0
C      1  0.4868060000000  0.5778560000000  0.4693650000000 1.0
C      1  0.4793980000000  0.4916010000000  0.4378520000000 1.0
C      1  0.4794710000000  0.5416040000000  0.3984850000000 1.0
C      1  0.6059000000000  0.4970560000000  0.4824830000000 1.0
C      1  0.5354520000000  0.5912620000000  0.4730150000000 1.0
C      1  0.4920690000000  0.5065380000000  0.5011890000000 1.0
C      1  0.4386160000000  0.5652020000000  0.5538900000000 1.0
C      1  0.5692570000000  0.4208620000000  0.5157680000000 1.0
C      1  0.4052970000000  0.4291100000000  0.5108110000000 1.0
C      1  0.4510060000000  0.4370620000000  0.5258730000000 1.0
END
