TITL C-2778437-8639-1306 0.00481195866991532 125000 -1076.9599840551 0 0 189 (C1) n - 1
REM
REM in /home/nfs/bkarasulu/CARBON/AIRSS/Generating-Clusters/REBO/Only-C1/SD-CG/HFTN-CG
REM
REM
REM
REM
REM
REM ./C.cell (11c1c37f851c82e70ff6c80c92926a4b)
REM
REM compiler GCC version 9.2.1 20190827 (Red Hat 9.2.1-1)
REM options -cpp -mtune=generic -march=x86-64 -g -O0 -fpre-include=/usr/include/finclude/math-vector-fortran.h
REM seed 1350439748 -313949579 1660470169 1888972231 -1476320590 1000227910 1659761602 -245414205 -2135154338 1924782887 -33626085 1182031837 1988231886 -680229973 1613696325 -1796668677 582330877 -1751118117 798955934 2032679918 22416033 759149855 1107138582 -571729438 -378845818 443807825 678713599 725495752 -1445424229 -464799170 -1015527271 317253881 1465973512
REM
CELL 1.54180   50.00000   50.00000   50.00000   90.00000   90.00000   90.00000
LATT -1
SFAC C  
C      1  0.5314380000000  0.5875670000000  0.5241730000000 1.0
C      1  0.4444800000000  0.4693550000000  0.4101440000000 1.0
C      1  0.5668760000000  0.5143370000000  0.4669130000000 1.0
C      1  0.6036370000000  0.4535760000000  0.4917030000000 1.0
C      1  0.4920330000000  0.4077510000000  0.4645630000000 1.0
C      1  0.5244310000000  0.3881230000000  0.5082080000000 1.0
C      1  0.4345580000000  0.4274140000000  0.4377010000000 1.0
C      1  0.5036160000000  0.5202760000000  0.5464950000000 1.0
C      1  0.4690960000000  0.5914020000000  0.5774460000000 1.0
C      1  0.4695670000000  0.6024170000000  0.5122320000000 1.0
C      1  0.3999610000000  0.4844370000000  0.4756750000000 1.0
C      1  0.5965350000000  0.4969400000000  0.5537440000000 1.0
C      1  0.4958110000000  0.4685220000000  0.5156910000000 1.0
C      1  0.4835380000000  0.5393700000000  0.5795940000000 1.0
C      1  0.5277810000000  0.5954860000000  0.5506520000000 1.0
C      1  0.5522440000000  0.5192810000000  0.5398950000000 1.0
C      1  0.4525100000000  0.5278100000000  0.5890720000000 1.0
C      1  0.5350180000000  0.5046390000000  0.4610740000000 1.0
C      1  0.3994240000000  0.4977260000000  0.5436390000000 1.0
C      1  0.5440070000000  0.5695620000000  0.4806740000000 1.0
C      1  0.4188340000000  0.4969020000000  0.5716920000000 1.0
C      1  0.5892150000000  0.5107920000000  0.4998060000000 1.0
C      1  0.4393470000000  0.4117750000000  0.4810300000000 1.0
C      1  0.4461790000000  0.4794670000000  0.5250610000000 1.0
C      1  0.4932500000000  0.5247110000000  0.4355030000000 1.0
C      1  0.4296910000000  0.3862290000000  0.5576250000000 1.0
C      1  0.5465740000000  0.5413730000000  0.4717450000000 1.0
C      1  0.5903760000000  0.5351910000000  0.4440430000000 1.0
C      1  0.5723390000000  0.4739900000000  0.5056010000000 1.0
C      1  0.5354590000000  0.6058070000000  0.4579150000000 1.0
C      1  0.6030850000000  0.4133020000000  0.5184090000000 1.0
C      1  0.5415080000000  0.4203530000000  0.5620580000000 1.0
C      1  0.5434460000000  0.5644520000000  0.5862290000000 1.0
C      1  0.5631960000000  0.4529700000000  0.5293150000000 1.0
C      1  0.4106590000000  0.5181280000000  0.3944160000000 1.0
C      1  0.4464340000000  0.5301930000000  0.4520730000000 1.0
C      1  0.5265600000000  0.4993710000000  0.5355380000000 1.0
C      1  0.6028230000000  0.4914390000000  0.5244340000000 1.0
C      1  0.5453770000000  0.4537950000000  0.4677880000000 1.0
C      1  0.4864290000000  0.4372220000000  0.5383280000000 1.0
C      1  0.5176160000000  0.4808220000000  0.4076130000000 1.0
C      1  0.4092450000000  0.4777340000000  0.4498650000000 1.0
C      1  0.4899770000000  0.4505340000000  0.4515770000000 1.0
C      1  0.5413340000000  0.4531740000000  0.5522160000000 1.0
C      1  0.4581630000000  0.5607620000000  0.5814400000000 1.0
C      1  0.4567030000000  0.5667010000000  0.5490520000000 1.0
C      1  0.5385290000000  0.4199350000000  0.4878470000000 1.0
C      1  0.5765400000000  0.5778070000000  0.5472130000000 1.0
C      1  0.5273490000000  0.5173670000000  0.5709990000000 1.0
C      1  0.4789860000000  0.4080040000000  0.5504050000000 1.0
C      1  0.4218850000000  0.5021450000000  0.4376770000000 1.0
C      1  0.5406300000000  0.5562510000000  0.5238660000000 1.0
C      1  0.5940420000000  0.4609290000000  0.5367790000000 1.0
C      1  0.4507050000000  0.4963600000000  0.5746710000000 1.0
C      1  0.5003190000000  0.6038470000000  0.4976210000000 1.0
C      1  0.4889480000000  0.5540740000000  0.4454080000000 1.0
C      1  0.5966320000000  0.4711090000000  0.5684940000000 1.0
C      1  0.4840670000000  0.4137650000000  0.4350210000000 1.0
C      1  0.5174300000000  0.4639890000000  0.6003180000000 1.0
C      1  0.4665070000000  0.4486580000000  0.4264380000000 1.0
C      1  0.4234160000000  0.4568270000000  0.5395350000000 1.0
C      1  0.4999330000000  0.5526400000000  0.5002590000000 1.0
C      1  0.4018650000000  0.5411990000000  0.4849700000000 1.0
C      1  0.5132980000000  0.5756330000000  0.4846620000000 1.0
C      1  0.5393940000000  0.5156950000000  0.6088420000000 1.0
C      1  0.4476110000000  0.4288330000000  0.5304970000000 1.0
C      1  0.5499120000000  0.5860290000000  0.5656460000000 1.0
C      1  0.5686190000000  0.4105240000000  0.4822710000000 1.0
C      1  0.4981770000000  0.5933660000000  0.5601950000000 1.0
C      1  0.4067380000000  0.4745630000000  0.5233120000000 1.0
C      1  0.4598540000000  0.4606250000000  0.4637940000000 1.0
C      1  0.3893550000000  0.5098310000000  0.4838300000000 1.0
C      1  0.4283520000000  0.4564970000000  0.4355320000000 1.0
C      1  0.5854370000000  0.4264620000000  0.4631090000000 1.0
C      1  0.4689750000000  0.4030630000000  0.4850270000000 1.0
C      1  0.4956400000000  0.4042400000000  0.5042410000000 1.0
C      1  0.5532560000000  0.5882330000000  0.5036310000000 1.0
C      1  0.5809760000000  0.3992470000000  0.5072380000000 1.0
C      1  0.4656650000000  0.4311940000000  0.5717710000000 1.0
C      1  0.4698530000000  0.5671940000000  0.4672520000000 1.0
C      1  0.4262430000000  0.4295160000000  0.5047640000000 1.0
C      1  0.4497950000000  0.4871150000000  0.4919580000000 1.0
C      1  0.5748550000000  0.5064030000000  0.4345460000000 1.0
C      1  0.5433910000000  0.5705810000000  0.4407400000000 1.0
C      1  0.5639890000000  0.5876430000000  0.4615150000000 1.0
C      1  0.4429010000000  0.5777010000000  0.4761080000000 1.0
C      1  0.4433460000000  0.5925010000000  0.5002900000000 1.0
C      1  0.5090680000000  0.4856250000000  0.4707890000000 1.0
C      1  0.5208590000000  0.3945700000000  0.4749090000000 1.0
C      1  0.6079730000000  0.4412770000000  0.5172430000000 1.0
C      1  0.5180700000000  0.4689010000000  0.5414770000000 1.0
C      1  0.4369990000000  0.4431460000000  0.4767220000000 1.0
C      1  0.4483480000000  0.4847610000000  0.4467820000000 1.0
C      1  0.5196530000000  0.5700980000000  0.4157120000000 1.0
C      1  0.4686890000000  0.5980030000000  0.5438700000000 1.0
C      1  0.4388260000000  0.5015210000000  0.4014930000000 1.0
C      1  0.5890970000000  0.5376470000000  0.4780980000000 1.0
C      1  0.5586500000000  0.5423820000000  0.4398850000000 1.0
C      1  0.5134770000000  0.5690700000000  0.4550080000000 1.0
C      1  0.4266070000000  0.5512320000000  0.4330210000000 1.0
C      1  0.5114560000000  0.5277800000000  0.6076820000000 1.0
C      1  0.5239210000000  0.6167310000000  0.4809060000000 1.0
C      1  0.5243350000000  0.3957890000000  0.4444920000000 1.0
C      1  0.5262010000000  0.5230310000000  0.4887730000000 1.0
C      1  0.5503850000000  0.4781260000000  0.4485260000000 1.0
C      1  0.4692660000000  0.5130200000000  0.3913320000000 1.0
C      1  0.3981460000000  0.5146950000000  0.5145040000000 1.0
C      1  0.5424370000000  0.4410840000000  0.4362460000000 1.0
C      1  0.4907390000000  0.4875010000000  0.5824400000000 1.0
C      1  0.5932350000000  0.4833590000000  0.4797090000000 1.0
C      1  0.5705620000000  0.5567680000000  0.5215860000000 1.0
C      1  0.4301420000000  0.5530700000000  0.5328350000000 1.0
C      1  0.4298240000000  0.5070450000000  0.5200050000000 1.0
C      1  0.5188500000000  0.4220970000000  0.4312140000000 1.0
C      1  0.4738390000000  0.5289040000000  0.5184160000000 1.0
C      1  0.4806090000000  0.4781030000000  0.4243620000000 1.0
C      1  0.3990620000000  0.5471730000000  0.5183550000000 1.0
C      1  0.5083440000000  0.4769630000000  0.4401480000000 1.0
C      1  0.5237670000000  0.5217880000000  0.4386250000000 1.0
C      1  0.4470060000000  0.4031620000000  0.5485310000000 1.0
C      1  0.4810270000000  0.4986190000000  0.5221110000000 1.0
C      1  0.5338740000000  0.5449120000000  0.5529800000000 1.0
C      1  0.4751040000000  0.5033830000000  0.4444260000000 1.0
C      1  0.5839410000000  0.5855430000000  0.5145100000000 1.0
C      1  0.4917280000000  0.5782460000000  0.5179890000000 1.0
C      1  0.4628100000000  0.4575280000000  0.5420430000000 1.0
C      1  0.4556170000000  0.5603020000000  0.4178720000000 1.0
C      1  0.4142610000000  0.5244300000000  0.4230240000000 1.0
C      1  0.4196140000000  0.5601150000000  0.4628090000000 1.0
C      1  0.5221950000000  0.4608790000000  0.4864830000000 1.0
C      1  0.4826080000000  0.5526740000000  0.5362840000000 1.0
C      1  0.5753980000000  0.4475890000000  0.4424260000000 1.0
C      1  0.5516990000000  0.5003380000000  0.4150510000000 1.0
C      1  0.5238580000000  0.5128870000000  0.3999120000000 1.0
C      1  0.4074770000000  0.5259990000000  0.5597140000000 1.0
C      1  0.5409680000000  0.4287460000000  0.5205990000000 1.0
C      1  0.4720360000000  0.4814510000000  0.3937310000000 1.0
C      1  0.5171440000000  0.5341190000000  0.5184170000000 1.0
C      1  0.5227120000000  0.4927900000000  0.5920060000000 1.0
C      1  0.4595430000000  0.4646000000000  0.5734970000000 1.0
C      1  0.5829350000000  0.4794800000000  0.4517300000000 1.0
C      1  0.4889600000000  0.5563700000000  0.4117360000000 1.0
C      1  0.4658370000000  0.4305880000000  0.5042500000000 1.0
C      1  0.5158670000000  0.3988160000000  0.5624910000000 1.0
C      1  0.4950380000000  0.4369390000000  0.4125920000000 1.0
C      1  0.5013080000000  0.3885590000000  0.5335350000000 1.0
C      1  0.4824270000000  0.5932870000000  0.4488980000000 1.0
C      1  0.5043180000000  0.4578200000000  0.3948760000000 1.0
C      1  0.3935740000000  0.5478250000000  0.5480830000000 1.0
C      1  0.5444760000000  0.4686730000000  0.4186930000000 1.0
C      1  0.5576520000000  0.5028890000000  0.5110430000000 1.0
C      1  0.5955110000000  0.4602450000000  0.5932320000000 1.0
C      1  0.5136980000000  0.5514400000000  0.5868480000000 1.0
C      1  0.5867500000000  0.5327950000000  0.5250950000000 1.0
C      1  0.4535450000000  0.4117320000000  0.4342970000000 1.0
C      1  0.4715410000000  0.5169810000000  0.5564030000000 1.0
C      1  0.5066200000000  0.4319060000000  0.5960580000000 1.0
C      1  0.5063480000000  0.5621590000000  0.5561090000000 1.0
C      1  0.4899230000000  0.5104450000000  0.6061720000000 1.0
C      1  0.5114790000000  0.4331490000000  0.4714730000000 1.0
C      1  0.4047530000000  0.4838650000000  0.5952860000000 1.0
C      1  0.5134780000000  0.5964740000000  0.4364640000000 1.0
C      1  0.5531620000000  0.3980170000000  0.5177190000000 1.0
C      1  0.4617000000000  0.5098750000000  0.4747360000000 1.0
C      1  0.4696810000000  0.4615890000000  0.4954790000000 1.0
C      1  0.5008940000000  0.5035890000000  0.4976770000000 1.0
C      1  0.4750680000000  0.5388910000000  0.4856380000000 1.0
C      1  0.4945270000000  0.5265210000000  0.4019650000000 1.0
C      1  0.5562920000000  0.5281490000000  0.5857850000000 1.0
C      1  0.5160950000000  0.4247680000000  0.5405320000000 1.0
C      1  0.4595540000000  0.5895760000000  0.4246920000000 1.0
C      1  0.5365780000000  0.5405650000000  0.4154490000000 1.0
C      1  0.4444570000000  0.5323920000000  0.5105340000000 1.0
C      1  0.5367080000000  0.4435090000000  0.5845580000000 1.0
C      1  0.5836040000000  0.5707380000000  0.4837520000000 1.0
C      1  0.4256850000000  0.5839740000000  0.5194660000000 1.0
C      1  0.5711440000000  0.5524840000000  0.5694630000000 1.0
C      1  0.4542790000000  0.5262890000000  0.4191320000000 1.0
C      1  0.4397040000000  0.5304170000000  0.5574340000000 1.0
C      1  0.5711660000000  0.4503120000000  0.4819940000000 1.0
C      1  0.4982800000000  0.4366570000000  0.5072700000000 1.0
C      1  0.4892720000000  0.4835250000000  0.5515200000000 1.0
C      1  0.5295840000000  0.4866180000000  0.5048470000000 1.0
C      1  0.4603350000000  0.6176190000000  0.4397790000000 1.0
C      1  0.5810520000000  0.5231430000000  0.5551530000000 1.0
C      1  0.4352050000000  0.5384400000000  0.4832010000000 1.0
C      1  0.4842750000000  0.4571830000000  0.5952540000000 1.0
C      1  0.5021290000000  0.4053710000000  0.5872470000000 1.0
C      1  0.4176850000000  0.4770060000000  0.4968320000000 1.0
END
