TITL C-2778430-5657-1429 -0.000442304586661988 125000 -213.250575075766 0 0 38 (C1) n - 1
REM
REM in /home/nfs/bkarasulu/CARBON/AIRSS/Generating-Clusters/REBO/Only-C1/SD-CG/HFTN-CG
REM
REM
REM
REM
REM
REM ./C.cell (11c1c37f851c82e70ff6c80c92926a4b)
REM
REM compiler GCC version 9.2.1 20190827 (Red Hat 9.2.1-1)
REM options -cpp -mtune=generic -march=x86-64 -g -O0 -fpre-include=/usr/include/finclude/math-vector-fortran.h
REM seed 1951801378 -1303031163 -1708257680 1236830033 1317685182 -1887441355 -2140753357 -1919431652 73657224 1145069128 1382376165 849022453 1458986695 666664518 -899702703 -821059818 1630273013 -622738819 200918266 426537502 -95677531 -383648508 1012418580 -1105410210 1267588366 939444944 -1377491768 -1065894525 80561647 1368991342 1836102735 -2039993430 1470125194
REM
CELL 1.54180   50.00000   50.00000   50.00000   90.00000   90.00000   90.00000
LATT -1
SFAC C  
C      1  0.4998090000000  0.5517940000000  0.5754530000000 1.0
C      1  0.5550820000000  0.4547890000000  0.4277930000000 1.0
C      1  0.5409210000000  0.5405610000000  0.4475020000000 1.0
C      1  0.5619950000000  0.4295540000000  0.4292820000000 1.0
C      1  0.5188690000000  0.5753560000000  0.6202050000000 1.0
C      1  0.4255560000000  0.4955480000000  0.4701470000000 1.0
C      1  0.5591550000000  0.4983330000000  0.4078750000000 1.0
C      1  0.4577670000000  0.5470950000000  0.5459660000000 1.0
C      1  0.5170410000000  0.4754540000000  0.4652830000000 1.0
C      1  0.5280160000000  0.4915890000000  0.4440340000000 1.0
C      1  0.4711390000000  0.4658760000000  0.4523910000000 1.0
C      1  0.4751380000000  0.4838230000000  0.4987800000000 1.0
C      1  0.5122890000000  0.5348540000000  0.5121790000000 1.0
C      1  0.4521940000000  0.5285690000000  0.5273860000000 1.0
C      1  0.5318310000000  0.4769070000000  0.5516800000000 1.0
C      1  0.5209380000000  0.5192380000000  0.4454170000000 1.0
C      1  0.4403940000000  0.4770190000000  0.5171930000000 1.0
C      1  0.5481660000000  0.4402440000000  0.4921450000000 1.0
C      1  0.4473830000000  0.4574330000000  0.4637730000000 1.0
C      1  0.4739380000000  0.5567460000000  0.5653130000000 1.0
C      1  0.5145070000000  0.5196060000000  0.5355390000000 1.0
C      1  0.5477050000000  0.4817160000000  0.4262040000000 1.0
C      1  0.4495210000000  0.4609400000000  0.5390040000000 1.0
C      1  0.5136370000000  0.4906510000000  0.5353470000000 1.0
C      1  0.4921040000000  0.4759180000000  0.5237650000000 1.0
C      1  0.5000670000000  0.5257530000000  0.4655760000000 1.0
C      1  0.4531000000000  0.5048540000000  0.5140920000000 1.0
C      1  0.5096270000000  0.5639310000000  0.5985050000000 1.0
C      1  0.5366340000000  0.5545800000000  0.4718240000000 1.0
C      1  0.4444590000000  0.4664010000000  0.4899720000000 1.0
C      1  0.4499060000000  0.5051450000000  0.4688100000000 1.0
C      1  0.4771060000000  0.4588570000000  0.5412260000000 1.0
C      1  0.4891410000000  0.4780020000000  0.4711780000000 1.0
C      1  0.5488310000000  0.4640640000000  0.5669410000000 1.0
C      1  0.5148440000000  0.5334500000000  0.5601560000000 1.0
C      1  0.5135110000000  0.5430000000000  0.4855780000000 1.0
C      1  0.5330970000000  0.4572910000000  0.4791400000000 1.0
C      1  0.4745810000000  0.5150570000000  0.4673470000000 1.0
END
