TITL C-2778430-5657-1033 -0.00041329752267995 125000 -934.294648087504 0 0 160 (C1) n - 1
REM
REM in /home/nfs/bkarasulu/CARBON/AIRSS/Generating-Clusters/REBO/Only-C1/SD-CG/HFTN-CG
REM
REM
REM
REM
REM
REM ./C.cell (11c1c37f851c82e70ff6c80c92926a4b)
REM
REM compiler GCC version 9.2.1 20190827 (Red Hat 9.2.1-1)
REM options -cpp -mtune=generic -march=x86-64 -g -O0 -fpre-include=/usr/include/finclude/math-vector-fortran.h
REM seed 135172508 1300891303 -1238572485 -2002868507 -969943194 1857531111 -1679437948 529689817 -1881076904 -1049302729 2083337481 460147994 -908783628 -726489159 -1156565650 702973058 864013465 1708998703 -335849569 1516141204 1133750655 -971127320 1288827657 366721035 1803778403 -1774550631 -531115917 600536941 757784088 439356058 2056244240 -1260832902 856009717
REM
CELL 1.54180   50.00000   50.00000   50.00000   90.00000   90.00000   90.00000
LATT -1
SFAC C  
C      1  0.4418510000000  0.5034720000000  0.5465580000000 1.0
C      1  0.4266500000000  0.4451690000000  0.4395630000000 1.0
C      1  0.5502710000000  0.4174200000000  0.5387770000000 1.0
C      1  0.5492630000000  0.5006850000000  0.4496290000000 1.0
C      1  0.5135560000000  0.4641290000000  0.5849490000000 1.0
C      1  0.5667160000000  0.5404660000000  0.4747680000000 1.0
C      1  0.4540530000000  0.5200450000000  0.4092590000000 1.0
C      1  0.4491420000000  0.4227790000000  0.4935960000000 1.0
C      1  0.5204740000000  0.5863080000000  0.4434800000000 1.0
C      1  0.4752120000000  0.4688420000000  0.4008110000000 1.0
C      1  0.3972960000000  0.4838070000000  0.4867070000000 1.0
C      1  0.5536660000000  0.5113550000000  0.4175380000000 1.0
C      1  0.5605470000000  0.4121090000000  0.4888640000000 1.0
C      1  0.5697830000000  0.4981310000000  0.5611410000000 1.0
C      1  0.4527730000000  0.5075090000000  0.5974310000000 1.0
C      1  0.5008920000000  0.4363450000000  0.5762800000000 1.0
C      1  0.4486720000000  0.4904050000000  0.4014500000000 1.0
C      1  0.4951560000000  0.5021080000000  0.4329160000000 1.0
C      1  0.4481160000000  0.4456890000000  0.5755060000000 1.0
C      1  0.4280960000000  0.4365730000000  0.5572100000000 1.0
C      1  0.5325900000000  0.4863590000000  0.5157440000000 1.0
C      1  0.4293900000000  0.4307990000000  0.4706190000000 1.0
C      1  0.4715960000000  0.4307420000000  0.5700950000000 1.0
C      1  0.4702840000000  0.5707140000000  0.4907400000000 1.0
C      1  0.5113030000000  0.4962830000000  0.4612020000000 1.0
C      1  0.5452880000000  0.4679970000000  0.5765250000000 1.0
C      1  0.4991140000000  0.5682460000000  0.5840970000000 1.0
C      1  0.5064490000000  0.4352990000000  0.4217900000000 1.0
C      1  0.5565780000000  0.5442350000000  0.5506760000000 1.0
C      1  0.5274820000000  0.5484280000000  0.5018220000000 1.0
C      1  0.4889930000000  0.4715120000000  0.4821410000000 1.0
C      1  0.6067970000000  0.4954570000000  0.5239100000000 1.0
C      1  0.5433270000000  0.5288310000000  0.4576370000000 1.0
C      1  0.4097210000000  0.5162500000000  0.4897730000000 1.0
C      1  0.5577520000000  0.4526570000000  0.4906940000000 1.0
C      1  0.4510350000000  0.4584830000000  0.5187870000000 1.0
C      1  0.5677440000000  0.4912510000000  0.4973610000000 1.0
C      1  0.5859790000000  0.4520890000000  0.5319570000000 1.0
C      1  0.4099780000000  0.4710900000000  0.5223460000000 1.0
C      1  0.4093880000000  0.4519230000000  0.4872840000000 1.0
C      1  0.4267450000000  0.5379350000000  0.5594710000000 1.0
C      1  0.4255800000000  0.4845790000000  0.4715250000000 1.0
C      1  0.4874890000000  0.3923210000000  0.4930380000000 1.0
C      1  0.5782050000000  0.4291170000000  0.5079430000000 1.0
C      1  0.4142540000000  0.5429210000000  0.5350360000000 1.0
C      1  0.4416740000000  0.4725110000000  0.5465730000000 1.0
C      1  0.4716910000000  0.4801840000000  0.5964270000000 1.0
C      1  0.5483630000000  0.5511670000000  0.5236220000000 1.0
C      1  0.4209250000000  0.4757000000000  0.4430900000000 1.0
C      1  0.4433790000000  0.5957990000000  0.4373990000000 1.0
C      1  0.4262610000000  0.5498180000000  0.4539650000000 1.0
C      1  0.5039530000000  0.4766740000000  0.5099880000000 1.0
C      1  0.4863860000000  0.5915800000000  0.5371620000000 1.0
C      1  0.4863440000000  0.5930670000000  0.4864850000000 1.0
C      1  0.4782560000000  0.5772680000000  0.5591730000000 1.0
C      1  0.4208160000000  0.5428060000000  0.5039320000000 1.0
C      1  0.4740440000000  0.5223310000000  0.4356280000000 1.0
C      1  0.5281910000000  0.4673260000000  0.4548530000000 1.0
C      1  0.4981410000000  0.6014300000000  0.5121900000000 1.0
C      1  0.5253260000000  0.4021870000000  0.5348600000000 1.0
C      1  0.3972790000000  0.5002340000000  0.5156930000000 1.0
C      1  0.4252370000000  0.4974480000000  0.4247540000000 1.0
C      1  0.4150780000000  0.5907010000000  0.4786120000000 1.0
C      1  0.4948490000000  0.4091770000000  0.4680750000000 1.0
C      1  0.5333070000000  0.5932610000000  0.4820070000000 1.0
C      1  0.5996700000000  0.5026550000000  0.4945380000000 1.0
C      1  0.4417120000000  0.4634270000000  0.4900870000000 1.0
C      1  0.5297590000000  0.5609080000000  0.5764500000000 1.0
C      1  0.5165350000000  0.5602020000000  0.4241270000000 1.0
C      1  0.4753290000000  0.5579860000000  0.5184820000000 1.0
C      1  0.5230020000000  0.5482620000000  0.4547650000000 1.0
C      1  0.4546350000000  0.5751900000000  0.4240860000000 1.0
C      1  0.5659940000000  0.5230270000000  0.5014850000000 1.0
C      1  0.5328470000000  0.4357100000000  0.4568090000000 1.0
C      1  0.4411530000000  0.4265000000000  0.5271470000000 1.0
C      1  0.4530820000000  0.5505570000000  0.4731580000000 1.0
C      1  0.5351000000000  0.4037880000000  0.5044160000000 1.0
C      1  0.5282960000000  0.5225410000000  0.3887980000000 1.0
C      1  0.4588860000000  0.4247410000000  0.4263590000000 1.0
C      1  0.4876040000000  0.5004210000000  0.5216590000000 1.0
C      1  0.5781070000000  0.5262140000000  0.5786100000000 1.0
C      1  0.4636690000000  0.5227190000000  0.5580110000000 1.0
C      1  0.4361640000000  0.4129080000000  0.4424860000000 1.0
C      1  0.4654000000000  0.4540290000000  0.4421730000000 1.0
C      1  0.5644940000000  0.5621560000000  0.4516720000000 1.0
C      1  0.5919440000000  0.5567150000000  0.5006240000000 1.0
C      1  0.5906920000000  0.5318440000000  0.5199890000000 1.0
C      1  0.5512490000000  0.4799300000000  0.4739030000000 1.0
C      1  0.4729950000000  0.4614600000000  0.5446460000000 1.0
C      1  0.5019240000000  0.4913290000000  0.6020100000000 1.0
C      1  0.4994530000000  0.5954070000000  0.4608820000000 1.0
C      1  0.4954420000000  0.5633350000000  0.4063000000000 1.0
C      1  0.4254880000000  0.5228730000000  0.4388030000000 1.0
C      1  0.5227660000000  0.5639890000000  0.4788140000000 1.0
C      1  0.5853950000000  0.5320670000000  0.5472900000000 1.0
C      1  0.5229140000000  0.4628300000000  0.4215180000000 1.0
C      1  0.4809760000000  0.4372970000000  0.4096160000000 1.0
C      1  0.5585660000000  0.4246300000000  0.4624470000000 1.0
C      1  0.5479720000000  0.5846690000000  0.4556850000000 1.0
C      1  0.5260990000000  0.5092120000000  0.6078940000000 1.0
C      1  0.5426670000000  0.5899380000000  0.5286800000000 1.0
C      1  0.4691990000000  0.4127400000000  0.5411960000000 1.0
C      1  0.4818050000000  0.4314850000000  0.4877470000000 1.0
C      1  0.5245590000000  0.5730540000000  0.5467530000000 1.0
C      1  0.4885040000000  0.5459700000000  0.6061810000000 1.0
C      1  0.5314670000000  0.4360170000000  0.5019700000000 1.0
C      1  0.4995980000000  0.5523370000000  0.5364720000000 1.0
C      1  0.5699240000000  0.4579820000000  0.5589980000000 1.0
C      1  0.5904140000000  0.4584080000000  0.4981870000000 1.0
C      1  0.5686300000000  0.5730640000000  0.5139280000000 1.0
C      1  0.4679040000000  0.4019100000000  0.5104840000000 1.0
C      1  0.5294470000000  0.5287260000000  0.5816820000000 1.0
C      1  0.4891260000000  0.4726460000000  0.4485500000000 1.0
C      1  0.4103540000000  0.4603580000000  0.5526020000000 1.0
C      1  0.4641370000000  0.4536830000000  0.4731720000000 1.0
C      1  0.5395770000000  0.4945020000000  0.5476020000000 1.0
C      1  0.5487070000000  0.5003070000000  0.5860610000000 1.0
C      1  0.5268480000000  0.6029240000000  0.5083130000000 1.0
C      1  0.5017810000000  0.4170630000000  0.5480790000000 1.0
C      1  0.5636970000000  0.4746260000000  0.5231420000000 1.0
C      1  0.4456630000000  0.4606390000000  0.4159500000000 1.0
C      1  0.4848790000000  0.5040650000000  0.4817900000000 1.0
C      1  0.5796290000000  0.4425100000000  0.4538140000000 1.0
C      1  0.4403910000000  0.4771340000000  0.5861850000000 1.0
C      1  0.5829140000000  0.5213760000000  0.4305200000000 1.0
C      1  0.5019600000000  0.4832580000000  0.4083490000000 1.0
C      1  0.5192790000000  0.5141020000000  0.5572530000000 1.0
C      1  0.4156710000000  0.5625130000000  0.4800340000000 1.0
C      1  0.4527940000000  0.5380410000000  0.5048700000000 1.0
C      1  0.4830280000000  0.5183190000000  0.5927950000000 1.0
C      1  0.4535960000000  0.5546180000000  0.5647800000000 1.0
C      1  0.5921620000000  0.5056330000000  0.4555950000000 1.0
C      1  0.4906390000000  0.5401730000000  0.5670220000000 1.0
C      1  0.5275950000000  0.4628060000000  0.5476290000000 1.0
C      1  0.5611420000000  0.5523500000000  0.5823340000000 1.0
C      1  0.4895480000000  0.5025340000000  0.5543240000000 1.0
C      1  0.4870650000000  0.4760060000000  0.5683480000000 1.0
C      1  0.5005000000000  0.4486860000000  0.5383320000000 1.0
C      1  0.5670890000000  0.5475050000000  0.4274660000000 1.0
C      1  0.4532780000000  0.5705560000000  0.5896610000000 1.0
C      1  0.5102850000000  0.4206030000000  0.4470360000000 1.0
C      1  0.4609990000000  0.5490720000000  0.4198990000000 1.0
C      1  0.4108390000000  0.4385000000000  0.5168890000000 1.0
C      1  0.5936210000000  0.4908190000000  0.5441590000000 1.0
C      1  0.5152910000000  0.5015090000000  0.3872990000000 1.0
C      1  0.5466260000000  0.4470130000000  0.5284960000000 1.0
C      1  0.5025100000000  0.4433930000000  0.5066420000000 1.0
C      1  0.5525500000000  0.4782380000000  0.4251960000000 1.0
C      1  0.5102110000000  0.5240910000000  0.5280530000000 1.0
C      1  0.4609870000000  0.5085560000000  0.5058540000000 1.0
C      1  0.4350540000000  0.5141550000000  0.4691000000000 1.0
C      1  0.4656630000000  0.5219520000000  0.4647380000000 1.0
C      1  0.4281760000000  0.6040270000000  0.4584010000000 1.0
C      1  0.5350980000000  0.5168980000000  0.5082520000000 1.0
C      1  0.4288190000000  0.5081520000000  0.5757920000000 1.0
C      1  0.4316210000000  0.4969850000000  0.5169030000000 1.0
C      1  0.5974610000000  0.4773660000000  0.4745310000000 1.0
C      1  0.5395280000000  0.5419470000000  0.4119300000000 1.0
C      1  0.5980650000000  0.5303300000000  0.4791280000000 1.0
C      1  0.5793670000000  0.4747700000000  0.4459750000000 1.0
END
