TITL C-2778426-5645-1364 0.0544387214993879 125000 -526.938482290248 0 0 90 (C1) n - 1
REM
REM in /home/nfs/bkarasulu/CARBON/AIRSS/Generating-Clusters/REBO/Only-C1/SD-CG/HFTN-CG
REM
REM
REM
REM
REM
REM ./C.cell (11c1c37f851c82e70ff6c80c92926a4b)
REM
REM compiler GCC version 9.2.1 20190827 (Red Hat 9.2.1-1)
REM options -cpp -mtune=generic -march=x86-64 -g -O0 -fpre-include=/usr/include/finclude/math-vector-fortran.h
REM seed -572790598 -800804197 -730355398 730331538 -1789374531 434372503 565570486 604448571 1270789852 215190701 562251249 -429960175 357010186 589152669 -1061420371 -915932404 -386622671 1224416975 -723773378 1157980808 -1148401834 1609637930 123941766 1388523602 -1451866150 -648532854 -76653683 -1686054501 1160613346 460016653 533982132 -1199442294 -1952439913
REM
CELL 1.54180   50.00000   50.00000   50.00000   90.00000   90.00000   90.00000
LATT -1
SFAC C  
C      1  0.5498130000000  0.5601740000000  0.4665820000000 1.0
C      1  0.4807270000000  0.5243350000000  0.4205130000000 1.0
C      1  0.4779250000000  0.4826410000000  0.5064620000000 1.0
C      1  0.4279640000000  0.5316490000000  0.4561920000000 1.0
C      1  0.5249420000000  0.4658130000000  0.5353190000000 1.0
C      1  0.5700700000000  0.5052790000000  0.5389190000000 1.0
C      1  0.5694880000000  0.4526090000000  0.5241900000000 1.0
C      1  0.5514170000000  0.4842370000000  0.5720990000000 1.0
C      1  0.5370030000000  0.4646910000000  0.4634870000000 1.0
C      1  0.5090510000000  0.5091320000000  0.4867500000000 1.0
C      1  0.5048530000000  0.4232460000000  0.5174040000000 1.0
C      1  0.5823270000000  0.5391210000000  0.5035250000000 1.0
C      1  0.4867130000000  0.5372190000000  0.5221320000000 1.0
C      1  0.5034010000000  0.4917500000000  0.4586630000000 1.0
C      1  0.4102800000000  0.4949650000000  0.4892350000000 1.0
C      1  0.5468000000000  0.5602330000000  0.5001450000000 1.0
C      1  0.4606180000000  0.5451940000000  0.4866080000000 1.0
C      1  0.5175220000000  0.5776500000000  0.5040020000000 1.0
C      1  0.5671680000000  0.4803500000000  0.5208960000000 1.0
C      1  0.5111200000000  0.4708810000000  0.5625780000000 1.0
C      1  0.5056810000000  0.5639040000000  0.4523660000000 1.0
C      1  0.5744480000000  0.5179340000000  0.4543500000000 1.0
C      1  0.5280060000000  0.5148970000000  0.4523140000000 1.0
C      1  0.5553970000000  0.4292040000000  0.5214890000000 1.0
C      1  0.5253690000000  0.4596690000000  0.4379210000000 1.0
C      1  0.4823350000000  0.4967000000000  0.4375960000000 1.0
C      1  0.4567170000000  0.4387980000000  0.4639760000000 1.0
C      1  0.5310730000000  0.4270500000000  0.5067590000000 1.0
C      1  0.4799840000000  0.5222580000000  0.4778080000000 1.0
C      1  0.5418890000000  0.4688680000000  0.4169700000000 1.0
C      1  0.5373820000000  0.5056680000000  0.5286760000000 1.0
C      1  0.4402400000000  0.4393180000000  0.4867000000000 1.0
C      1  0.4883430000000  0.4409920000000  0.4710360000000 1.0
C      1  0.4423060000000  0.4759430000000  0.4656290000000 1.0
C      1  0.4554390000000  0.4317590000000  0.5092880000000 1.0
C      1  0.4949240000000  0.5697790000000  0.5283670000000 1.0
C      1  0.5000230000000  0.5313120000000  0.4548160000000 1.0
C      1  0.5504480000000  0.5370330000000  0.4499620000000 1.0
C      1  0.4987060000000  0.4505650000000  0.4404570000000 1.0
C      1  0.4474240000000  0.4412110000000  0.5347520000000 1.0
C      1  0.5674240000000  0.4811920000000  0.4141330000000 1.0
C      1  0.4369200000000  0.4794710000000  0.5619320000000 1.0
C      1  0.5041000000000  0.5099190000000  0.5662410000000 1.0
C      1  0.5679780000000  0.5256820000000  0.4838050000000 1.0
C      1  0.5302410000000  0.4475920000000  0.4847720000000 1.0
C      1  0.5450580000000  0.5591690000000  0.5503010000000 1.0
C      1  0.4095850000000  0.5834760000000  0.5279140000000 1.0
C      1  0.5491800000000  0.4930250000000  0.4989880000000 1.0
C      1  0.5013120000000  0.4352190000000  0.5453380000000 1.0
C      1  0.5179280000000  0.4647240000000  0.5091500000000 1.0
C      1  0.4829620000000  0.4933460000000  0.5453750000000 1.0
C      1  0.4868920000000  0.5516300000000  0.4303640000000 1.0
C      1  0.4975160000000  0.4703880000000  0.4824990000000 1.0
C      1  0.5769250000000  0.4974570000000  0.4353950000000 1.0
C      1  0.4828270000000  0.4268990000000  0.5005410000000 1.0
C      1  0.5126330000000  0.5169800000000  0.5175610000000 1.0
C      1  0.4542370000000  0.5069660000000  0.4231390000000 1.0
C      1  0.5095270000000  0.5465660000000  0.4996770000000 1.0
C      1  0.5829760000000  0.5294730000000  0.5333960000000 1.0
C      1  0.4778180000000  0.5549050000000  0.5613060000000 1.0
C      1  0.5287850000000  0.4352450000000  0.5607010000000 1.0
C      1  0.4926240000000  0.4827670000000  0.5822430000000 1.0
C      1  0.4700850000000  0.5112290000000  0.5231580000000 1.0
C      1  0.4479680000000  0.5434030000000  0.5147310000000 1.0
C      1  0.4921950000000  0.5376170000000  0.5709660000000 1.0
C      1  0.4438240000000  0.5533810000000  0.4660340000000 1.0
C      1  0.5636970000000  0.5565630000000  0.5266930000000 1.0
C      1  0.4235790000000  0.4829520000000  0.5170430000000 1.0
C      1  0.4707740000000  0.4420990000000  0.5560150000000 1.0
C      1  0.4305910000000  0.5207700000000  0.4300130000000 1.0
C      1  0.5365920000000  0.5293970000000  0.4883130000000 1.0
C      1  0.4290220000000  0.5116190000000  0.4765170000000 1.0
C      1  0.4517640000000  0.4591420000000  0.4423360000000 1.0
C      1  0.5348550000000  0.5091500000000  0.5606650000000 1.0
C      1  0.4660650000000  0.4725460000000  0.5672650000000 1.0
C      1  0.5822970000000  0.4774480000000  0.3916120000000 1.0
C      1  0.4295960000000  0.4630940000000  0.5394170000000 1.0
C      1  0.4850930000000  0.4630980000000  0.5333920000000 1.0
C      1  0.5232640000000  0.5740080000000  0.4710290000000 1.0
C      1  0.4599460000000  0.4984250000000  0.4819500000000 1.0
C      1  0.4626490000000  0.5657960000000  0.5356850000000 1.0
C      1  0.5415160000000  0.4912100000000  0.4720970000000 1.0
C      1  0.4312580000000  0.5698990000000  0.5267080000000 1.0
C      1  0.5216090000000  0.5723950000000  0.5461280000000 1.0
C      1  0.4381870000000  0.5130080000000  0.5247880000000 1.0
C      1  0.5487370000000  0.4588780000000  0.5577900000000 1.0
C      1  0.4214910000000  0.4638390000000  0.4888730000000 1.0
C      1  0.4753610000000  0.4591850000000  0.4258030000000 1.0
C      1  0.4312470000000  0.5060340000000  0.5558390000000 1.0
C      1  0.5459530000000  0.5376900000000  0.5674330000000 1.0
END
