TITL C-2778433-5640-1037 0.000101258417892387 125000 -159.241149967022 0 0 29 (C1) n - 1
REM
REM in /home/nfs/bkarasulu/CARBON/AIRSS/Generating-Clusters/REBO/Only-C1/SD-CG/HFTN-CG
REM
REM
REM
REM
REM
REM ./C.cell (11c1c37f851c82e70ff6c80c92926a4b)
REM
REM compiler GCC version 9.2.1 20190827 (Red Hat 9.2.1-1)
REM options -cpp -mtune=generic -march=x86-64 -g -O0 -fpre-include=/usr/include/finclude/math-vector-fortran.h
REM seed 392537460 -1039408395 -642264802 1519176642 1984345673 -1791300351 -1777869259 -1520645248 -1343221594 -1500415579 1305719139 -1110508344 1449067832 -2002042751 -962627727 789483872 1215112833 -1550126699 1380366386 -581989971 -1837220098 1461230152 -1844512149 331719772 -789116083 -294525619 -110692387 1856814085 1870731998 -1811602166 1623582080 1495021703 311149848
REM
CELL 1.54180   50.00000   50.00000   50.00000   90.00000   90.00000   90.00000
LATT -1
SFAC C  
C      1  0.4521490000000  0.5205600000000  0.4378770000000 1.0
C      1  0.4472740000000  0.5075210000000  0.4854320000000 1.0
C      1  0.5567550000000  0.5217020000000  0.5309660000000 1.0
C      1  0.4594490000000  0.4970620000000  0.5083770000000 1.0
C      1  0.5782430000000  0.5460050000000  0.4956860000000 1.0
C      1  0.4208480000000  0.5165280000000  0.4857510000000 1.0
C      1  0.5416710000000  0.5053970000000  0.5538290000000 1.0
C      1  0.5140170000000  0.5209790000000  0.4760650000000 1.0
C      1  0.5335560000000  0.4326340000000  0.5102040000000 1.0
C      1  0.4893780000000  0.4984720000000  0.4621040000000 1.0
C      1  0.4673300000000  0.5217350000000  0.4152650000000 1.0
C      1  0.5651110000000  0.4911910000000  0.5371290000000 1.0
C      1  0.5196330000000  0.4597930000000  0.5478610000000 1.0
C      1  0.5142170000000  0.4909920000000  0.5919110000000 1.0
C      1  0.3960440000000  0.5249810000000  0.4860500000000 1.0
C      1  0.5643990000000  0.4636110000000  0.5324360000000 1.0
C      1  0.5402100000000  0.4484090000000  0.5325350000000 1.0
C      1  0.5449110000000  0.5671460000000  0.5213970000000 1.0
C      1  0.5088770000000  0.4491370000000  0.4679930000000 1.0
C      1  0.5318980000000  0.5320770000000  0.4902090000000 1.0
C      1  0.4015770000000  0.5399610000000  0.4385920000000 1.0
C      1  0.5198760000000  0.4885120000000  0.5649140000000 1.0
C      1  0.4952320000000  0.4795240000000  0.5439090000000 1.0
C      1  0.5217750000000  0.4338570000000  0.4859680000000 1.0
C      1  0.4260430000000  0.5305750000000  0.4382460000000 1.0
C      1  0.4752360000000  0.4877110000000  0.5277430000000 1.0
C      1  0.4627420000000  0.5090460000000  0.4615660000000 1.0
C      1  0.4978770000000  0.4723080000000  0.4601840000000 1.0
C      1  0.5536710000000  0.5425760000000  0.5098030000000 1.0
END
