TITL C-2778431-5191-116 -6.68159930724068e-08 125000 -25.1356698579083 0 0 5 (D(inf)h) n - 1
REM
REM in /home/nfs/bkarasulu/CARBON/AIRSS/Generating-Clusters/REBO/Only-C1/SD-CG/HFTN-CG
REM
REM
REM
REM
REM
REM ./C.cell (11c1c37f851c82e70ff6c80c92926a4b)
REM
REM compiler GCC version 9.2.1 20190827 (Red Hat 9.2.1-1)
REM options -cpp -mtune=generic -march=x86-64 -g -O0 -fpre-include=/usr/include/finclude/math-vector-fortran.h
REM seed -1687174449 183550152 577122160 964335703 2064169152 -789919387 -1575874082 279202301 1795524911 1425707165 -1634258208 1981006975 -1021476622 -2147263830 1489236079 -2005652047 1976512805 694037425 -1971210833 940561961 -1872510846 -24419795 1786528451 870993660 563386618 88424728 635678306 -828673613 -1576856303 -1631100345 -859482124 440999635 272852260
REM
CELL 1.54180   50.00000   50.00000   50.00000   90.00000   90.00000   90.00000
LATT -1
SFAC C  
C      1  0.4877150000000  0.5020480000000  0.5235390000000 1.0
C      1  0.5243750000000  0.4959370000000  0.4532970000000 1.0
C      1  0.5122850000000  0.4979520000000  0.4764610000000 1.0
C      1  0.4756240000000  0.5040630000000  0.5467030000000 1.0
C      1  0.5000000000000  0.5000000000000  0.5000000000000 1.0
END
