TITL C-2778429-3646-772 0.00156437038507788 125000 -749.670573276598 0 0 126 (C1) n - 1
REM
REM in /home/nfs/bkarasulu/CARBON/AIRSS/Generating-Clusters/REBO/Only-C1/SD-CG/HFTN-CG
REM
REM
REM
REM
REM
REM ./C.cell (11c1c37f851c82e70ff6c80c92926a4b)
REM
REM compiler GCC version 9.2.1 20190827 (Red Hat 9.2.1-1)
REM options -cpp -mtune=generic -march=x86-64 -g -O0 -fpre-include=/usr/include/finclude/math-vector-fortran.h
REM seed -692027423 -1419511241 563750730 -1604455568 -1319523076 728131279 2117147140 -1204184674 -1345978341 -343085467 -1847525054 20466084 -251883693 -649805275 -1936497964 669138068 86569929 -1123564600 1633633675 -39017144 -1144133190 106378988 -662751321 746937301 -1712584853 -486481447 -428528673 1861224895 1066591642 -473882151 -400068906 -1442525854 2002484689
REM
CELL 1.54180   50.00000   50.00000   50.00000   90.00000   90.00000   90.00000
LATT -1
SFAC C  
C      1  0.4562340000000  0.4967250000000  0.4504290000000 1.0
C      1  0.4623900000000  0.5642480000000  0.4408640000000 1.0
C      1  0.4372990000000  0.5707140000000  0.4829960000000 1.0
C      1  0.4473200000000  0.4173100000000  0.5007860000000 1.0
C      1  0.5379270000000  0.4548400000000  0.5807840000000 1.0
C      1  0.5054600000000  0.5974680000000  0.5164750000000 1.0
C      1  0.4038880000000  0.5335890000000  0.4808050000000 1.0
C      1  0.4907030000000  0.4269000000000  0.4399820000000 1.0
C      1  0.4241920000000  0.5311100000000  0.5512000000000 1.0
C      1  0.5396880000000  0.4257410000000  0.5368410000000 1.0
C      1  0.4696790000000  0.4865160000000  0.5804120000000 1.0
C      1  0.4285200000000  0.4637690000000  0.5537530000000 1.0
C      1  0.4884550000000  0.5078210000000  0.5652190000000 1.0
C      1  0.5126520000000  0.5558520000000  0.5785950000000 1.0
C      1  0.5518430000000  0.5647990000000  0.4515030000000 1.0
C      1  0.4734940000000  0.5119570000000  0.5275960000000 1.0
C      1  0.5123270000000  0.5505000000000  0.4702990000000 1.0
C      1  0.5906410000000  0.4847940000000  0.4535700000000 1.0
C      1  0.4361110000000  0.4537190000000  0.4675010000000 1.0
C      1  0.4766490000000  0.5105400000000  0.4046730000000 1.0
C      1  0.5610910000000  0.4457360000000  0.4603320000000 1.0
C      1  0.5322420000000  0.5883040000000  0.5159460000000 1.0
C      1  0.5004860000000  0.4014150000000  0.5064140000000 1.0
C      1  0.4543860000000  0.5420090000000  0.4781000000000 1.0
C      1  0.4077120000000  0.5046740000000  0.4792680000000 1.0
C      1  0.4193300000000  0.5532320000000  0.4626020000000 1.0
C      1  0.4803880000000  0.5385980000000  0.5566130000000 1.0
C      1  0.4589230000000  0.4125700000000  0.5265680000000 1.0
C      1  0.5143830000000  0.5430600000000  0.4368450000000 1.0
C      1  0.5058950000000  0.5877470000000  0.4573330000000 1.0
C      1  0.4500790000000  0.5090390000000  0.4807240000000 1.0
C      1  0.4956640000000  0.5161370000000  0.4595880000000 1.0
C      1  0.4657580000000  0.5557620000000  0.5320070000000 1.0
C      1  0.4795130000000  0.4716100000000  0.4898660000000 1.0
C      1  0.5106430000000  0.4659120000000  0.5737690000000 1.0
C      1  0.4732730000000  0.4496520000000  0.5226070000000 1.0
C      1  0.5646290000000  0.4035090000000  0.4931900000000 1.0
C      1  0.5755940000000  0.5595320000000  0.4696160000000 1.0
C      1  0.5858800000000  0.4614000000000  0.4752840000000 1.0
C      1  0.4219470000000  0.4963340000000  0.4555750000000 1.0
C      1  0.5508150000000  0.5060910000000  0.4296770000000 1.0
C      1  0.5286570000000  0.4551720000000  0.4296840000000 1.0
C      1  0.4642550000000  0.5332680000000  0.5840730000000 1.0
C      1  0.5729620000000  0.4649200000000  0.4382740000000 1.0
C      1  0.5682490000000  0.5518360000000  0.5195390000000 1.0
C      1  0.4621090000000  0.4054340000000  0.4789370000000 1.0
C      1  0.5281140000000  0.5228670000000  0.4684450000000 1.0
C      1  0.5705300000000  0.5731050000000  0.4944540000000 1.0
C      1  0.5852300000000  0.4784560000000  0.5278540000000 1.0
C      1  0.4835560000000  0.4806370000000  0.4461950000000 1.0
C      1  0.4971500000000  0.5352670000000  0.5925810000000 1.0
C      1  0.5077240000000  0.4667100000000  0.5340600000000 1.0
C      1  0.5488240000000  0.4755390000000  0.4260320000000 1.0
C      1  0.4468680000000  0.4684170000000  0.5161110000000 1.0
C      1  0.5079220000000  0.4356250000000  0.5409410000000 1.0
C      1  0.5542500000000  0.4462030000000  0.5577940000000 1.0
C      1  0.5138730000000  0.4127130000000  0.4579360000000 1.0
C      1  0.5947400000000  0.5043130000000  0.5242460000000 1.0
C      1  0.4108810000000  0.4732200000000  0.5326200000000 1.0
C      1  0.4136010000000  0.5066120000000  0.5325680000000 1.0
C      1  0.5515250000000  0.4484200000000  0.5064470000000 1.0
C      1  0.5673680000000  0.5161890000000  0.5533860000000 1.0
C      1  0.5146410000000  0.5065720000000  0.5873470000000 1.0
C      1  0.5650950000000  0.4912540000000  0.5691420000000 1.0
C      1  0.4865140000000  0.5912140000000  0.5377930000000 1.0
C      1  0.4845950000000  0.4774750000000  0.4067500000000 1.0
C      1  0.5833680000000  0.5327030000000  0.4736460000000 1.0
C      1  0.5481930000000  0.4995890000000  0.5338910000000 1.0
C      1  0.5348350000000  0.4957460000000  0.4835920000000 1.0
C      1  0.4469010000000  0.4452050000000  0.4424630000000 1.0
C      1  0.5721330000000  0.4685650000000  0.5516320000000 1.0
C      1  0.5383750000000  0.5631280000000  0.5280260000000 1.0
C      1  0.4733840000000  0.5896660000000  0.4606280000000 1.0
C      1  0.5396650000000  0.4037430000000  0.4778880000000 1.0
C      1  0.5607850000000  0.4990180000000  0.5038660000000 1.0
C      1  0.5416350000000  0.5511260000000  0.5689970000000 1.0
C      1  0.4972700000000  0.5565570000000  0.4923850000000 1.0
C      1  0.4824480000000  0.4829030000000  0.5428530000000 1.0
C      1  0.5724240000000  0.4688830000000  0.5013190000000 1.0
C      1  0.4951680000000  0.4927250000000  0.4824760000000 1.0
C      1  0.4306760000000  0.5413580000000  0.5234500000000 1.0
C      1  0.5152810000000  0.4872430000000  0.4568190000000 1.0
C      1  0.4918720000000  0.5392110000000  0.5184370000000 1.0
C      1  0.4086590000000  0.4905320000000  0.5035950000000 1.0
C      1  0.5260120000000  0.4832710000000  0.5134550000000 1.0
C      1  0.4389870000000  0.5216220000000  0.5742090000000 1.0
C      1  0.5507150000000  0.5329390000000  0.4500440000000 1.0
C      1  0.4494960000000  0.4780330000000  0.4849750000000 1.0
C      1  0.5775370000000  0.5120150000000  0.4503030000000 1.0
C      1  0.5470760000000  0.5901880000000  0.4914750000000 1.0
C      1  0.4426580000000  0.4910060000000  0.5680250000000 1.0
C      1  0.4939980000000  0.4487710000000  0.5013240000000 1.0
C      1  0.4903850000000  0.4022510000000  0.4799370000000 1.0
C      1  0.4985510000000  0.4552520000000  0.4286400000000 1.0
C      1  0.4954170000000  0.5663070000000  0.4379230000000 1.0
C      1  0.4612830000000  0.5843430000000  0.5237320000000 1.0
C      1  0.5222410000000  0.4897680000000  0.5523320000000 1.0
C      1  0.5247110000000  0.5230020000000  0.5592400000000 1.0
C      1  0.5419720000000  0.4863440000000  0.5869520000000 1.0
C      1  0.4357380000000  0.4427620000000  0.4964670000000 1.0
C      1  0.4345210000000  0.5181000000000  0.4357770000000 1.0
C      1  0.5155030000000  0.5462350000000  0.5392750000000 1.0
C      1  0.5065970000000  0.5035960000000  0.4075950000000 1.0
C      1  0.5282230000000  0.4119060000000  0.5073610000000 1.0
C      1  0.5793370000000  0.5252000000000  0.5031690000000 1.0
C      1  0.5339490000000  0.5852490000000  0.4648250000000 1.0
C      1  0.4682800000000  0.5313180000000  0.4196040000000 1.0
C      1  0.4355430000000  0.5457380000000  0.4408780000000 1.0
C      1  0.4956240000000  0.5689930000000  0.5550450000000 1.0
C      1  0.5233460000000  0.5198350000000  0.4230160000000 1.0
C      1  0.4606430000000  0.4590530000000  0.5523990000000 1.0
C      1  0.4899690000000  0.5838840000000  0.4959040000000 1.0
C      1  0.4637720000000  0.4219890000000  0.4426190000000 1.0
C      1  0.4739260000000  0.5339040000000  0.4520110000000 1.0
C      1  0.5643360000000  0.5438390000000  0.5511920000000 1.0
C      1  0.4600480000000  0.4651260000000  0.4269280000000 1.0
C      1  0.4856870000000  0.4654330000000  0.5862990000000 1.0
C      1  0.5657190000000  0.4224900000000  0.5146670000000 1.0
C      1  0.4531940000000  0.5263630000000  0.5082560000000 1.0
C      1  0.4585640000000  0.5907070000000  0.4912220000000 1.0
C      1  0.4452250000000  0.4938870000000  0.5339150000000 1.0
C      1  0.4159900000000  0.5535900000000  0.5021960000000 1.0
C      1  0.4813140000000  0.4352280000000  0.5606280000000 1.0
C      1  0.4870610000000  0.4126320000000  0.5284520000000 1.0
C      1  0.5382270000000  0.4332950000000  0.4477900000000 1.0
C      1  0.5222110000000  0.4439630000000  0.5045690000000 1.0
END
