TITL C-2778433-5640-1150 0.00244688472450843 125000 -806.652516820662 0 0 138 (C1) n - 1
REM
REM in /home/nfs/bkarasulu/CARBON/AIRSS/Generating-Clusters/REBO/Only-C1/SD-CG/HFTN-CG
REM
REM
REM
REM
REM
REM ./C.cell (11c1c37f851c82e70ff6c80c92926a4b)
REM
REM compiler GCC version 9.2.1 20190827 (Red Hat 9.2.1-1)
REM options -cpp -mtune=generic -march=x86-64 -g -O0 -fpre-include=/usr/include/finclude/math-vector-fortran.h
REM seed -356427925 -597643542 399470947 -1638717955 -1678039751 1488022081 -1527532400 -1471088717 1590885728 -1581204466 883098010 -750249893 -1646653638 371346117 228474498 -1605834302 -510455622 1810106691 1774608919 -538236155 1964735986 -1963366241 -579283534 2043482279 -1887462143 2134295811 -74930103 -933071560 -1887684548 182716489 -1956945659 311792729 911658863
REM
CELL 1.54180   50.00000   50.00000   50.00000   90.00000   90.00000   90.00000
LATT -1
SFAC C  
C      1  0.5731190000000  0.4923760000000  0.4359710000000 1.0
C      1  0.5337990000000  0.4924220000000  0.5034980000000 1.0
C      1  0.5249300000000  0.5682890000000  0.5075140000000 1.0
C      1  0.5912160000000  0.4454290000000  0.5555500000000 1.0
C      1  0.5499660000000  0.4184350000000  0.4660130000000 1.0
C      1  0.4980780000000  0.4949750000000  0.4151170000000 1.0
C      1  0.4570630000000  0.4933880000000  0.4829900000000 1.0
C      1  0.5931320000000  0.5314910000000  0.5600130000000 1.0
C      1  0.5532790000000  0.4446430000000  0.5855410000000 1.0
C      1  0.4671380000000  0.4306730000000  0.4540290000000 1.0
C      1  0.5486150000000  0.5496900000000  0.4911820000000 1.0
C      1  0.4717700000000  0.5542810000000  0.5143220000000 1.0
C      1  0.4964800000000  0.5466880000000  0.5330700000000 1.0
C      1  0.5368130000000  0.4477660000000  0.5584120000000 1.0
C      1  0.5587110000000  0.5742050000000  0.4590920000000 1.0
C      1  0.5280860000000  0.5849800000000  0.5331070000000 1.0
C      1  0.4938270000000  0.5497410000000  0.4204020000000 1.0
C      1  0.5511050000000  0.4897180000000  0.4182400000000 1.0
C      1  0.4682510000000  0.5015260000000  0.4095560000000 1.0
C      1  0.5435100000000  0.5147840000000  0.4070310000000 1.0
C      1  0.4809110000000  0.4786730000000  0.4395980000000 1.0
C      1  0.5809470000000  0.4545400000000  0.4773210000000 1.0
C      1  0.4037990000000  0.4858030000000  0.4677850000000 1.0
C      1  0.5152090000000  0.4757840000000  0.5769010000000 1.0
C      1  0.5111120000000  0.4479470000000  0.4615470000000 1.0
C      1  0.5321380000000  0.4678420000000  0.4226970000000 1.0
C      1  0.5784240000000  0.4559550000000  0.5828650000000 1.0
C      1  0.5069490000000  0.4227820000000  0.5494130000000 1.0
C      1  0.5900830000000  0.4952280000000  0.5012740000000 1.0
C      1  0.5523860000000  0.5716190000000  0.5455700000000 1.0
C      1  0.4601760000000  0.4722180000000  0.5166490000000 1.0
C      1  0.4343500000000  0.5720170000000  0.5079140000000 1.0
C      1  0.5234470000000  0.5910710000000  0.4654130000000 1.0
C      1  0.4051820000000  0.5067060000000  0.4920790000000 1.0
C      1  0.4225390000000  0.4584860000000  0.4590040000000 1.0
C      1  0.5447190000000  0.4196380000000  0.4941450000000 1.0
C      1  0.5299550000000  0.5361250000000  0.4724220000000 1.0
C      1  0.5022420000000  0.3985860000000  0.5075430000000 1.0
C      1  0.4814070000000  0.5884870000000  0.4859740000000 1.0
C      1  0.5275240000000  0.4082010000000  0.5283320000000 1.0
C      1  0.4402350000000  0.5519640000000  0.5541850000000 1.0
C      1  0.4291880000000  0.4594040000000  0.5102300000000 1.0
C      1  0.4119170000000  0.5548210000000  0.5147160000000 1.0
C      1  0.4729660000000  0.5600410000000  0.5538600000000 1.0
C      1  0.5864310000000  0.5360350000000  0.5315470000000 1.0
C      1  0.4523400000000  0.5258360000000  0.4737870000000 1.0
C      1  0.4831400000000  0.3934270000000  0.4868040000000 1.0
C      1  0.4351940000000  0.4291650000000  0.5349540000000 1.0
C      1  0.4780510000000  0.5116620000000  0.5273820000000 1.0
C      1  0.5959180000000  0.5225200000000  0.5033810000000 1.0
C      1  0.4130200000000  0.5400020000000  0.5416760000000 1.0
C      1  0.5350360000000  0.5254100000000  0.5760900000000 1.0
C      1  0.4760410000000  0.5458830000000  0.4847990000000 1.0
C      1  0.4216010000000  0.4390240000000  0.4844010000000 1.0
C      1  0.4497420000000  0.5648450000000  0.4822270000000 1.0
C      1  0.5438130000000  0.4948540000000  0.5775510000000 1.0
C      1  0.5510390000000  0.5890390000000  0.4855910000000 1.0
C      1  0.5765530000000  0.4326490000000  0.5318930000000 1.0
C      1  0.4760370000000  0.5810470000000  0.4568150000000 1.0
C      1  0.5100340000000  0.4687370000000  0.4424970000000 1.0
C      1  0.5547240000000  0.5073130000000  0.4871560000000 1.0
C      1  0.5089890000000  0.5853590000000  0.4898220000000 1.0
C      1  0.4873650000000  0.4712590000000  0.5104030000000 1.0
C      1  0.4667200000000  0.4332860000000  0.5111540000000 1.0
C      1  0.5283120000000  0.5388550000000  0.5236580000000 1.0
C      1  0.4613460000000  0.4697730000000  0.5635390000000 1.0
C      1  0.4640310000000  0.5338270000000  0.4170070000000 1.0
C      1  0.5369850000000  0.5531110000000  0.5675570000000 1.0
C      1  0.5020000000000  0.5304510000000  0.4817630000000 1.0
C      1  0.5255430000000  0.4228510000000  0.4487070000000 1.0
C      1  0.5033430000000  0.5160140000000  0.5439360000000 1.0
C      1  0.4471310000000  0.4825130000000  0.4188630000000 1.0
C      1  0.4659750000000  0.5655020000000  0.4282890000000 1.0
C      1  0.5390710000000  0.5643110000000  0.4405320000000 1.0
C      1  0.4423430000000  0.4937870000000  0.5258100000000 1.0
C      1  0.4693310000000  0.5094840000000  0.4485920000000 1.0
C      1  0.4229700000000  0.4556330000000  0.5494540000000 1.0
C      1  0.5818290000000  0.4474160000000  0.5052880000000 1.0
C      1  0.5447600000000  0.5141210000000  0.4551050000000 1.0
C      1  0.5076300000000  0.4439020000000  0.5731050000000 1.0
C      1  0.5787790000000  0.4756480000000  0.5211140000000 1.0
C      1  0.5295550000000  0.5051600000000  0.5307540000000 1.0
C      1  0.5747500000000  0.4890550000000  0.5778590000000 1.0
C      1  0.4535000000000  0.5012570000000  0.5836970000000 1.0
C      1  0.4562380000000  0.5317830000000  0.5762120000000 1.0
C      1  0.4923600000000  0.4210920000000  0.4388260000000 1.0
C      1  0.5485130000000  0.4274050000000  0.5380190000000 1.0
C      1  0.5626740000000  0.5793430000000  0.5138510000000 1.0
C      1  0.4232470000000  0.4991220000000  0.4248200000000 1.0
C      1  0.4108220000000  0.4939360000000  0.5197470000000 1.0
C      1  0.5030410000000  0.5159730000000  0.5750640000000 1.0
C      1  0.5791200000000  0.4867270000000  0.4728470000000 1.0
C      1  0.4988910000000  0.5063270000000  0.4615510000000 1.0
C      1  0.5054190000000  0.5850670000000  0.5505850000000 1.0
C      1  0.5902540000000  0.5156190000000  0.5788290000000 1.0
C      1  0.5097280000000  0.5650650000000  0.5707400000000 1.0
C      1  0.4849200000000  0.4890590000000  0.5791060000000 1.0
C      1  0.4608140000000  0.4083180000000  0.4790090000000 1.0
C      1  0.4655520000000  0.4686210000000  0.4661620000000 1.0
C      1  0.4435320000000  0.5710820000000  0.4513840000000 1.0
C      1  0.4481960000000  0.5379150000000  0.5234910000000 1.0
C      1  0.5478020000000  0.4666810000000  0.5126690000000 1.0
C      1  0.4644190000000  0.5867120000000  0.5120870000000 1.0
C      1  0.4079230000000  0.5391850000000  0.4847120000000 1.0
C      1  0.4766650000000  0.4444180000000  0.4833870000000 1.0
C      1  0.4779740000000  0.5880400000000  0.5399480000000 1.0
C      1  0.4630280000000  0.4429820000000  0.5435660000000 1.0
C      1  0.5199200000000  0.5071120000000  0.4382910000000 1.0
C      1  0.4483880000000  0.4557300000000  0.4398960000000 1.0
C      1  0.5728600000000  0.4341740000000  0.4592980000000 1.0
C      1  0.4532090000000  0.5152610000000  0.5466530000000 1.0
C      1  0.5432370000000  0.5416290000000  0.4253810000000 1.0
C      1  0.4278180000000  0.5429800000000  0.4572900000000 1.0
C      1  0.5863800000000  0.4753320000000  0.5496640000000 1.0
C      1  0.5073930000000  0.4900250000000  0.4902140000000 1.0
C      1  0.5829990000000  0.5595790000000  0.5086270000000 1.0
C      1  0.5336250000000  0.4436470000000  0.5047140000000 1.0
C      1  0.4868450000000  0.5432740000000  0.5797260000000 1.0
C      1  0.4891920000000  0.4181420000000  0.5264950000000 1.0
C      1  0.5144350000000  0.5302000000000  0.4139420000000 1.0
C      1  0.5784740000000  0.5182290000000  0.4574250000000 1.0
C      1  0.5073020000000  0.4501710000000  0.4924750000000 1.0
C      1  0.4809210000000  0.5084670000000  0.4977530000000 1.0
C      1  0.5060910000000  0.5733290000000  0.4419530000000 1.0
C      1  0.5068330000000  0.4249290000000  0.4136330000000 1.0
C      1  0.4403690000000  0.5220170000000  0.4359090000000 1.0
C      1  0.4387880000000  0.4194440000000  0.5024890000000 1.0
C      1  0.5350350000000  0.4806350000000  0.5496670000000 1.0
C      1  0.5580940000000  0.5277890000000  0.5143180000000 1.0
C      1  0.5801540000000  0.5407230000000  0.4804480000000 1.0
C      1  0.4136150000000  0.5104600000000  0.5472660000000 1.0
C      1  0.4002380000000  0.4941450000000  0.4381510000000 1.0
C      1  0.4021570000000  0.4646750000000  0.5280400000000 1.0
C      1  0.4772210000000  0.4416680000000  0.5728460000000 1.0
C      1  0.4335170000000  0.5242720000000  0.5011300000000 1.0
C      1  0.4314440000000  0.4775790000000  0.4849530000000 1.0
C      1  0.4311910000000  0.4858200000000  0.5631780000000 1.0
C      1  0.5334570000000  0.4386300000000  0.4189170000000 1.0
END
