TITL C-2778422-5617-685 0.00372178225659895 125000 -268.775073218188 0 0 48 (C1) n - 1
REM
REM in /home/nfs/bkarasulu/CARBON/AIRSS/Generating-Clusters/REBO/Only-C1/SD-CG/HFTN-CG
REM
REM
REM
REM
REM
REM ./C.cell (11c1c37f851c82e70ff6c80c92926a4b)
REM
REM compiler GCC version 9.2.1 20190827 (Red Hat 9.2.1-1)
REM options -cpp -mtune=generic -march=x86-64 -g -O0 -fpre-include=/usr/include/finclude/math-vector-fortran.h
REM seed -1512708903 -1269472877 209128615 1043058 546496113 110851512 -2011704477 1291363883 -1584931473 1483114945 -184796847 -887136384 -694375634 -237742814 -950231517 925965585 -426851148 1728741485 1263268429 707788643 489032861 2090353752 2045433381 2038848977 984683600 -1566404769 895925196 -651914714 677272724 -1822294235 -557407607 2092340846 1589037907
REM
CELL 1.54180   50.00000   50.00000   50.00000   90.00000   90.00000   90.00000
LATT -1
SFAC C  
C      1  0.4493800000000  0.5417470000000  0.4532470000000 1.0
C      1  0.4730680000000  0.5014850000000  0.4367430000000 1.0
C      1  0.5630930000000  0.5290880000000  0.4595800000000 1.0
C      1  0.4952570000000  0.5491820000000  0.4729060000000 1.0
C      1  0.4689390000000  0.5262170000000  0.5553720000000 1.0
C      1  0.5166980000000  0.4478800000000  0.4998060000000 1.0
C      1  0.5272500000000  0.4387070000000  0.4261530000000 1.0
C      1  0.5362630000000  0.5102690000000  0.4914280000000 1.0
C      1  0.4477400000000  0.4930690000000  0.5276640000000 1.0
C      1  0.4684290000000  0.4663020000000  0.5260660000000 1.0
C      1  0.4849450000000  0.5249720000000  0.5291420000000 1.0
C      1  0.4863160000000  0.5171510000000  0.4805410000000 1.0
C      1  0.4698410000000  0.4687530000000  0.4828550000000 1.0
C      1  0.4636180000000  0.5497260000000  0.4763070000000 1.0
C      1  0.4251630000000  0.5084860000000  0.5699400000000 1.0
C      1  0.5510750000000  0.4831320000000  0.4815490000000 1.0
C      1  0.5203880000000  0.5599760000000  0.4744030000000 1.0
C      1  0.4719250000000  0.5453190000000  0.5049810000000 1.0
C      1  0.5173470000000  0.4905050000000  0.5464590000000 1.0
C      1  0.5407690000000  0.5648930000000  0.4990110000000 1.0
C      1  0.5297560000000  0.4487420000000  0.4502330000000 1.0
C      1  0.4932400000000  0.4661790000000  0.5066390000000 1.0
C      1  0.5325650000000  0.5479900000000  0.5235420000000 1.0
C      1  0.4999060000000  0.3947590000000  0.4927480000000 1.0
C      1  0.5427760000000  0.5196810000000  0.5174880000000 1.0
C      1  0.5194360000000  0.4665190000000  0.5647320000000 1.0
C      1  0.5510000000000  0.5036090000000  0.4550490000000 1.0
C      1  0.5519580000000  0.5518080000000  0.4714870000000 1.0
C      1  0.4965180000000  0.4946660000000  0.5253470000000 1.0
C      1  0.5579000000000  0.4747990000000  0.5113300000000 1.0
C      1  0.4729850000000  0.4930190000000  0.4642010000000 1.0
C      1  0.5167000000000  0.5156100000000  0.4722500000000 1.0
C      1  0.4313350000000  0.4698030000000  0.5115170000000 1.0
C      1  0.5323030000000  0.4589450000000  0.4747170000000 1.0
C      1  0.5223580000000  0.5062370000000  0.4438930000000 1.0
C      1  0.5483600000000  0.4955670000000  0.5356600000000 1.0
C      1  0.5000960000000  0.5024470000000  0.4267230000000 1.0
C      1  0.5412810000000  0.4497670000000  0.5191380000000 1.0
C      1  0.5075370000000  0.4188990000000  0.4959560000000 1.0
C      1  0.4464180000000  0.5103450000000  0.5523990000000 1.0
C      1  0.4708910000000  0.4989280000000  0.5033180000000 1.0
C      1  0.5451630000000  0.4627160000000  0.5467360000000 1.0
C      1  0.4049950000000  0.5067230000000  0.5865820000000 1.0
C      1  0.4549200000000  0.5235060000000  0.4331060000000 1.0
C      1  0.4917320000000  0.5443750000000  0.5633890000000 1.0
C      1  0.4423280000000  0.4588950000000  0.4913480000000 1.0
C      1  0.5156450000000  0.5511330000000  0.5518730000000 1.0
C      1  0.5023930000000  0.5474720000000  0.5144430000000 1.0
END
