TITL C-2778430-5657-92 -0.00131528110756935 125000 -921.75038018512 0 0 158 (C1) n - 1
REM
REM in /home/nfs/bkarasulu/CARBON/AIRSS/Generating-Clusters/REBO/Only-C1/SD-CG/HFTN-CG
REM
REM
REM
REM
REM
REM ./C.cell (11c1c37f851c82e70ff6c80c92926a4b)
REM
REM compiler GCC version 9.2.1 20190827 (Red Hat 9.2.1-1)
REM options -cpp -mtune=generic -march=x86-64 -g -O0 -fpre-include=/usr/include/finclude/math-vector-fortran.h
REM seed 220752229 1052694875 -1717263805 -306706469 2077040674 -1329744940 -737145449 1321388810 786570530 -2090654167 335271256 2087067614 -782585629 1266345449 -20066616 -364652445 1942082657 1707456179 -1369664658 2119818503 870510320 -2006655122 -879790122 1387566594 273944405 -1009053025 -431089077 162557557 1761752242 -1895155780 1477927873 -1092526122 1555368169
REM
CELL 1.54180   50.00000   50.00000   50.00000   90.00000   90.00000   90.00000
LATT -1
SFAC C  
C      1  0.4709550000000  0.4328210000000  0.5168130000000 1.0
C      1  0.4774000000000  0.4827050000000  0.4633280000000 1.0
C      1  0.5641330000000  0.4314440000000  0.5384640000000 1.0
C      1  0.5993920000000  0.4695620000000  0.4874480000000 1.0
C      1  0.5338470000000  0.5327640000000  0.4114130000000 1.0
C      1  0.5051480000000  0.5805950000000  0.5185350000000 1.0
C      1  0.5036120000000  0.5624030000000  0.4710470000000 1.0
C      1  0.5071410000000  0.4727150000000  0.5682140000000 1.0
C      1  0.4286040000000  0.4326500000000  0.4810410000000 1.0
C      1  0.5303210000000  0.4300610000000  0.4306740000000 1.0
C      1  0.4576120000000  0.5671310000000  0.5174390000000 1.0
C      1  0.4392920000000  0.4224870000000  0.5070160000000 1.0
C      1  0.4867110000000  0.5112020000000  0.4369080000000 1.0
C      1  0.4201730000000  0.5708160000000  0.5341630000000 1.0
C      1  0.4646960000000  0.3978500000000  0.5473880000000 1.0
C      1  0.5247840000000  0.5259570000000  0.5892490000000 1.0
C      1  0.4686340000000  0.4674680000000  0.5593150000000 1.0
C      1  0.5577170000000  0.5969200000000  0.5004800000000 1.0
C      1  0.4292410000000  0.5243840000000  0.5655720000000 1.0
C      1  0.5966140000000  0.5282470000000  0.5019180000000 1.0
C      1  0.5147320000000  0.5302130000000  0.4332830000000 1.0
C      1  0.5878980000000  0.5351000000000  0.5565180000000 1.0
C      1  0.5751030000000  0.5771410000000  0.4905740000000 1.0
C      1  0.5514870000000  0.4486480000000  0.5649380000000 1.0
C      1  0.4568640000000  0.5379770000000  0.4903430000000 1.0
C      1  0.5441040000000  0.4723510000000  0.5853230000000 1.0
C      1  0.5144910000000  0.5017820000000  0.5241360000000 1.0
C      1  0.3945120000000  0.5317220000000  0.4860790000000 1.0
C      1  0.4572210000000  0.5367790000000  0.5765280000000 1.0
C      1  0.5685580000000  0.5029810000000  0.4887580000000 1.0
C      1  0.5273350000000  0.5264950000000  0.5062010000000 1.0
C      1  0.4840480000000  0.5966000000000  0.4647880000000 1.0
C      1  0.5159550000000  0.4288870000000  0.5128380000000 1.0
C      1  0.5543960000000  0.4987350000000  0.4115800000000 1.0
C      1  0.5793360000000  0.4852470000000  0.4306660000000 1.0
C      1  0.5511150000000  0.4206550000000  0.4560080000000 1.0
C      1  0.5054350000000  0.5100030000000  0.5541820000000 1.0
C      1  0.5700450000000  0.4280760000000  0.4774810000000 1.0
C      1  0.4024420000000  0.5294990000000  0.4604440000000 1.0
C      1  0.5594360000000  0.5390060000000  0.5577830000000 1.0
C      1  0.4309050000000  0.4676880000000  0.5720640000000 1.0
C      1  0.4477610000000  0.4324070000000  0.4600570000000 1.0
C      1  0.4124030000000  0.4568580000000  0.4812470000000 1.0
C      1  0.5045140000000  0.4717600000000  0.4523420000000 1.0
C      1  0.4918780000000  0.4409710000000  0.4923570000000 1.0
C      1  0.4582370000000  0.5176400000000  0.3920820000000 1.0
C      1  0.4747420000000  0.5660530000000  0.4886610000000 1.0
C      1  0.5980620000000  0.5464430000000  0.5309780000000 1.0
C      1  0.4923420000000  0.3982390000000  0.5559950000000 1.0
C      1  0.4403870000000  0.4924930000000  0.4780340000000 1.0
C      1  0.5785850000000  0.4541810000000  0.4176270000000 1.0
C      1  0.4658560000000  0.4384730000000  0.5769120000000 1.0
C      1  0.5651260000000  0.4679010000000  0.4526240000000 1.0
C      1  0.4620700000000  0.4641210000000  0.4159330000000 1.0
C      1  0.5278410000000  0.4979170000000  0.5750940000000 1.0
C      1  0.4801800000000  0.5998700000000  0.5188490000000 1.0
C      1  0.4381940000000  0.5821730000000  0.4858840000000 1.0
C      1  0.4626440000000  0.4704880000000  0.4914370000000 1.0
C      1  0.4199770000000  0.5039810000000  0.4530620000000 1.0
C      1  0.5086040000000  0.5894820000000  0.4874780000000 1.0
C      1  0.4190330000000  0.4866280000000  0.5268860000000 1.0
C      1  0.5305580000000  0.4635550000000  0.6092960000000 1.0
C      1  0.5351390000000  0.4571950000000  0.4486710000000 1.0
C      1  0.5032860000000  0.4655060000000  0.6119350000000 1.0
C      1  0.4014930000000  0.4727490000000  0.5013630000000 1.0
C      1  0.5363190000000  0.4177370000000  0.5453750000000 1.0
C      1  0.5581320000000  0.5352400000000  0.4636660000000 1.0
C      1  0.5019670000000  0.5306050000000  0.6047020000000 1.0
C      1  0.4947370000000  0.4716340000000  0.5030510000000 1.0
C      1  0.5664720000000  0.4302850000000  0.5094030000000 1.0
C      1  0.4282780000000  0.5420940000000  0.4444700000000 1.0
C      1  0.4324150000000  0.4425530000000  0.5555210000000 1.0
C      1  0.5654240000000  0.4776310000000  0.5085490000000 1.0
C      1  0.4752430000000  0.5327160000000  0.5276240000000 1.0
C      1  0.5229850000000  0.4413400000000  0.4754830000000 1.0
C      1  0.5382350000000  0.4774880000000  0.5278050000000 1.0
C      1  0.4758220000000  0.5363500000000  0.6019380000000 1.0
C      1  0.5107230000000  0.5597160000000  0.4419720000000 1.0
C      1  0.4834100000000  0.4448000000000  0.5416200000000 1.0
C      1  0.4698280000000  0.5810510000000  0.4448920000000 1.0
C      1  0.4759070000000  0.5384030000000  0.4105490000000 1.0
C      1  0.5369510000000  0.5476440000000  0.5754100000000 1.0
C      1  0.5609000000000  0.5582100000000  0.4388120000000 1.0
C      1  0.5480640000000  0.4855390000000  0.4734270000000 1.0
C      1  0.5054870000000  0.4144240000000  0.4659420000000 1.0
C      1  0.6056820000000  0.4771000000000  0.5426120000000 1.0
C      1  0.4386850000000  0.5180610000000  0.4952260000000 1.0
C      1  0.4502510000000  0.4930130000000  0.4073820000000 1.0
C      1  0.4609550000000  0.5887190000000  0.5385810000000 1.0
C      1  0.5815670000000  0.5599910000000  0.4646820000000 1.0
C      1  0.4134020000000  0.5392310000000  0.5342350000000 1.0
C      1  0.4140970000000  0.5260730000000  0.5053210000000 1.0
C      1  0.5075080000000  0.5344940000000  0.4844630000000 1.0
C      1  0.4803190000000  0.5057210000000  0.4882180000000 1.0
C      1  0.5975200000000  0.5302200000000  0.4679800000000 1.0
C      1  0.4440230000000  0.5682880000000  0.4576490000000 1.0
C      1  0.4999730000000  0.4392940000000  0.4430340000000 1.0
C      1  0.5186330000000  0.4566300000000  0.4123140000000 1.0
C      1  0.4491740000000  0.4170880000000  0.5633280000000 1.0
C      1  0.4618640000000  0.5402700000000  0.4415710000000 1.0
C      1  0.4344360000000  0.5580890000000  0.5625140000000 1.0
C      1  0.4471290000000  0.5420120000000  0.5287100000000 1.0
C      1  0.4643200000000  0.5738820000000  0.5636080000000 1.0
C      1  0.4905550000000  0.5633190000000  0.5647850000000 1.0
C      1  0.3890540000000  0.4969780000000  0.5204370000000 1.0
C      1  0.5227500000000  0.4903650000000  0.4056050000000 1.0
C      1  0.5558710000000  0.5303130000000  0.4952920000000 1.0
C      1  0.5282950000000  0.5832560000000  0.5402740000000 1.0
C      1  0.5208670000000  0.5691300000000  0.5645840000000 1.0
C      1  0.4240720000000  0.4723350000000  0.4560570000000 1.0
C      1  0.4838280000000  0.5225390000000  0.5652270000000 1.0
C      1  0.5016900000000  0.5507690000000  0.5348500000000 1.0
C      1  0.4859380000000  0.5669670000000  0.4254700000000 1.0
C      1  0.5523860000000  0.5084500000000  0.5314960000000 1.0
C      1  0.4768200000000  0.4369970000000  0.4264580000000 1.0
C      1  0.5171260000000  0.3972930000000  0.5389350000000 1.0
C      1  0.5228030000000  0.4779760000000  0.4910130000000 1.0
C      1  0.5355700000000  0.6042490000000  0.4839890000000 1.0
C      1  0.4570130000000  0.4872370000000  0.5392640000000 1.0
C      1  0.4436230000000  0.4537200000000  0.4410230000000 1.0
C      1  0.5109850000000  0.5026190000000  0.4768410000000 1.0
C      1  0.4737420000000  0.4237260000000  0.4688970000000 1.0
C      1  0.5218660000000  0.5009980000000  0.4476040000000 1.0
C      1  0.5375050000000  0.5738440000000  0.4348890000000 1.0
C      1  0.4990880000000  0.4744400000000  0.5352000000000 1.0
C      1  0.4352180000000  0.5141230000000  0.4275570000000 1.0
C      1  0.5287650000000  0.4481500000000  0.5319020000000 1.0
C      1  0.5840680000000  0.4522870000000  0.4702390000000 1.0
C      1  0.4950890000000  0.5102970000000  0.4049900000000 1.0
C      1  0.5977810000000  0.5040260000000  0.5496510000000 1.0
C      1  0.4859510000000  0.4001020000000  0.4904330000000 1.0
C      1  0.5846940000000  0.5153190000000  0.4415610000000 1.0
C      1  0.5800910000000  0.5112100000000  0.5257980000000 1.0
C      1  0.4484470000000  0.4701260000000  0.5936610000000 1.0
C      1  0.4215000000000  0.5814080000000  0.5084740000000 1.0
C      1  0.5527060000000  0.5076020000000  0.4503760000000 1.0
C      1  0.4335410000000  0.4445380000000  0.5274130000000 1.0
C      1  0.4625240000000  0.4002230000000  0.5151710000000 1.0
C      1  0.4777460000000  0.5323800000000  0.4673560000000 1.0
C      1  0.5514480000000  0.5949730000000  0.5286500000000 1.0
C      1  0.5635530000000  0.5306380000000  0.4196420000000 1.0
C      1  0.4601520000000  0.4955460000000  0.4403040000000 1.0
C      1  0.4658380000000  0.5990700000000  0.4912290000000 1.0
C      1  0.4440490000000  0.4704560000000  0.5154350000000 1.0
C      1  0.5453790000000  0.4530610000000  0.4962400000000 1.0
C      1  0.5202800000000  0.4442740000000  0.5704900000000 1.0
C      1  0.4749480000000  0.5056260000000  0.5183560000000 1.0
C      1  0.5107210000000  0.3993700000000  0.5102200000000 1.0
C      1  0.5003170000000  0.4268730000000  0.5599650000000 1.0
C      1  0.5318010000000  0.5350410000000  0.5378480000000 1.0
C      1  0.5745150000000  0.5525040000000  0.5083890000000 1.0
C      1  0.4912350000000  0.4763920000000  0.4082020000000 1.0
C      1  0.4812180000000  0.4728150000000  0.5901100000000 1.0
C      1  0.5987240000000  0.4979560000000  0.4787280000000 1.0
C      1  0.5950330000000  0.4671290000000  0.5179370000000 1.0
C      1  0.3852290000000  0.5214360000000  0.5323870000000 1.0
C      1  0.5498680000000  0.4650660000000  0.4142820000000 1.0
C      1  0.4289220000000  0.4959760000000  0.5554350000000 1.0
END
