TITL C-2778423-5760-979 -0.00256524808796997 125000 -708.765894157925 0 0 121 (C1) n - 1
REM
REM in /home/nfs/bkarasulu/CARBON/AIRSS/Generating-Clusters/REBO/Only-C1/SD-CG/HFTN-CG
REM
REM
REM
REM
REM
REM ./C.cell (11c1c37f851c82e70ff6c80c92926a4b)
REM
REM compiler GCC version 9.2.1 20190827 (Red Hat 9.2.1-1)
REM options -cpp -mtune=generic -march=x86-64 -g -O0 -fpre-include=/usr/include/finclude/math-vector-fortran.h
REM seed 15857431 -1774547571 -521271193 930827847 1846964092 1483728964 -1557979158 -932435820 -18832905 -1781737231 -1740418466 869115570 1522891747 1910902780 143287185 968077177 399340709 -484649690 458736629 830535104 -867378253 630323124 699222998 -1452492559 473529958 -1650871752 131103082 1684919567 1014779199 3756967 1899178128 501769217 1110755952
REM
CELL 1.54180   50.00000   50.00000   50.00000   90.00000   90.00000   90.00000
LATT -1
SFAC C  
C      1  0.5539380000000  0.4473670000000  0.4818960000000 1.0
C      1  0.5032200000000  0.4697180000000  0.4543990000000 1.0
C      1  0.5886940000000  0.4868650000000  0.4871060000000 1.0
C      1  0.4328000000000  0.4656870000000  0.4908930000000 1.0
C      1  0.5485490000000  0.5922940000000  0.4902280000000 1.0
C      1  0.5602100000000  0.5033780000000  0.4254820000000 1.0
C      1  0.5317930000000  0.5379100000000  0.5297900000000 1.0
C      1  0.4949020000000  0.4777510000000  0.5886360000000 1.0
C      1  0.5381050000000  0.5667480000000  0.5433850000000 1.0
C      1  0.5236050000000  0.5434470000000  0.5726380000000 1.0
C      1  0.3887600000000  0.5500280000000  0.5223330000000 1.0
C      1  0.5327500000000  0.4639600000000  0.4973340000000 1.0
C      1  0.4949590000000  0.5285130000000  0.5834700000000 1.0
C      1  0.4444710000000  0.5525020000000  0.5190030000000 1.0
C      1  0.4635300000000  0.5876370000000  0.5112500000000 1.0
C      1  0.4873340000000  0.5515600000000  0.5591520000000 1.0
C      1  0.5425420000000  0.5916270000000  0.5239330000000 1.0
C      1  0.4832820000000  0.5772340000000  0.5370520000000 1.0
C      1  0.4318630000000  0.5481250000000  0.4884630000000 1.0
C      1  0.4618470000000  0.4610210000000  0.4252990000000 1.0
C      1  0.5253470000000  0.5056080000000  0.5288130000000 1.0
C      1  0.5432830000000  0.4739640000000  0.4216880000000 1.0
C      1  0.4644990000000  0.5138550000000  0.5781800000000 1.0
C      1  0.4707970000000  0.5569370000000  0.4552950000000 1.0
C      1  0.4334330000000  0.4380180000000  0.5107450000000 1.0
C      1  0.4689010000000  0.5290300000000  0.4703760000000 1.0
C      1  0.4534470000000  0.4286660000000  0.5303500000000 1.0
C      1  0.4508590000000  0.4669560000000  0.5645430000000 1.0
C      1  0.4638900000000  0.3997330000000  0.5241300000000 1.0
C      1  0.5510980000000  0.4954940000000  0.4544250000000 1.0
C      1  0.5658900000000  0.5262650000000  0.5470400000000 1.0
C      1  0.4940180000000  0.6015890000000  0.5072810000000 1.0
C      1  0.5554330000000  0.4133490000000  0.5491920000000 1.0
C      1  0.5214510000000  0.4103480000000  0.4824030000000 1.0
C      1  0.5128610000000  0.4718050000000  0.5457570000000 1.0
C      1  0.4891250000000  0.5081780000000  0.4109430000000 1.0
C      1  0.5241840000000  0.6113950000000  0.5032190000000 1.0
C      1  0.5216660000000  0.4087260000000  0.5138010000000 1.0
C      1  0.5641010000000  0.5455530000000  0.5222660000000 1.0
C      1  0.4271140000000  0.4786110000000  0.5431450000000 1.0
C      1  0.5815070000000  0.5701050000000  0.5196940000000 1.0
C      1  0.5547700000000  0.5370490000000  0.4274600000000 1.0
C      1  0.4934960000000  0.5896980000000  0.4545770000000 1.0
C      1  0.5524050000000  0.4558890000000  0.4490860000000 1.0
C      1  0.5646240000000  0.4745100000000  0.5411020000000 1.0
C      1  0.5114440000000  0.5015490000000  0.5905880000000 1.0
C      1  0.4848510000000  0.5247100000000  0.5066510000000 1.0
C      1  0.3964700000000  0.4713080000000  0.5065220000000 1.0
C      1  0.5317320000000  0.5128850000000  0.4986940000000 1.0
C      1  0.4218590000000  0.4517090000000  0.4625090000000 1.0
C      1  0.4671530000000  0.4830940000000  0.5816860000000 1.0
C      1  0.5801240000000  0.5032530000000  0.5407170000000 1.0
C      1  0.5806110000000  0.5352600000000  0.4738480000000 1.0
C      1  0.5108660000000  0.5945820000000  0.5361670000000 1.0
C      1  0.5376740000000  0.4497420000000  0.5787610000000 1.0
C      1  0.4222950000000  0.4809340000000  0.4530390000000 1.0
C      1  0.4875610000000  0.4564680000000  0.4082030000000 1.0
C      1  0.4812460000000  0.4412990000000  0.5213160000000 1.0
C      1  0.5371230000000  0.4737470000000  0.5263070000000 1.0
C      1  0.4204710000000  0.5086660000000  0.5275790000000 1.0
C      1  0.4561680000000  0.5146190000000  0.4166650000000 1.0
C      1  0.5449290000000  0.5254070000000  0.5666230000000 1.0
C      1  0.5010320000000  0.4359060000000  0.4541310000000 1.0
C      1  0.4810970000000  0.4708310000000  0.5247700000000 1.0
C      1  0.4714460000000  0.4249730000000  0.4667730000000 1.0
C      1  0.5187210000000  0.4527430000000  0.4102690000000 1.0
C      1  0.5001890000000  0.5644740000000  0.4391790000000 1.0
C      1  0.4447110000000  0.5147740000000  0.5506740000000 1.0
C      1  0.4450300000000  0.4869180000000  0.4298640000000 1.0
C      1  0.4780970000000  0.5210580000000  0.5482740000000 1.0
C      1  0.4962870000000  0.4810680000000  0.4269920000000 1.0
C      1  0.4973360000000  0.5025300000000  0.4620480000000 1.0
C      1  0.5213470000000  0.4987290000000  0.4174170000000 1.0
C      1  0.4077540000000  0.4966960000000  0.4988210000000 1.0
C      1  0.5073600000000  0.5253720000000  0.4833900000000 1.0
C      1  0.5066870000000  0.5489340000000  0.5154080000000 1.0
C      1  0.4156140000000  0.5377800000000  0.5165650000000 1.0
C      1  0.4894280000000  0.5808950000000  0.4821340000000 1.0
C      1  0.5771810000000  0.5893350000000  0.5041400000000 1.0
C      1  0.5070410000000  0.4200160000000  0.5589470000000 1.0
C      1  0.5762230000000  0.4679630000000  0.4703110000000 1.0
C      1  0.4469850000000  0.5390030000000  0.4386900000000 1.0
C      1  0.4399030000000  0.4293090000000  0.4783270000000 1.0
C      1  0.4933190000000  0.4268790000000  0.4922300000000 1.0
C      1  0.4829780000000  0.4290060000000  0.5719100000000 1.0
C      1  0.5333590000000  0.5606970000000  0.4401940000000 1.0
C      1  0.4553870000000  0.4900060000000  0.5321860000000 1.0
C      1  0.4954680000000  0.4987790000000  0.5394170000000 1.0
C      1  0.4600910000000  0.4407940000000  0.5590370000000 1.0
C      1  0.5042060000000  0.4587190000000  0.4866500000000 1.0
C      1  0.4797750000000  0.5390850000000  0.4193430000000 1.0
C      1  0.4520320000000  0.5073910000000  0.4554710000000 1.0
C      1  0.5511390000000  0.4187810000000  0.4894300000000 1.0
C      1  0.5266860000000  0.5215380000000  0.4364140000000 1.0
C      1  0.5419250000000  0.4890440000000  0.4816970000000 1.0
C      1  0.4609310000000  0.4508430000000  0.4520070000000 1.0
C      1  0.5105780000000  0.4605710000000  0.5717140000000 1.0
C      1  0.4993730000000  0.5312660000000  0.4446520000000 1.0
C      1  0.5036640000000  0.4209880000000  0.5308370000000 1.0
C      1  0.5442350000000  0.5248760000000  0.4637460000000 1.0
C      1  0.4819040000000  0.3979910000000  0.5064230000000 1.0
C      1  0.5123940000000  0.5589780000000  0.4846360000000 1.0
C      1  0.5352800000000  0.4229190000000  0.5673740000000 1.0
C      1  0.4285350000000  0.5299720000000  0.4656550000000 1.0
C      1  0.4579880000000  0.5681210000000  0.4848600000000 1.0
C      1  0.5395290000000  0.5699840000000  0.4723260000000 1.0
C      1  0.4731340000000  0.5505070000000  0.5218890000000 1.0
C      1  0.5844640000000  0.4850300000000  0.5150390000000 1.0
C      1  0.4558020000000  0.4703640000000  0.4721380000000 1.0
C      1  0.5955300000000  0.5124820000000  0.4757750000000 1.0
C      1  0.5259250000000  0.4416850000000  0.4372420000000 1.0
C      1  0.4723540000000  0.4993030000000  0.5070560000000 1.0
C      1  0.4800700000000  0.4826890000000  0.4835510000000 1.0
C      1  0.4127980000000  0.4579410000000  0.5244830000000 1.0
C      1  0.5384870000000  0.4996340000000  0.5786790000000 1.0
C      1  0.5518670000000  0.4746490000000  0.5707870000000 1.0
C      1  0.5516620000000  0.4104780000000  0.5212970000000 1.0
C      1  0.5647780000000  0.5558830000000  0.4540510000000 1.0
C      1  0.5553640000000  0.5342790000000  0.4946400000000 1.0
C      1  0.4162870000000  0.5013070000000  0.4721800000000 1.0
C      1  0.5133090000000  0.5732980000000  0.5627310000000 1.0
END
