TITL C-2778423-5760-31 0.00129716273699297 125000 -423.020210490622 0 0 74 (C1) n - 1
REM
REM in /home/nfs/bkarasulu/CARBON/AIRSS/Generating-Clusters/REBO/Only-C1/SD-CG/HFTN-CG
REM
REM
REM
REM
REM
REM ./C.cell (11c1c37f851c82e70ff6c80c92926a4b)
REM
REM compiler GCC version 9.2.1 20190827 (Red Hat 9.2.1-1)
REM options -cpp -mtune=generic -march=x86-64 -g -O0 -fpre-include=/usr/include/finclude/math-vector-fortran.h
REM seed 679185827 -1134132133 -1076802725 999134966 -934547184 -1542484372 1638257095 -1846843329 -261750915 699361981 29951241 200364349 -323612311 -1759777558 1830631796 -660562752 714258582 1547262681 1440727309 -1551366051 2037133721 -1537359681 -87633151 703121263 -1011742678 -1778317016 1269261270 47487923 1267275189 -277158088 -910351598 1597377641 -1925276010
REM
CELL 1.54180   50.00000   50.00000   50.00000   90.00000   90.00000   90.00000
LATT -1
SFAC C  
C      1  0.5224460000000  0.4725840000000  0.5393950000000 1.0
C      1  0.4868910000000  0.4678670000000  0.5760680000000 1.0
C      1  0.4417820000000  0.4647070000000  0.4637690000000 1.0
C      1  0.5217020000000  0.5618240000000  0.5457630000000 1.0
C      1  0.5494050000000  0.4690760000000  0.5241290000000 1.0
C      1  0.5150280000000  0.4720270000000  0.5717330000000 1.0
C      1  0.4735500000000  0.4459310000000  0.5610540000000 1.0
C      1  0.4505280000000  0.4848330000000  0.5518790000000 1.0
C      1  0.5526460000000  0.4899670000000  0.5019610000000 1.0
C      1  0.5031840000000  0.5822500000000  0.4958340000000 1.0
C      1  0.4852910000000  0.5315610000000  0.5145870000000 1.0
C      1  0.4895700000000  0.5337840000000  0.5936430000000 1.0
C      1  0.4565720000000  0.4484250000000  0.4874350000000 1.0
C      1  0.4796400000000  0.5274720000000  0.4292790000000 1.0
C      1  0.4793820000000  0.5589000000000  0.4739060000000 1.0
C      1  0.4685940000000  0.5544200000000  0.5004080000000 1.0
C      1  0.5099610000000  0.5236250000000  0.4301280000000 1.0
C      1  0.5227720000000  0.4578740000000  0.4393500000000 1.0
C      1  0.4841180000000  0.5090250000000  0.5360310000000 1.0
C      1  0.5637210000000  0.5261010000000  0.4890500000000 1.0
C      1  0.4693850000000  0.4848900000000  0.5233330000000 1.0
C      1  0.4688940000000  0.4911670000000  0.5750910000000 1.0
C      1  0.5306740000000  0.4351140000000  0.5281600000000 1.0
C      1  0.5728510000000  0.4769650000000  0.4786700000000 1.0
C      1  0.4876840000000  0.5580570000000  0.5496470000000 1.0
C      1  0.5642080000000  0.4969310000000  0.5485700000000 1.0
C      1  0.5275900000000  0.5267010000000  0.5634340000000 1.0
C      1  0.5372470000000  0.4250630000000  0.5011020000000 1.0
C      1  0.4929770000000  0.4569200000000  0.4561080000000 1.0
C      1  0.4594780000000  0.4881650000000  0.4907630000000 1.0
C      1  0.5121430000000  0.5642010000000  0.4704880000000 1.0
C      1  0.4522420000000  0.4539590000000  0.5416840000000 1.0
C      1  0.4487050000000  0.5198190000000  0.4416880000000 1.0
C      1  0.4949290000000  0.4499230000000  0.4228210000000 1.0
C      1  0.4889850000000  0.4400300000000  0.4812230000000 1.0
C      1  0.5584340000000  0.4467860000000  0.4858040000000 1.0
C      1  0.4451750000000  0.5209990000000  0.4731580000000 1.0
C      1  0.5592640000000  0.5170560000000  0.5215590000000 1.0
C      1  0.5416450000000  0.5461940000000  0.4725240000000 1.0
C      1  0.5117490000000  0.4591820000000  0.5128310000000 1.0
C      1  0.5238250000000  0.5252240000000  0.4886570000000 1.0
C      1  0.5730700000000  0.4697460000000  0.5416420000000 1.0
C      1  0.5102140000000  0.5026250000000  0.5471710000000 1.0
C      1  0.4276220000000  0.5355540000000  0.4881380000000 1.0
C      1  0.4855320000000  0.4768340000000  0.4110210000000 1.0
C      1  0.4677810000000  0.5462580000000  0.4522290000000 1.0
C      1  0.4679110000000  0.5341910000000  0.5504790000000 1.0
C      1  0.4691390000000  0.4882030000000  0.4305890000000 1.0
C      1  0.5154150000000  0.4957530000000  0.4492140000000 1.0
C      1  0.4338390000000  0.5040680000000  0.5325500000000 1.0
C      1  0.5005640000000  0.5105520000000  0.4732840000000 1.0
C      1  0.4794520000000  0.4857060000000  0.4632180000000 1.0
C      1  0.5166240000000  0.4829630000000  0.4176330000000 1.0
C      1  0.5779950000000  0.5061050000000  0.4756100000000 1.0
C      1  0.4320400000000  0.4860130000000  0.5095120000000 1.0
C      1  0.5090740000000  0.5499860000000  0.5751440000000 1.0
C      1  0.4420190000000  0.4570780000000  0.5146610000000 1.0
C      1  0.5387310000000  0.4989540000000  0.4737520000000 1.0
C      1  0.4428630000000  0.4865930000000  0.4474040000000 1.0
C      1  0.5238660000000  0.5481950000000  0.4437180000000 1.0
C      1  0.5157790000000  0.5381780000000  0.5141390000000 1.0
C      1  0.4721280000000  0.5187540000000  0.5782650000000 1.0
C      1  0.5385540000000  0.5079700000000  0.4196760000000 1.0
C      1  0.5011260000000  0.5678850000000  0.5198750000000 1.0
C      1  0.4737670000000  0.5170540000000  0.4873330000000 1.0
C      1  0.5540690000000  0.5044800000000  0.4438950000000 1.0
C      1  0.4419890000000  0.5314220000000  0.5339490000000 1.0
C      1  0.5135250000000  0.4209810000000  0.4865380000000 1.0
C      1  0.5270790000000  0.4608260000000  0.4871110000000 1.0
C      1  0.5427680000000  0.4617520000000  0.4598790000000 1.0
C      1  0.4813440000000  0.4597400000000  0.5082180000000 1.0
C      1  0.4412950000000  0.5476900000000  0.5100690000000 1.0
C      1  0.5386000000000  0.4963450000000  0.5670140000000 1.0
C      1  0.5393610000000  0.5359430000000  0.5343570000000 1.0
END
