TITL C-2778425-5191-30 0.00611849957713481 125000 -433.012188487166 0 0 74 (C1) n - 1
REM
REM in /home/nfs/bkarasulu/CARBON/AIRSS/Generating-Clusters/REBO/Only-C1/SD-CG/HFTN-CG
REM
REM
REM
REM
REM
REM ./C.cell (11c1c37f851c82e70ff6c80c92926a4b)
REM
REM compiler GCC version 9.2.1 20190827 (Red Hat 9.2.1-1)
REM options -cpp -mtune=generic -march=x86-64 -g -O0 -fpre-include=/usr/include/finclude/math-vector-fortran.h
REM seed 1940650254 1405948935 -4043224 1662682188 -631652344 176909712 -864171054 -143069461 -631558301 170859169 -684927750 717891545 -1874885866 68622036 1880200243 -821313138 1590074845 736363833 -170321166 1066621871 1686769249 -3249892 -1088919175 400378099 755253964 840173210 2127041149 1916123941 -1727327875 -1860447639 882961274 -1208243382 878198752
REM
CELL 1.54180   50.00000   50.00000   50.00000   90.00000   90.00000   90.00000
LATT -1
SFAC C  
C      1  0.4894580000000  0.5794360000000  0.5061880000000 1.0
C      1  0.5000690000000  0.5014820000000  0.5833500000000 1.0
C      1  0.4760500000000  0.4416540000000  0.4673580000000 1.0
C      1  0.4853570000000  0.4510400000000  0.4973520000000 1.0
C      1  0.5038690000000  0.4350450000000  0.5531430000000 1.0
C      1  0.4964250000000  0.5029130000000  0.4397320000000 1.0
C      1  0.4678700000000  0.4976470000000  0.4293330000000 1.0
C      1  0.5161550000000  0.4796140000000  0.5755140000000 1.0
C      1  0.5343840000000  0.4856610000000  0.5531860000000 1.0
C      1  0.5509030000000  0.5305690000000  0.4978540000000 1.0
C      1  0.5251130000000  0.4813220000000  0.4813490000000 1.0
C      1  0.4493530000000  0.4489890000000  0.4639130000000 1.0
C      1  0.5229390000000  0.5624080000000  0.4515280000000 1.0
C      1  0.4371750000000  0.5539220000000  0.5535210000000 1.0
C      1  0.5230410000000  0.5446060000000  0.5115600000000 1.0
C      1  0.5073810000000  0.4526410000000  0.5741780000000 1.0
C      1  0.4630440000000  0.4866460000000  0.5320910000000 1.0
C      1  0.5008680000000  0.4863060000000  0.4633600000000 1.0
C      1  0.5521880000000  0.5048960000000  0.4330400000000 1.0
C      1  0.4659030000000  0.4462030000000  0.5481000000000 1.0
C      1  0.4669850000000  0.5253490000000  0.4719350000000 1.0
C      1  0.3993610000000  0.4819270000000  0.4944000000000 1.0
C      1  0.4854030000000  0.4356620000000  0.5241650000000 1.0
C      1  0.4731090000000  0.5072120000000  0.4994510000000 1.0
C      1  0.5600310000000  0.4234670000000  0.4552350000000 1.0
C      1  0.5628540000000  0.5310430000000  0.5269200000000 1.0
C      1  0.5866590000000  0.4884440000000  0.4977970000000 1.0
C      1  0.5563400000000  0.4409880000000  0.4756040000000 1.0
C      1  0.4835380000000  0.5377170000000  0.5526570000000 1.0
C      1  0.4754670000000  0.4791910000000  0.4806410000000 1.0
C      1  0.4506640000000  0.5608800000000  0.4795110000000 1.0
C      1  0.5581660000000  0.4564900000000  0.5206850000000 1.0
C      1  0.5609610000000  0.5353040000000  0.4701190000000 1.0
C      1  0.4488620000000  0.5055510000000  0.4519470000000 1.0
C      1  0.4432850000000  0.4800250000000  0.4695790000000 1.0
C      1  0.4329630000000  0.5512900000000  0.5138950000000 1.0
C      1  0.5557960000000  0.4335920000000  0.5033730000000 1.0
C      1  0.5072550000000  0.5381580000000  0.4391190000000 1.0
C      1  0.5112780000000  0.4687430000000  0.5079670000000 1.0
C      1  0.4634170000000  0.5661850000000  0.5105970000000 1.0
C      1  0.4792770000000  0.5150020000000  0.5695830000000 1.0
C      1  0.4579650000000  0.4633930000000  0.5640420000000 1.0
C      1  0.5670430000000  0.5110260000000  0.4561190000000 1.0
C      1  0.5748450000000  0.4799490000000  0.5222910000000 1.0
C      1  0.5232950000000  0.5762200000000  0.5016600000000 1.0
C      1  0.4249590000000  0.4873050000000  0.4925160000000 1.0
C      1  0.5033700000000  0.5733450000000  0.4756120000000 1.0
C      1  0.5511160000000  0.4690620000000  0.4719200000000 1.0
C      1  0.4210550000000  0.5391310000000  0.4951890000000 1.0
C      1  0.4625550000000  0.5532270000000  0.5407340000000 1.0
C      1  0.4919990000000  0.5432450000000  0.4673080000000 1.0
C      1  0.4798670000000  0.4704700000000  0.4233210000000 1.0
C      1  0.5726920000000  0.4882000000000  0.4728310000000 1.0
C      1  0.5323050000000  0.4638660000000  0.5299340000000 1.0
C      1  0.5105370000000  0.5758260000000  0.5327170000000 1.0
C      1  0.5279780000000  0.5074880000000  0.4982020000000 1.0
C      1  0.5363250000000  0.5248130000000  0.5460360000000 1.0
C      1  0.4924660000000  0.4510190000000  0.4465970000000 1.0
C      1  0.4211680000000  0.5316250000000  0.5518490000000 1.0
C      1  0.5223140000000  0.5149240000000  0.4234890000000 1.0
C      1  0.4419020000000  0.5017970000000  0.5124750000000 1.0
C      1  0.4354350000000  0.5332300000000  0.4666570000000 1.0
C      1  0.4325900000000  0.5084360000000  0.5434770000000 1.0
C      1  0.5615570000000  0.5010480000000  0.5410220000000 1.0
C      1  0.5370870000000  0.4143290000000  0.5132390000000 1.0
C      1  0.5009480000000  0.5264340000000  0.4939530000000 1.0
C      1  0.5317450000000  0.4825520000000  0.4209290000000 1.0
C      1  0.5119970000000  0.4630280000000  0.4232120000000 1.0
C      1  0.4919080000000  0.4905210000000  0.5225230000000 1.0
C      1  0.5494510000000  0.5574910000000  0.4567650000000 1.0
C      1  0.4562310000000  0.4960170000000  0.5623910000000 1.0
C      1  0.5139020000000  0.4180840000000  0.5281030000000 1.0
C      1  0.5203160000000  0.5019730000000  0.5282080000000 1.0
C      1  0.5118650000000  0.5457040000000  0.5438470000000 1.0
END
