TITL C-2778423-5760-722 0.0432918388087397 125000 -802.387305195402 0 0 139 (C1) n - 1
REM
REM in /home/nfs/bkarasulu/CARBON/AIRSS/Generating-Clusters/REBO/Only-C1/SD-CG/HFTN-CG
REM
REM
REM
REM
REM
REM ./C.cell (11c1c37f851c82e70ff6c80c92926a4b)
REM
REM compiler GCC version 9.2.1 20190827 (Red Hat 9.2.1-1)
REM options -cpp -mtune=generic -march=x86-64 -g -O0 -fpre-include=/usr/include/finclude/math-vector-fortran.h
REM seed 963274952 890755181 -352197013 -1820932412 -1793749168 -1802580659 -126704803 -1305538616 1746712433 -470377712 1826371099 -1180737037 2115393483 1213873034 1447209283 1796131897 261825926 -1537032700 -68724152 1759537061 -1647542600 -1176000841 -1454993102 -850297171 1471649295 -1845939751 -1385569311 -1855011527 -198113048 2020732808 1007874870 -413479887 -1115511876
REM
CELL 1.54180   50.00000   50.00000   50.00000   90.00000   90.00000   90.00000
LATT -1
SFAC C  
C      1  0.4723820000000  0.4462000000000  0.5086090000000 1.0
C      1  0.6038540000000  0.5213060000000  0.4737410000000 1.0
C      1  0.5133140000000  0.5379260000000  0.4975380000000 1.0
C      1  0.4857020000000  0.5288190000000  0.5364000000000 1.0
C      1  0.5839090000000  0.5162800000000  0.5170120000000 1.0
C      1  0.6086790000000  0.4949610000000  0.4657130000000 1.0
C      1  0.4634360000000  0.5853700000000  0.5089070000000 1.0
C      1  0.5405860000000  0.5444870000000  0.5141340000000 1.0
C      1  0.4195720000000  0.4752760000000  0.4493480000000 1.0
C      1  0.5362760000000  0.5567430000000  0.4764890000000 1.0
C      1  0.4700100000000  0.5462910000000  0.5584830000000 1.0
C      1  0.4953440000000  0.5157030000000  0.3983190000000 1.0
C      1  0.5590100000000  0.4289700000000  0.5581650000000 1.0
C      1  0.4345490000000  0.5266010000000  0.4256290000000 1.0
C      1  0.5454180000000  0.5476370000000  0.5383470000000 1.0
C      1  0.5148990000000  0.4679460000000  0.4833640000000 1.0
C      1  0.4760960000000  0.4284930000000  0.4578740000000 1.0
C      1  0.5111730000000  0.4739330000000  0.4514800000000 1.0
C      1  0.4153690000000  0.5036500000000  0.4679960000000 1.0
C      1  0.4824660000000  0.5471080000000  0.4011740000000 1.0
C      1  0.5344340000000  0.4692160000000  0.5507120000000 1.0
C      1  0.4164550000000  0.4324630000000  0.4779020000000 1.0
C      1  0.5041620000000  0.4849590000000  0.5941350000000 1.0
C      1  0.5420330000000  0.4522600000000  0.5254270000000 1.0
C      1  0.4213920000000  0.4821400000000  0.4193480000000 1.0
C      1  0.5586450000000  0.5122160000000  0.4992980000000 1.0
C      1  0.5215560000000  0.5058390000000  0.5419860000000 1.0
C      1  0.4069020000000  0.4809450000000  0.4884450000000 1.0
C      1  0.5330720000000  0.4988350000000  0.5140850000000 1.0
C      1  0.4569710000000  0.4527100000000  0.5443790000000 1.0
C      1  0.4524190000000  0.5493070000000  0.4956680000000 1.0
C      1  0.5531910000000  0.5028980000000  0.4196730000000 1.0
C      1  0.4746250000000  0.4207480000000  0.4904040000000 1.0
C      1  0.4745370000000  0.6093990000000  0.5275280000000 1.0
C      1  0.5033020000000  0.6000830000000  0.4705710000000 1.0
C      1  0.4419800000000  0.5593610000000  0.5435900000000 1.0
C      1  0.4434520000000  0.5002950000000  0.5249760000000 1.0
C      1  0.5114030000000  0.5770340000000  0.4900260000000 1.0
C      1  0.4542060000000  0.4622980000000  0.5950310000000 1.0
C      1  0.5236140000000  0.4451370000000  0.4270330000000 1.0
C      1  0.5148680000000  0.5719430000000  0.5465630000000 1.0
C      1  0.4642200000000  0.4840540000000  0.5420890000000 1.0
C      1  0.5688960000000  0.5254240000000  0.5618300000000 1.0
C      1  0.4537330000000  0.4385760000000  0.4154020000000 1.0
C      1  0.5253440000000  0.4323350000000  0.5160280000000 1.0
C      1  0.5032020000000  0.5222670000000  0.4497690000000 1.0
C      1  0.4391550000000  0.4414100000000  0.5205220000000 1.0
C      1  0.4348450000000  0.5813720000000  0.4957040000000 1.0
C      1  0.5864720000000  0.5407310000000  0.5495640000000 1.0
C      1  0.4716920000000  0.4406710000000  0.5896030000000 1.0
C      1  0.5650730000000  0.4326140000000  0.4993290000000 1.0
C      1  0.4171930000000  0.4527890000000  0.5404840000000 1.0
C      1  0.5209100000000  0.5032760000000  0.4094780000000 1.0
C      1  0.5920920000000  0.5430480000000  0.4971140000000 1.0
C      1  0.4985830000000  0.5175300000000  0.4810860000000 1.0
C      1  0.4372780000000  0.5028250000000  0.4110140000000 1.0
C      1  0.5069010000000  0.4912560000000  0.5001510000000 1.0
C      1  0.5134710000000  0.5336700000000  0.5875690000000 1.0
C      1  0.5506850000000  0.5787780000000  0.4966170000000 1.0
C      1  0.5384300000000  0.4095150000000  0.5564090000000 1.0
C      1  0.5013680000000  0.4390690000000  0.5856100000000 1.0
C      1  0.5327040000000  0.5254340000000  0.4332360000000 1.0
C      1  0.5643490000000  0.4751290000000  0.4441980000000 1.0
C      1  0.4519240000000  0.4366970000000  0.4430650000000 1.0
C      1  0.4468700000000  0.4918030000000  0.5828040000000 1.0
C      1  0.4786390000000  0.4854380000000  0.5723600000000 1.0
C      1  0.5442160000000  0.4705360000000  0.4195560000000 1.0
C      1  0.4935980000000  0.5529640000000  0.4386240000000 1.0
C      1  0.5512470000000  0.4159280000000  0.4880940000000 1.0
C      1  0.5170230000000  0.4147740000000  0.5372510000000 1.0
C      1  0.4566420000000  0.5845100000000  0.4697420000000 1.0
C      1  0.5763160000000  0.4837250000000  0.5679800000000 1.0
C      1  0.4120930000000  0.4818760000000  0.5412030000000 1.0
C      1  0.4110350000000  0.5372530000000  0.5097120000000 1.0
C      1  0.4133710000000  0.5145620000000  0.5304750000000 1.0
C      1  0.5277940000000  0.4108510000000  0.4672480000000 1.0
C      1  0.5022090000000  0.5500050000000  0.5235550000000 1.0
C      1  0.4750790000000  0.6053500000000  0.4701510000000 1.0
C      1  0.5986870000000  0.5515530000000  0.5279430000000 1.0
C      1  0.4973840000000  0.4057150000000  0.4716570000000 1.0
C      1  0.5550940000000  0.5315940000000  0.4765460000000 1.0
C      1  0.5311060000000  0.4781970000000  0.5974090000000 1.0
C      1  0.5755640000000  0.4614770000000  0.5030080000000 1.0
C      1  0.5746260000000  0.5660400000000  0.4821050000000 1.0
C      1  0.5294990000000  0.5831570000000  0.5181880000000 1.0
C      1  0.4738240000000  0.5221480000000  0.4227450000000 1.0
C      1  0.5163060000000  0.5969130000000  0.4455350000000 1.0
C      1  0.4720880000000  0.5559130000000  0.4622160000000 1.0
C      1  0.4592290000000  0.5298120000000  0.4488700000000 1.0
C      1  0.5336270000000  0.4192890000000  0.4381450000000 1.0
C      1  0.4491900000000  0.5334260000000  0.5208440000000 1.0
C      1  0.5295770000000  0.5313780000000  0.5583960000000 1.0
C      1  0.4392160000000  0.5632460000000  0.4408960000000 1.0
C      1  0.5423800000000  0.4755090000000  0.4651680000000 1.0
C      1  0.4904590000000  0.4152680000000  0.5478950000000 1.0
C      1  0.4663710000000  0.5145770000000  0.5967690000000 1.0
C      1  0.4907210000000  0.5815940000000  0.5267690000000 1.0
C      1  0.5169570000000  0.4364690000000  0.4874300000000 1.0
C      1  0.4281590000000  0.4455740000000  0.4559020000000 1.0
C      1  0.4904310000000  0.4544120000000  0.5363020000000 1.0
C      1  0.5029660000000  0.4827240000000  0.5505390000000 1.0
C      1  0.5817310000000  0.4679140000000  0.5319070000000 1.0
C      1  0.4991310000000  0.5551260000000  0.5687540000000 1.0
C      1  0.4485570000000  0.5115670000000  0.4694290000000 1.0
C      1  0.5185760000000  0.5705430000000  0.4358010000000 1.0
C      1  0.4843330000000  0.4695150000000  0.4020240000000 1.0
C      1  0.4707040000000  0.4304570000000  0.5614360000000 1.0
C      1  0.4152230000000  0.5323050000000  0.4817510000000 1.0
C      1  0.5512650000000  0.4984820000000  0.5522150000000 1.0
C      1  0.5460000000000  0.5233620000000  0.5865910000000 1.0
C      1  0.5883380000000  0.4968840000000  0.5380060000000 1.0
C      1  0.5534760000000  0.4930020000000  0.5914270000000 1.0
C      1  0.4493370000000  0.4036430000000  0.4956630000000 1.0
C      1  0.4461820000000  0.4786940000000  0.4690360000000 1.0
C      1  0.5371880000000  0.3880910000000  0.5731540000000 1.0
C      1  0.4563760000000  0.4716830000000  0.4991030000000 1.0
C      1  0.5736640000000  0.4521780000000  0.5559620000000 1.0
C      1  0.5536090000000  0.4807170000000  0.4937990000000 1.0
C      1  0.4426240000000  0.5276920000000  0.5540900000000 1.0
C      1  0.5417710000000  0.5546460000000  0.4367080000000 1.0
C      1  0.4221970000000  0.5626870000000  0.5181560000000 1.0
C      1  0.5119640000000  0.4460950000000  0.5615350000000 1.0
C      1  0.4829650000000  0.5642090000000  0.4917410000000 1.0
C      1  0.4633310000000  0.5607160000000  0.4238430000000 1.0
C      1  0.4698260000000  0.5020530000000  0.4909270000000 1.0
C      1  0.4970310000000  0.4949110000000  0.4403820000000 1.0
C      1  0.4249520000000  0.4772310000000  0.5098570000000 1.0
C      1  0.4673830000000  0.4960530000000  0.4020580000000 1.0
C      1  0.5995660000000  0.4648850000000  0.4871220000000 1.0
C      1  0.4327140000000  0.5527210000000  0.4679570000000 1.0
C      1  0.5804080000000  0.5333630000000  0.4601280000000 1.0
C      1  0.4285640000000  0.4213840000000  0.5008410000000 1.0
C      1  0.5899990000000  0.4795230000000  0.4511520000000 1.0
C      1  0.5050980000000  0.4413990000000  0.4554140000000 1.0
C      1  0.4829710000000  0.5018890000000  0.5218890000000 1.0
C      1  0.5665980000000  0.5597400000000  0.4506890000000 1.0
C      1  0.5117230000000  0.4711820000000  0.4095400000000 1.0
C      1  0.4937750000000  0.5128740000000  0.5971550000000 1.0
C      1  0.4274730000000  0.5027700000000  0.5613510000000 1.0
END
