TITL C-2778437-8639-159 -0.00147325519464497 125000 -545.620838521753 0 0 94 (C1) n - 1
REM
REM in /home/nfs/bkarasulu/CARBON/AIRSS/Generating-Clusters/REBO/Only-C1/SD-CG/HFTN-CG
REM
REM
REM
REM
REM
REM ./C.cell (11c1c37f851c82e70ff6c80c92926a4b)
REM
REM compiler GCC version 9.2.1 20190827 (Red Hat 9.2.1-1)
REM options -cpp -mtune=generic -march=x86-64 -g -O0 -fpre-include=/usr/include/finclude/math-vector-fortran.h
REM seed 1228462840 468648401 1732164084 -1356364286 -1004519568 364841546 245913955 916779094 322185001 -545882658 1054569825 -202643206 1748400278 1735269804 -2085601100 -720780740 1329512694 -748525153 -1706820150 284178924 615996962 -944688239 591632713 521233144 20905955 -946239707 1687709093 -1717502572 -1005311385 511417170 -631364973 1441123529 -1160417884
REM
CELL 1.54180   50.00000   50.00000   50.00000   90.00000   90.00000   90.00000
LATT -1
SFAC C  
C      1  0.4425630000000  0.5470240000000  0.4572240000000 1.0
C      1  0.4278120000000  0.5267100000000  0.5397600000000 1.0
C      1  0.5538180000000  0.4902130000000  0.4848760000000 1.0
C      1  0.5274430000000  0.4342000000000  0.5387750000000 1.0
C      1  0.5380470000000  0.5625910000000  0.4646710000000 1.0
C      1  0.4236320000000  0.4948250000000  0.5383410000000 1.0
C      1  0.4899310000000  0.5026860000000  0.5552910000000 1.0
C      1  0.4737550000000  0.4883980000000  0.5745440000000 1.0
C      1  0.5781730000000  0.4626420000000  0.4505170000000 1.0
C      1  0.5275800000000  0.4120180000000  0.4851930000000 1.0
C      1  0.4767870000000  0.4477780000000  0.5427630000000 1.0
C      1  0.6031040000000  0.4920350000000  0.5091040000000 1.0
C      1  0.4350740000000  0.5389920000000  0.5150470000000 1.0
C      1  0.3838700000000  0.4588070000000  0.5564700000000 1.0
C      1  0.4488470000000  0.5317950000000  0.5629470000000 1.0
C      1  0.5494560000000  0.5598290000000  0.4925840000000 1.0
C      1  0.5719260000000  0.4168470000000  0.5258390000000 1.0
C      1  0.5438810000000  0.4130670000000  0.5290900000000 1.0
C      1  0.5134060000000  0.5040690000000  0.5401580000000 1.0
C      1  0.5018230000000  0.5041720000000  0.5090480000000 1.0
C      1  0.4994330000000  0.5142380000000  0.4594480000000 1.0
C      1  0.5566770000000  0.5100190000000  0.4425490000000 1.0
C      1  0.5169810000000  0.5436100000000  0.5365050000000 1.0
C      1  0.4493850000000  0.5060630000000  0.5816660000000 1.0
C      1  0.5071970000000  0.5278220000000  0.5849450000000 1.0
C      1  0.3672020000000  0.4987710000000  0.3870400000000 1.0
C      1  0.4734850000000  0.5511810000000  0.5556570000000 1.0
C      1  0.4271960000000  0.5238970000000  0.4391270000000 1.0
C      1  0.5765560000000  0.4468960000000  0.4798430000000 1.0
C      1  0.4744350000000  0.4997750000000  0.4488920000000 1.0
C      1  0.5347730000000  0.5337310000000  0.5092400000000 1.0
C      1  0.5024680000000  0.5730140000000  0.5136060000000 1.0
C      1  0.5591760000000  0.5362960000000  0.5432990000000 1.0
C      1  0.3770780000000  0.5170350000000  0.4686370000000 1.0
C      1  0.5990200000000  0.5117990000000  0.5270070000000 1.0
C      1  0.5331410000000  0.5738840000000  0.5165810000000 1.0
C      1  0.5404320000000  0.4748380000000  0.5768070000000 1.0
C      1  0.5335250000000  0.4659040000000  0.4935010000000 1.0
C      1  0.5459910000000  0.5224390000000  0.4789780000000 1.0
C      1  0.5453570000000  0.4406220000000  0.4798040000000 1.0
C      1  0.5752720000000  0.5420340000000  0.4975360000000 1.0
C      1  0.4055600000000  0.4722370000000  0.5543630000000 1.0
C      1  0.5393880000000  0.5363800000000  0.4484640000000 1.0
C      1  0.5899430000000  0.4424300000000  0.5323680000000 1.0
C      1  0.5437520000000  0.5621560000000  0.5428650000000 1.0
C      1  0.5024650000000  0.4739430000000  0.5024580000000 1.0
C      1  0.5047930000000  0.4531670000000  0.4644930000000 1.0
C      1  0.5115570000000  0.5314090000000  0.4351410000000 1.0
C      1  0.3773110000000  0.5118100000000  0.4412430000000 1.0
C      1  0.4137790000000  0.5476360000000  0.4976120000000 1.0
C      1  0.3984220000000  0.5250870000000  0.4846840000000 1.0
C      1  0.4052090000000  0.5156610000000  0.4255300000000 1.0
C      1  0.5262300000000  0.4990640000000  0.4533940000000 1.0
C      1  0.4455960000000  0.5005120000000  0.4876040000000 1.0
C      1  0.6059970000000  0.4994100000000  0.4769590000000 1.0
C      1  0.4925790000000  0.5268780000000  0.4854830000000 1.0
C      1  0.5334790000000  0.4719780000000  0.5274130000000 1.0
C      1  0.4800550000000  0.4642310000000  0.4817780000000 1.0
C      1  0.5779040000000  0.4624470000000  0.5475870000000 1.0
C      1  0.4472690000000  0.5009300000000  0.5165350000000 1.0
C      1  0.5511060000000  0.4697400000000  0.5518130000000 1.0
C      1  0.4762900000000  0.4314370000000  0.4808400000000 1.0
C      1  0.4246550000000  0.5658980000000  0.4781600000000 1.0
C      1  0.5319260000000  0.3984680000000  0.5079820000000 1.0
C      1  0.5813390000000  0.4779390000000  0.4870990000000 1.0
C      1  0.4635340000000  0.4203790000000  0.5019350000000 1.0
C      1  0.4755520000000  0.5682300000000  0.5340640000000 1.0
C      1  0.4627880000000  0.4857920000000  0.4708730000000 1.0
C      1  0.5413350000000  0.5004070000000  0.5119450000000 1.0
C      1  0.4970730000000  0.5594360000000  0.4854010000000 1.0
C      1  0.4721220000000  0.5097190000000  0.4216900000000 1.0
C      1  0.5512670000000  0.4765960000000  0.4405180000000 1.0
C      1  0.5812870000000  0.5339480000000  0.5243770000000 1.0
C      1  0.5420920000000  0.5131680000000  0.5426800000000 1.0
C      1  0.4661030000000  0.5159650000000  0.5382140000000 1.0
C      1  0.3788900000000  0.5060400000000  0.4095620000000 1.0
C      1  0.5030750000000  0.4204420000000  0.4654220000000 1.0
C      1  0.4359100000000  0.4795370000000  0.5658030000000 1.0
C      1  0.4703930000000  0.5808890000000  0.5050510000000 1.0
C      1  0.4660370000000  0.5412540000000  0.5023590000000 1.0
C      1  0.4931210000000  0.5274300000000  0.4145910000000 1.0
C      1  0.5848230000000  0.4952100000000  0.4513180000000 1.0
C      1  0.4639330000000  0.4622180000000  0.5624490000000 1.0
C      1  0.5036810000000  0.4559510000000  0.5313260000000 1.0
C      1  0.4897260000000  0.5321100000000  0.5244760000000 1.0
C      1  0.5793310000000  0.5201440000000  0.4742070000000 1.0
C      1  0.4281130000000  0.5199700000000  0.4725840000000 1.0
C      1  0.5235940000000  0.4672220000000  0.4547860000000 1.0
C      1  0.5118680000000  0.5710560000000  0.4654980000000 1.0
C      1  0.5328540000000  0.4285820000000  0.4504350000000 1.0
C      1  0.4575080000000  0.5655560000000  0.4812150000000 1.0
C      1  0.4635740000000  0.4276160000000  0.5282030000000 1.0
C      1  0.4988710000000  0.5410170000000  0.5623280000000 1.0
C      1  0.5892340000000  0.4307010000000  0.5019080000000 1.0
END
