TITL C-2778422-5617-1455 0.00112448331027265 125000 -456.077693646569 0 0 80 (C1) n - 1
REM
REM in /home/nfs/bkarasulu/CARBON/AIRSS/Generating-Clusters/REBO/Only-C1/SD-CG/HFTN-CG
REM
REM
REM
REM
REM
REM ./C.cell (11c1c37f851c82e70ff6c80c92926a4b)
REM
REM compiler GCC version 9.2.1 20190827 (Red Hat 9.2.1-1)
REM options -cpp -mtune=generic -march=x86-64 -g -O0 -fpre-include=/usr/include/finclude/math-vector-fortran.h
REM seed -1092749859 279143710 1846538030 1429344388 -208701513 343938537 -1975749152 593352417 -723585206 -118149157 43202035 389388180 1624029436 -1194289481 1391241961 -1412975771 -1658547903 2070326410 514873067 853439038 -1719283072 -363276664 -389979381 -1693507287 -1065393673 804998855 -287179347 66019556 1466851934 -2079873099 -156690985 -876995908 843024806
REM
CELL 1.54180   50.00000   50.00000   50.00000   90.00000   90.00000   90.00000
LATT -1
SFAC C  
C      1  0.5177590000000  0.5178970000000  0.4968960000000 1.0
C      1  0.4477050000000  0.4544610000000  0.4768150000000 1.0
C      1  0.5313530000000  0.4801940000000  0.5384680000000 1.0
C      1  0.4780720000000  0.5068830000000  0.5321500000000 1.0
C      1  0.4858850000000  0.4295370000000  0.5000160000000 1.0
C      1  0.4445360000000  0.5070630000000  0.5378400000000 1.0
C      1  0.4618290000000  0.4261170000000  0.5224560000000 1.0
C      1  0.4833270000000  0.4582420000000  0.5563040000000 1.0
C      1  0.4487220000000  0.4749400000000  0.5452350000000 1.0
C      1  0.4891370000000  0.4902100000000  0.4979010000000 1.0
C      1  0.4688970000000  0.4793780000000  0.5701110000000 1.0
C      1  0.4894070000000  0.5580150000000  0.5181040000000 1.0
C      1  0.5018730000000  0.5282230000000  0.5205650000000 1.0
C      1  0.4570460000000  0.4828280000000  0.4243900000000 1.0
C      1  0.4816710000000  0.5655630000000  0.4893880000000 1.0
C      1  0.5219170000000  0.5306230000000  0.4185360000000 1.0
C      1  0.5157570000000  0.4983740000000  0.5761620000000 1.0
C      1  0.4234550000000  0.4671030000000  0.4970800000000 1.0
C      1  0.4504370000000  0.5055990000000  0.4153560000000 1.0
C      1  0.5301450000000  0.4707980000000  0.4579160000000 1.0
C      1  0.4808200000000  0.4611420000000  0.5238610000000 1.0
C      1  0.5021720000000  0.4779640000000  0.4157150000000 1.0
C      1  0.5106430000000  0.5032180000000  0.4450330000000 1.0
C      1  0.5310130000000  0.5584480000000  0.4937060000000 1.0
C      1  0.5424980000000  0.5021200000000  0.5070480000000 1.0
C      1  0.4680340000000  0.5303880000000  0.4278290000000 1.0
C      1  0.4541260000000  0.5591700000000  0.4834230000000 1.0
C      1  0.5032260000000  0.4841950000000  0.5276600000000 1.0
C      1  0.4564210000000  0.5330460000000  0.5531280000000 1.0
C      1  0.5316560000000  0.4702550000000  0.5693150000000 1.0
C      1  0.4835790000000  0.5011840000000  0.5789100000000 1.0
C      1  0.5098860000000  0.4551030000000  0.4397680000000 1.0
C      1  0.4785560000000  0.4974040000000  0.4681230000000 1.0
C      1  0.4306330000000  0.5066230000000  0.4662200000000 1.0
C      1  0.5270710000000  0.5420400000000  0.4486280000000 1.0
C      1  0.5687100000000  0.5234610000000  0.5132820000000 1.0
C      1  0.5768720000000  0.4788730000000  0.4879460000000 1.0
C      1  0.4743990000000  0.5280040000000  0.5747260000000 1.0
C      1  0.4979860000000  0.5472440000000  0.5732590000000 1.0
C      1  0.5069090000000  0.5213020000000  0.5526550000000 1.0
C      1  0.5393090000000  0.5054440000000  0.4287160000000 1.0
C      1  0.5165010000000  0.4868290000000  0.4809390000000 1.0
C      1  0.4404250000000  0.5257540000000  0.4482440000000 1.0
C      1  0.5517200000000  0.5393090000000  0.4913000000000 1.0
C      1  0.5639830000000  0.5005560000000  0.4651470000000 1.0
C      1  0.4711610000000  0.4397690000000  0.4741330000000 1.0
C      1  0.5232610000000  0.4215340000000  0.5116840000000 1.0
C      1  0.5116370000000  0.4472730000000  0.5599610000000 1.0
C      1  0.5340040000000  0.5624300000000  0.5448530000000 1.0
C      1  0.4533270000000  0.4868410000000  0.4804470000000 1.0
C      1  0.4171890000000  0.4971950000000  0.4933110000000 1.0
C      1  0.5798800000000  0.4916470000000  0.5166150000000 1.0
C      1  0.4538890000000  0.4726100000000  0.5116090000000 1.0
C      1  0.5412560000000  0.5114780000000  0.5394700000000 1.0
C      1  0.5333260000000  0.4700390000000  0.5000770000000 1.0
C      1  0.5084480000000  0.5630950000000  0.4684590000000 1.0
C      1  0.4829480000000  0.5540960000000  0.4473910000000 1.0
C      1  0.5564240000000  0.4820950000000  0.4388530000000 1.0
C      1  0.5208490000000  0.5633660000000  0.5197490000000 1.0
C      1  0.5041270000000  0.4410880000000  0.4702260000000 1.0
C      1  0.5509620000000  0.5261570000000  0.4663680000000 1.0
C      1  0.4437710000000  0.5382660000000  0.5004560000000 1.0
C      1  0.4686800000000  0.5174190000000  0.5011320000000 1.0
C      1  0.5382860000000  0.5238780000000  0.5773440000000 1.0
C      1  0.4786590000000  0.5300980000000  0.4711510000000 1.0
C      1  0.4506220000000  0.5534900000000  0.4551390000000 1.0
C      1  0.5544580000000  0.4957310000000  0.5671600000000 1.0
C      1  0.5647220000000  0.4471550000000  0.4942320000000 1.0
C      1  0.4828600000000  0.4830970000000  0.4422210000000 1.0
C      1  0.4287900000000  0.5154510000000  0.5131740000000 1.0
C      1  0.4481910000000  0.4420290000000  0.5366570000000 1.0
C      1  0.5009970000000  0.4341980000000  0.5303110000000 1.0
C      1  0.5284170000000  0.5498500000000  0.5701320000000 1.0
C      1  0.5088430000000  0.5234420000000  0.4681480000000 1.0
C      1  0.4939150000000  0.5114530000000  0.4165290000000 1.0
C      1  0.5753700000000  0.5102460000000  0.5443180000000 1.0
C      1  0.4641850000000  0.5542850000000  0.5370720000000 1.0
C      1  0.5579900000000  0.4677860000000  0.5211500000000 1.0
C      1  0.5313650000000  0.4394720000000  0.4900970000000 1.0
C      1  0.5611100000000  0.4608150000000  0.4640990000000 1.0
END
