TITL C-2778425-5191-1143 0.00210739293865262 125000 -1104.62039467633 0 0 190 (C1) n - 1
REM
REM in /home/nfs/bkarasulu/CARBON/AIRSS/Generating-Clusters/REBO/Only-C1/SD-CG/HFTN-CG
REM
REM
REM
REM
REM
REM ./C.cell (11c1c37f851c82e70ff6c80c92926a4b)
REM
REM compiler GCC version 9.2.1 20190827 (Red Hat 9.2.1-1)
REM options -cpp -mtune=generic -march=x86-64 -g -O0 -fpre-include=/usr/include/finclude/math-vector-fortran.h
REM seed -611951018 -1519918723 1493598093 -259534087 -1186184523 -1835184389 274198221 -1229628232 694297425 -288640353 -1229359609 1057668079 -1917989564 -1843307380 265846079 119982495 -1264329647 1206335442 -375072682 1987693731 2073967909 -1783310118 -457084932 1891656942 -923082139 -1502639470 2004991844 -953765542 -631487804 1909943425 -1602543719 1633689787 -764146904
REM
CELL 1.54180   50.00000   50.00000   50.00000   90.00000   90.00000   90.00000
LATT -1
SFAC C  
C      1  0.4781220000000  0.4302660000000  0.5376490000000 1.0
C      1  0.4787160000000  0.5900770000000  0.4526680000000 1.0
C      1  0.5821670000000  0.5052330000000  0.5157630000000 1.0
C      1  0.4336170000000  0.4762600000000  0.4056570000000 1.0
C      1  0.5153650000000  0.4298080000000  0.5216650000000 1.0
C      1  0.4013590000000  0.5214200000000  0.4599370000000 1.0
C      1  0.4887220000000  0.4470800000000  0.4127970000000 1.0
C      1  0.4314870000000  0.4839010000000  0.5407080000000 1.0
C      1  0.4550170000000  0.5024500000000  0.4024220000000 1.0
C      1  0.4995720000000  0.5273200000000  0.3905790000000 1.0
C      1  0.4395250000000  0.4409420000000  0.4405000000000 1.0
C      1  0.4671940000000  0.3849740000000  0.5187040000000 1.0
C      1  0.4779130000000  0.4629480000000  0.5455970000000 1.0
C      1  0.4512720000000  0.4490550000000  0.5151380000000 1.0
C      1  0.4129490000000  0.5268040000000  0.5619880000000 1.0
C      1  0.4575190000000  0.6016710000000  0.5231550000000 1.0
C      1  0.5080020000000  0.4688100000000  0.5184390000000 1.0
C      1  0.5971210000000  0.5090670000000  0.4882760000000 1.0
C      1  0.6272930000000  0.5120500000000  0.5094830000000 1.0
C      1  0.4248800000000  0.5179590000000  0.5061750000000 1.0
C      1  0.5091620000000  0.5456430000000  0.4538190000000 1.0
C      1  0.4598750000000  0.5243670000000  0.5616400000000 1.0
C      1  0.4205590000000  0.5051090000000  0.5846770000000 1.0
C      1  0.4455130000000  0.5425000000000  0.4768400000000 1.0
C      1  0.4568480000000  0.4848190000000  0.5574590000000 1.0
C      1  0.5348370000000  0.5024060000000  0.4157410000000 1.0
C      1  0.5579430000000  0.4525840000000  0.4919160000000 1.0
C      1  0.5530310000000  0.5066420000000  0.5598530000000 1.0
C      1  0.6028410000000  0.4833180000000  0.4523500000000 1.0
C      1  0.4713040000000  0.5691740000000  0.5038210000000 1.0
C      1  0.5097200000000  0.6001180000000  0.4628890000000 1.0
C      1  0.4578170000000  0.4668450000000  0.4282240000000 1.0
C      1  0.5298390000000  0.5361740000000  0.5722660000000 1.0
C      1  0.4706110000000  0.4082010000000  0.5700150000000 1.0
C      1  0.3889340000000  0.4951770000000  0.4722030000000 1.0
C      1  0.4530030000000  0.5248790000000  0.5951480000000 1.0
C      1  0.5613410000000  0.5875810000000  0.4560220000000 1.0
C      1  0.5530570000000  0.5349060000000  0.5460640000000 1.0
C      1  0.5413950000000  0.4048240000000  0.4728300000000 1.0
C      1  0.5298670000000  0.4809910000000  0.4384760000000 1.0
C      1  0.5502600000000  0.4198640000000  0.5567730000000 1.0
C      1  0.5026120000000  0.4641190000000  0.5929270000000 1.0
C      1  0.5378080000000  0.4270950000000  0.4471200000000 1.0
C      1  0.4150990000000  0.5570630000000  0.5186680000000 1.0
C      1  0.6026120000000  0.5314250000000  0.5225800000000 1.0
C      1  0.4498260000000  0.4925820000000  0.5874750000000 1.0
C      1  0.5316120000000  0.5911660000000  0.4406440000000 1.0
C      1  0.4648380000000  0.5988010000000  0.4918740000000 1.0
C      1  0.4947600000000  0.3852250000000  0.5079710000000 1.0
C      1  0.5851190000000  0.4578120000000  0.5562970000000 1.0
C      1  0.5064710000000  0.4310890000000  0.5947390000000 1.0
C      1  0.4054530000000  0.5463880000000  0.4817260000000 1.0
C      1  0.4934010000000  0.3961400000000  0.4786140000000 1.0
C      1  0.4806680000000  0.4868410000000  0.5230090000000 1.0
C      1  0.4229770000000  0.5559270000000  0.5520450000000 1.0
C      1  0.3909850000000  0.4972670000000  0.5017480000000 1.0
C      1  0.4874580000000  0.4551550000000  0.4998960000000 1.0
C      1  0.4751600000000  0.5609290000000  0.5538010000000 1.0
C      1  0.4819100000000  0.6050670000000  0.5385500000000 1.0
C      1  0.5939620000000  0.4380000000000  0.4780290000000 1.0
C      1  0.5360410000000  0.5356830000000  0.4932600000000 1.0
C      1  0.4757930000000  0.4452710000000  0.6003150000000 1.0
C      1  0.4184570000000  0.4495510000000  0.4633980000000 1.0
C      1  0.4967190000000  0.4991150000000  0.4779860000000 1.0
C      1  0.5275450000000  0.4393270000000  0.5710820000000 1.0
C      1  0.4250710000000  0.4200030000000  0.5072440000000 1.0
C      1  0.4170310000000  0.5086140000000  0.5348620000000 1.0
C      1  0.5195550000000  0.4806640000000  0.5773330000000 1.0
C      1  0.5200490000000  0.4074060000000  0.5474660000000 1.0
C      1  0.5169100000000  0.5599350000000  0.4820220000000 1.0
C      1  0.5728960000000  0.5318710000000  0.4190110000000 1.0
C      1  0.5504460000000  0.4883190000000  0.5884780000000 1.0
C      1  0.3968050000000  0.4733620000000  0.4551230000000 1.0
C      1  0.5387310000000  0.5937200000000  0.4798610000000 1.0
C      1  0.4415990000000  0.5607740000000  0.4188210000000 1.0
C      1  0.4257350000000  0.4772290000000  0.4821610000000 1.0
C      1  0.4979450000000  0.5620990000000  0.5327120000000 1.0
C      1  0.4892410000000  0.5176260000000  0.5224780000000 1.0
C      1  0.5431700000000  0.4964250000000  0.5072260000000 1.0
C      1  0.5632750000000  0.4857590000000  0.4599210000000 1.0
C      1  0.4577120000000  0.5617050000000  0.5277490000000 1.0
C      1  0.6173070000000  0.5340530000000  0.4855150000000 1.0
C      1  0.5245480000000  0.5102460000000  0.5918940000000 1.0
C      1  0.5224010000000  0.5795730000000  0.5667080000000 1.0
C      1  0.6068570000000  0.4693910000000  0.4804800000000 1.0
C      1  0.5858340000000  0.4635980000000  0.5068660000000 1.0
C      1  0.5490790000000  0.5499920000000  0.4228090000000 1.0
C      1  0.5280750000000  0.5063550000000  0.5349800000000 1.0
C      1  0.4133130000000  0.5314550000000  0.4320900000000 1.0
C      1  0.4500660000000  0.4865370000000  0.4520510000000 1.0
C      1  0.3950730000000  0.5305580000000  0.5097280000000 1.0
C      1  0.5388360000000  0.4887170000000  0.4788170000000 1.0
C      1  0.4300580000000  0.5687450000000  0.4900140000000 1.0
C      1  0.5055220000000  0.4444740000000  0.5499330000000 1.0
C      1  0.4331730000000  0.5822080000000  0.5329700000000 1.0
C      1  0.5276730000000  0.5943260000000  0.5117400000000 1.0
C      1  0.4132490000000  0.4417100000000  0.4952030000000 1.0
C      1  0.5748450000000  0.4303450000000  0.5525850000000 1.0
C      1  0.4319850000000  0.5808870000000  0.4393280000000 1.0
C      1  0.4714180000000  0.4930980000000  0.4943450000000 1.0
C      1  0.5574700000000  0.5257750000000  0.5167380000000 1.0
C      1  0.5626720000000  0.4177880000000  0.5139530000000 1.0
C      1  0.5087870000000  0.4449590000000  0.4679500000000 1.0
C      1  0.4351960000000  0.4703430000000  0.5124380000000 1.0
C      1  0.5054750000000  0.5889280000000  0.5271370000000 1.0
C      1  0.4615660000000  0.5309800000000  0.5311920000000 1.0
C      1  0.4660230000000  0.4278320000000  0.4269650000000 1.0
C      1  0.4995230000000  0.4097500000000  0.5710850000000 1.0
C      1  0.4475310000000  0.5874670000000  0.4670870000000 1.0
C      1  0.5881440000000  0.5571760000000  0.5159890000000 1.0
C      1  0.4297940000000  0.4233310000000  0.5373280000000 1.0
C      1  0.5125500000000  0.4701200000000  0.4041770000000 1.0
C      1  0.4154520000000  0.4539630000000  0.5429670000000 1.0
C      1  0.5471660000000  0.4716380000000  0.5253880000000 1.0
C      1  0.5943310000000  0.4844550000000  0.5398970000000 1.0
C      1  0.5146790000000  0.5014300000000  0.3903250000000 1.0
C      1  0.5226420000000  0.5478820000000  0.4279470000000 1.0
C      1  0.5782730000000  0.5116240000000  0.4661970000000 1.0
C      1  0.5873310000000  0.4293710000000  0.5072220000000 1.0
C      1  0.5110320000000  0.4849190000000  0.5483940000000 1.0
C      1  0.5931660000000  0.5799050000000  0.4659080000000 1.0
C      1  0.4572610000000  0.4037790000000  0.5423680000000 1.0
C      1  0.5621610000000  0.4579380000000  0.4401090000000 1.0
C      1  0.5011370000000  0.5541640000000  0.4082480000000 1.0
C      1  0.5428720000000  0.4415620000000  0.5190630000000 1.0
C      1  0.4440580000000  0.5505230000000  0.5763050000000 1.0
C      1  0.5077230000000  0.4218220000000  0.4928670000000 1.0
C      1  0.4854630000000  0.5474250000000  0.5900140000000 1.0
C      1  0.5430330000000  0.3993680000000  0.5012100000000 1.0
C      1  0.5309460000000  0.5088530000000  0.4562500000000 1.0
C      1  0.4213020000000  0.4805950000000  0.4368530000000 1.0
C      1  0.4376510000000  0.4407830000000  0.5651960000000 1.0
C      1  0.5726540000000  0.5617500000000  0.5677650000000 1.0
C      1  0.3860550000000  0.5164850000000  0.5439450000000 1.0
C      1  0.5895690000000  0.5344360000000  0.4459770000000 1.0
C      1  0.4959460000000  0.5043720000000  0.6093160000000 1.0
C      1  0.5797370000000  0.4843580000000  0.4309430000000 1.0
C      1  0.5253120000000  0.4623140000000  0.4898340000000 1.0
C      1  0.4680680000000  0.4409960000000  0.4798540000000 1.0
C      1  0.4787910000000  0.5584960000000  0.4524010000000 1.0
C      1  0.4361530000000  0.5304830000000  0.4067960000000 1.0
C      1  0.5611260000000  0.5376070000000  0.4737970000000 1.0
C      1  0.5361420000000  0.5621380000000  0.5425000000000 1.0
C      1  0.4561380000000  0.5199060000000  0.5001610000000 1.0
C      1  0.5016550000000  0.5816340000000  0.4284910000000 1.0
C      1  0.4859920000000  0.5026910000000  0.5592860000000 1.0
C      1  0.5950490000000  0.5167730000000  0.5513230000000 1.0
C      1  0.4794430000000  0.5285410000000  0.6119390000000 1.0
C      1  0.5161190000000  0.5364000000000  0.5314310000000 1.0
C      1  0.5334610000000  0.4523890000000  0.4247360000000 1.0
C      1  0.4963080000000  0.5863660000000  0.4883480000000 1.0
C      1  0.5765680000000  0.5621740000000  0.4870800000000 1.0
C      1  0.4862920000000  0.4568430000000  0.4453930000000 1.0
C      1  0.4648910000000  0.4233920000000  0.5085740000000 1.0
C      1  0.4794800000000  0.4788390000000  0.4041300000000 1.0
C      1  0.4568070000000  0.4300470000000  0.5826340000000 1.0
C      1  0.5029680000000  0.5080070000000  0.4276900000000 1.0
C      1  0.4675440000000  0.5739450000000  0.5834900000000 1.0
C      1  0.4167640000000  0.5041920000000  0.4138410000000 1.0
C      1  0.5730880000000  0.4970880000000  0.3819520000000 1.0
C      1  0.5569390000000  0.5801530000000  0.5060950000000 1.0
C      1  0.5657280000000  0.5034910000000  0.4109430000000 1.0
C      1  0.4571250000000  0.4704970000000  0.4789860000000 1.0
C      1  0.4988960000000  0.5326130000000  0.5691170000000 1.0
C      1  0.4232440000000  0.5538630000000  0.4536370000000 1.0
C      1  0.5011190000000  0.4829070000000  0.4512670000000 1.0
C      1  0.5652230000000  0.5578170000000  0.4482320000000 1.0
C      1  0.4658500000000  0.5467060000000  0.4281200000000 1.0
C      1  0.5512790000000  0.4775900000000  0.5500890000000 1.0
C      1  0.5042420000000  0.5246810000000  0.4950770000000 1.0
C      1  0.5653530000000  0.4376660000000  0.4640250000000 1.0
C      1  0.4266260000000  0.5076330000000  0.4761910000000 1.0
C      1  0.4780080000000  0.4087490000000  0.4441620000000 1.0
C      1  0.6082770000000  0.5517570000000  0.4650650000000 1.0
C      1  0.4765890000000  0.5230930000000  0.4135350000000 1.0
C      1  0.4930420000000  0.5873190000000  0.5651010000000 1.0
C      1  0.4743750000000  0.4792200000000  0.6027760000000 1.0
C      1  0.4020280000000  0.4677100000000  0.5144310000000 1.0
C      1  0.5467170000000  0.5626970000000  0.5808330000000 1.0
C      1  0.4562310000000  0.5161820000000  0.4604050000000 1.0
C      1  0.4456280000000  0.3977910000000  0.4965510000000 1.0
C      1  0.4841250000000  0.5487140000000  0.4844100000000 1.0
C      1  0.4876740000000  0.5199840000000  0.4552310000000 1.0
C      1  0.6140170000000  0.4817550000000  0.5117460000000 1.0
C      1  0.4632160000000  0.4081150000000  0.4719970000000 1.0
C      1  0.5866900000000  0.5360440000000  0.5692530000000 1.0
C      1  0.5206560000000  0.3904560000000  0.5189770000000 1.0
C      1  0.5081770000000  0.4140200000000  0.4537290000000 1.0
C      1  0.5685000000000  0.5708340000000  0.5367920000000 1.0
C      1  0.5555580000000  0.4577980000000  0.5742330000000 1.0
END
