TITL C-2778426-5645-123 0.00130385448301361 125000 -775.304337665377 0 0 135 (C1) n - 1
REM
REM in /home/nfs/bkarasulu/CARBON/AIRSS/Generating-Clusters/REBO/Only-C1/SD-CG/HFTN-CG
REM
REM
REM
REM
REM
REM ./C.cell (11c1c37f851c82e70ff6c80c92926a4b)
REM
REM compiler GCC version 9.2.1 20190827 (Red Hat 9.2.1-1)
REM options -cpp -mtune=generic -march=x86-64 -g -O0 -fpre-include=/usr/include/finclude/math-vector-fortran.h
REM seed -255040202 1102966090 -1116018666 -824418583 390507458 640067762 1367197812 -1069438300 -199481865 -1523877886 -418854289 -349473271 -1856864997 1503615097 760322140 1278219586 1663743004 -1026671155 -893607158 1999927767 -1305748338 1151825359 -254563595 1902133442 253948558 1079558300 1379723661 -655977330 -284415563 858267222 -1869599903 1651124589 1389782829
REM
CELL 1.54180   50.00000   50.00000   50.00000   90.00000   90.00000   90.00000
LATT -1
SFAC C  
C      1  0.4445500000000  0.5454540000000  0.4446910000000 1.0
C      1  0.4146990000000  0.4891620000000  0.5639690000000 1.0
C      1  0.5694730000000  0.5659690000000  0.5011770000000 1.0
C      1  0.4256700000000  0.4807220000000  0.4393910000000 1.0
C      1  0.5062380000000  0.4847190000000  0.4663470000000 1.0
C      1  0.5463920000000  0.4139730000000  0.5155040000000 1.0
C      1  0.5626820000000  0.4838350000000  0.4249820000000 1.0
C      1  0.4091820000000  0.4958960000000  0.4649920000000 1.0
C      1  0.5206970000000  0.4587990000000  0.5440310000000 1.0
C      1  0.4888680000000  0.5674280000000  0.4656070000000 1.0
C      1  0.4998190000000  0.5546700000000  0.5930480000000 1.0
C      1  0.4974210000000  0.4534340000000  0.5215020000000 1.0
C      1  0.4474530000000  0.4386190000000  0.4532220000000 1.0
C      1  0.5546580000000  0.4953150000000  0.5404760000000 1.0
C      1  0.4690590000000  0.5797810000000  0.5620700000000 1.0
C      1  0.5599680000000  0.4593860000000  0.5088410000000 1.0
C      1  0.4664020000000  0.4203930000000  0.5004980000000 1.0
C      1  0.5001500000000  0.4531460000000  0.5782310000000 1.0
C      1  0.5271670000000  0.5912370000000  0.5003600000000 1.0
C      1  0.5474370000000  0.4971970000000  0.4019220000000 1.0
C      1  0.5252910000000  0.5003710000000  0.4460550000000 1.0
C      1  0.5762120000000  0.4779280000000  0.4907710000000 1.0
C      1  0.4704010000000  0.4398500000000  0.4315050000000 1.0
C      1  0.5014930000000  0.4197060000000  0.4717500000000 1.0
C      1  0.3850020000000  0.5310020000000  0.4903040000000 1.0
C      1  0.5933340000000  0.4449650000000  0.5254770000000 1.0
C      1  0.4782170000000  0.4706350000000  0.5395870000000 1.0
C      1  0.4124720000000  0.4751030000000  0.5367890000000 1.0
C      1  0.5335270000000  0.4948590000000  0.5866510000000 1.0
C      1  0.4641300000000  0.4501520000000  0.5616840000000 1.0
C      1  0.5149510000000  0.5606730000000  0.5566010000000 1.0
C      1  0.5204500000000  0.5049390000000  0.4986460000000 1.0
C      1  0.4639710000000  0.5267680000000  0.4010350000000 1.0
C      1  0.4323790000000  0.5146290000000  0.5081940000000 1.0
C      1  0.5233890000000  0.5411980000000  0.5980610000000 1.0
C      1  0.4944720000000  0.5223040000000  0.4077500000000 1.0
C      1  0.5696920000000  0.4314570000000  0.5108780000000 1.0
C      1  0.4973290000000  0.4972990000000  0.5487370000000 1.0
C      1  0.4906170000000  0.4467900000000  0.4827560000000 1.0
C      1  0.5564470000000  0.4711120000000  0.5866450000000 1.0
C      1  0.5388780000000  0.4788280000000  0.5583790000000 1.0
C      1  0.4920310000000  0.5120820000000  0.4793720000000 1.0
C      1  0.5821310000000  0.5225090000000  0.5488550000000 1.0
C      1  0.4928760000000  0.4761780000000  0.4966120000000 1.0
C      1  0.5352700000000  0.5838620000000  0.4731350000000 1.0
C      1  0.4911090000000  0.4153480000000  0.4431760000000 1.0
C      1  0.4678330000000  0.5334960000000  0.5033060000000 1.0
C      1  0.4784970000000  0.4665750000000  0.4122240000000 1.0
C      1  0.4972080000000  0.5867530000000  0.5131770000000 1.0
C      1  0.5683530000000  0.5499840000000  0.4476160000000 1.0
C      1  0.5762910000000  0.4661720000000  0.5645030000000 1.0
C      1  0.4797080000000  0.4938370000000  0.4169960000000 1.0
C      1  0.5226580000000  0.4324930000000  0.5625510000000 1.0
C      1  0.4231800000000  0.5374120000000  0.5771000000000 1.0
C      1  0.4438480000000  0.5390430000000  0.5259310000000 1.0
C      1  0.4899570000000  0.4311180000000  0.5537670000000 1.0
C      1  0.4400730000000  0.4748030000000  0.5816390000000 1.0
C      1  0.5204430000000  0.5694850000000  0.4282410000000 1.0
C      1  0.4441370000000  0.5455620000000  0.4106630000000 1.0
C      1  0.4130920000000  0.4796500000000  0.5088790000000 1.0
C      1  0.5479610000000  0.4964910000000  0.4863910000000 1.0
C      1  0.5690460000000  0.5465660000000  0.5285790000000 1.0
C      1  0.5948520000000  0.4872010000000  0.4483810000000 1.0
C      1  0.4750160000000  0.5009990000000  0.5065340000000 1.0
C      1  0.5148090000000  0.5793510000000  0.4538720000000 1.0
C      1  0.4237090000000  0.4361680000000  0.4776330000000 1.0
C      1  0.5826660000000  0.4668150000000  0.4637370000000 1.0
C      1  0.4968900000000  0.4044910000000  0.4998230000000 1.0
C      1  0.4336630000000  0.5161640000000  0.4769280000000 1.0
C      1  0.5483030000000  0.5203660000000  0.5254790000000 1.0
C      1  0.4626970000000  0.5090750000000  0.4636960000000 1.0
C      1  0.5181050000000  0.5270250000000  0.5246540000000 1.0
C      1  0.4161600000000  0.5333190000000  0.4532470000000 1.0
C      1  0.5631200000000  0.5311690000000  0.4745810000000 1.0
C      1  0.5217880000000  0.4521740000000  0.4832490000000 1.0
C      1  0.4555860000000  0.5023320000000  0.5759980000000 1.0
C      1  0.4858030000000  0.5620090000000  0.5083340000000 1.0
C      1  0.4072730000000  0.5156740000000  0.5705850000000 1.0
C      1  0.4755570000000  0.5473190000000  0.5701670000000 1.0
C      1  0.5136630000000  0.5410030000000  0.4133270000000 1.0
C      1  0.4607890000000  0.4482850000000  0.4811650000000 1.0
C      1  0.5609950000000  0.5708020000000  0.4734820000000 1.0
C      1  0.5491640000000  0.4258280000000  0.5447020000000 1.0
C      1  0.4084620000000  0.5078400000000  0.4332200000000 1.0
C      1  0.4373400000000  0.4332040000000  0.5086810000000 1.0
C      1  0.4332300000000  0.4671300000000  0.4888500000000 1.0
C      1  0.4651600000000  0.5185860000000  0.4346840000000 1.0
C      1  0.5966290000000  0.4751850000000  0.5178830000000 1.0
C      1  0.5585310000000  0.5341950000000  0.5651070000000 1.0
C      1  0.4964800000000  0.5806180000000  0.5749840000000 1.0
C      1  0.5552720000000  0.4562330000000  0.4278920000000 1.0
C      1  0.5423290000000  0.4251910000000  0.4620580000000 1.0
C      1  0.5179780000000  0.4871810000000  0.5254210000000 1.0
C      1  0.5045540000000  0.4850150000000  0.5778590000000 1.0
C      1  0.4510900000000  0.5742420000000  0.4930500000000 1.0
C      1  0.4470190000000  0.5114850000000  0.5451640000000 1.0
C      1  0.5629180000000  0.4456340000000  0.4541810000000 1.0
C      1  0.5231340000000  0.4560920000000  0.4226330000000 1.0
C      1  0.4496110000000  0.4905380000000  0.5206140000000 1.0
C      1  0.4478660000000  0.4598100000000  0.5266840000000 1.0
C      1  0.5246420000000  0.4198550000000  0.4393540000000 1.0
C      1  0.5693960000000  0.5176460000000  0.5011270000000 1.0
C      1  0.5067340000000  0.5423970000000  0.5007110000000 1.0
C      1  0.4450540000000  0.5691310000000  0.5194270000000 1.0
C      1  0.4876230000000  0.4582620000000  0.3869750000000 1.0
C      1  0.5190430000000  0.5852960000000  0.5361050000000 1.0
C      1  0.5827660000000  0.5190190000000  0.4495260000000 1.0
C      1  0.4615600000000  0.5867560000000  0.4663880000000 1.0
C      1  0.4697010000000  0.4610600000000  0.5918160000000 1.0
C      1  0.5327170000000  0.4638040000000  0.5062370000000 1.0
C      1  0.4882270000000  0.4237980000000  0.5239810000000 1.0
C      1  0.4515640000000  0.5854150000000  0.5413750000000 1.0
C      1  0.4502020000000  0.5331680000000  0.5781200000000 1.0
C      1  0.5261460000000  0.4613470000000  0.4545170000000 1.0
C      1  0.5236970000000  0.4883470000000  0.4177060000000 1.0
C      1  0.4014790000000  0.5074160000000  0.4989870000000 1.0
C      1  0.5568460000000  0.4976400000000  0.4539860000000 1.0
C      1  0.3916520000000  0.5436940000000  0.4692160000000 1.0
C      1  0.5289710000000  0.4117600000000  0.4904690000000 1.0
C      1  0.5499810000000  0.5810870000000  0.5234980000000 1.0
C      1  0.5415510000000  0.5237800000000  0.5855670000000 1.0
C      1  0.4450110000000  0.5791770000000  0.4449550000000 1.0
C      1  0.5082890000000  0.5398610000000  0.4693280000000 1.0
C      1  0.5737880000000  0.4416750000000  0.5492800000000 1.0
C      1  0.4622220000000  0.5477480000000  0.4738380000000 1.0
C      1  0.4461120000000  0.4810850000000  0.4627790000000 1.0
C      1  0.4320930000000  0.4545300000000  0.5554430000000 1.0
C      1  0.5435100000000  0.5467780000000  0.4283000000000 1.0
C      1  0.5344820000000  0.5305740000000  0.4560230000000 1.0
C      1  0.5018470000000  0.4347760000000  0.4182520000000 1.0
C      1  0.4825390000000  0.4988890000000  0.5910610000000 1.0
C      1  0.5860700000000  0.4905410000000  0.5446040000000 1.0
C      1  0.5462560000000  0.5599120000000  0.5500460000000 1.0
C      1  0.4988410000000  0.5312090000000  0.5510790000000 1.0
C      1  0.5948320000000  0.5077020000000  0.5095550000000 1.0
END
