TITL C-2778426-5645-1101 0.00124864138947088 125000 -1002.57924713376 0 0 169 (C1) n - 1
REM
REM in /home/nfs/bkarasulu/CARBON/AIRSS/Generating-Clusters/REBO/Only-C1/SD-CG/HFTN-CG
REM
REM
REM
REM
REM
REM ./C.cell (11c1c37f851c82e70ff6c80c92926a4b)
REM
REM compiler GCC version 9.2.1 20190827 (Red Hat 9.2.1-1)
REM options -cpp -mtune=generic -march=x86-64 -g -O0 -fpre-include=/usr/include/finclude/math-vector-fortran.h
REM seed 1940042834 1310206036 -1540918086 -636723341 101921136 -241723098 1499537386 714633794 -1715598167 -1816188498 -907938661 -1781457390 -623155969 824420243 -400653522 -1106152445 -1266678998 490017574 1190913144 -554683258 -455735503 382914649 510060177 775989124 -441537233 735727105 -1832960549 -1167545117 -1244617959 1728157802 191464949 -1832322456 2095488381
REM
CELL 1.54180   50.00000   50.00000   50.00000   90.00000   90.00000   90.00000
LATT -1
SFAC C  
C      1  0.5696910000000  0.4908040000000  0.5347630000000 1.0
C      1  0.4375450000000  0.5024550000000  0.4115570000000 1.0
C      1  0.4742960000000  0.5479790000000  0.4942800000000 1.0
C      1  0.6055180000000  0.5404560000000  0.4741480000000 1.0
C      1  0.4798000000000  0.5362790000000  0.4511660000000 1.0
C      1  0.4492600000000  0.4467350000000  0.5934000000000 1.0
C      1  0.4974780000000  0.4566750000000  0.4158700000000 1.0
C      1  0.5115220000000  0.5879610000000  0.5129710000000 1.0
C      1  0.5088260000000  0.5091710000000  0.4512180000000 1.0
C      1  0.4315680000000  0.5639930000000  0.4592420000000 1.0
C      1  0.5108950000000  0.5322460000000  0.4962150000000 1.0
C      1  0.4525260000000  0.4685350000000  0.5330970000000 1.0
C      1  0.4890690000000  0.4723460000000  0.3893950000000 1.0
C      1  0.5455120000000  0.4620970000000  0.5993600000000 1.0
C      1  0.4650040000000  0.4111680000000  0.5498660000000 1.0
C      1  0.5862440000000  0.5071940000000  0.5129300000000 1.0
C      1  0.5211080000000  0.5625950000000  0.4959730000000 1.0
C      1  0.5794870000000  0.4696310000000  0.5601340000000 1.0
C      1  0.4909680000000  0.4605200000000  0.5018300000000 1.0
C      1  0.5115480000000  0.4217440000000  0.4220810000000 1.0
C      1  0.5620690000000  0.6001790000000  0.5150990000000 1.0
C      1  0.6042030000000  0.4817120000000  0.5171230000000 1.0
C      1  0.4039530000000  0.4480820000000  0.5224330000000 1.0
C      1  0.4943900000000  0.4854800000000  0.4319460000000 1.0
C      1  0.5375870000000  0.4402080000000  0.4823580000000 1.0
C      1  0.5455600000000  0.4504570000000  0.5689510000000 1.0
C      1  0.4739520000000  0.4941580000000  0.6047720000000 1.0
C      1  0.5066030000000  0.4981200000000  0.6137990000000 1.0
C      1  0.5592190000000  0.4351190000000  0.4410340000000 1.0
C      1  0.5944530000000  0.4566050000000  0.4667610000000 1.0
C      1  0.4407730000000  0.5621040000000  0.5103130000000 1.0
C      1  0.4382600000000  0.5166210000000  0.4676940000000 1.0
C      1  0.5775590000000  0.5383110000000  0.4146120000000 1.0
C      1  0.4651890000000  0.5587380000000  0.5709640000000 1.0
C      1  0.4314910000000  0.4767660000000  0.4448870000000 1.0
C      1  0.4387210000000  0.4385020000000  0.4538110000000 1.0
C      1  0.4397130000000  0.4684640000000  0.4143850000000 1.0
C      1  0.4258280000000  0.4991950000000  0.5847080000000 1.0
C      1  0.5558220000000  0.4878660000000  0.4224370000000 1.0
C      1  0.4845590000000  0.5726370000000  0.4832000000000 1.0
C      1  0.4175320000000  0.4571720000000  0.4621390000000 1.0
C      1  0.3841600000000  0.5270730000000  0.5069970000000 1.0
C      1  0.5412120000000  0.5621830000000  0.5201300000000 1.0
C      1  0.5213910000000  0.3959350000000  0.4965130000000 1.0
C      1  0.4772460000000  0.5037280000000  0.4110240000000 1.0
C      1  0.5313080000000  0.5456050000000  0.5775480000000 1.0
C      1  0.3902980000000  0.5066870000000  0.4647500000000 1.0
C      1  0.4659970000000  0.5081240000000  0.5206050000000 1.0
C      1  0.5711150000000  0.5825060000000  0.4946100000000 1.0
C      1  0.4505980000000  0.4928010000000  0.4592370000000 1.0
C      1  0.4599050000000  0.5829950000000  0.5293830000000 1.0
C      1  0.4794620000000  0.4781760000000  0.4585840000000 1.0
C      1  0.5412360000000  0.4017990000000  0.5166120000000 1.0
C      1  0.5283600000000  0.4036410000000  0.4700510000000 1.0
C      1  0.5974700000000  0.5101020000000  0.4600360000000 1.0
C      1  0.5318510000000  0.4796940000000  0.4812160000000 1.0
C      1  0.4912830000000  0.5166010000000  0.4766570000000 1.0
C      1  0.5624000000000  0.4842370000000  0.5841570000000 1.0
C      1  0.4770730000000  0.5924810000000  0.4562170000000 1.0
C      1  0.4940690000000  0.5350070000000  0.5851180000000 1.0
C      1  0.4475180000000  0.4796850000000  0.6019350000000 1.0
C      1  0.5361070000000  0.6072530000000  0.5237610000000 1.0
C      1  0.5270720000000  0.5928750000000  0.4628260000000 1.0
C      1  0.4989810000000  0.4287400000000  0.5841710000000 1.0
C      1  0.5241090000000  0.5299020000000  0.4098520000000 1.0
C      1  0.5313610000000  0.4441070000000  0.4326030000000 1.0
C      1  0.5328140000000  0.5005130000000  0.4007740000000 1.0
C      1  0.5169970000000  0.4409890000000  0.5080870000000 1.0
C      1  0.4577070000000  0.5241200000000  0.4290080000000 1.0
C      1  0.5659440000000  0.5664280000000  0.4511920000000 1.0
C      1  0.4254530000000  0.4305070000000  0.5037630000000 1.0
C      1  0.5208450000000  0.4692620000000  0.6099530000000 1.0
C      1  0.4457490000000  0.5760480000000  0.5573560000000 1.0
C      1  0.4487210000000  0.4764650000000  0.5039560000000 1.0
C      1  0.4866950000000  0.5675180000000  0.4397300000000 1.0
C      1  0.4850950000000  0.4976170000000  0.5539760000000 1.0
C      1  0.4399610000000  0.5285880000000  0.5782110000000 1.0
C      1  0.5545710000000  0.5846530000000  0.4700750000000 1.0
C      1  0.4966720000000  0.4945160000000  0.5232520000000 1.0
C      1  0.5214680000000  0.4548570000000  0.4603720000000 1.0
C      1  0.5799830000000  0.5464190000000  0.5536630000000 1.0
C      1  0.5546480000000  0.5373070000000  0.5234630000000 1.0
C      1  0.5753200000000  0.4417900000000  0.5116270000000 1.0
C      1  0.5755890000000  0.5431220000000  0.4636010000000 1.0
C      1  0.5533780000000  0.4811670000000  0.4544180000000 1.0
C      1  0.4769640000000  0.5369370000000  0.5193370000000 1.0
C      1  0.5928840000000  0.4585990000000  0.5313210000000 1.0
C      1  0.5274230000000  0.5531510000000  0.4664710000000 1.0
C      1  0.4184280000000  0.5247930000000  0.4245600000000 1.0
C      1  0.5580780000000  0.4184130000000  0.4680960000000 1.0
C      1  0.5132730000000  0.4290400000000  0.5366000000000 1.0
C      1  0.5495180000000  0.5262010000000  0.4303850000000 1.0
C      1  0.4206830000000  0.4275650000000  0.5431720000000 1.0
C      1  0.5035030000000  0.5566660000000  0.5610750000000 1.0
C      1  0.5596930000000  0.4175240000000  0.5280910000000 1.0
C      1  0.4138290000000  0.4598670000000  0.4921310000000 1.0
C      1  0.4035410000000  0.5477170000000  0.5080020000000 1.0
C      1  0.4453850000000  0.5433320000000  0.4816760000000 1.0
C      1  0.4554200000000  0.5055180000000  0.5589000000000 1.0
C      1  0.4288920000000  0.5495650000000  0.5576130000000 1.0
C      1  0.4791530000000  0.4305970000000  0.4281060000000 1.0
C      1  0.5423780000000  0.5746350000000  0.5455350000000 1.0
C      1  0.4348380000000  0.5081380000000  0.5248020000000 1.0
C      1  0.5240760000000  0.4796810000000  0.5131670000000 1.0
C      1  0.5908770000000  0.5587890000000  0.4969600000000 1.0
C      1  0.4684020000000  0.4315200000000  0.5748760000000 1.0
C      1  0.4945380000000  0.4704230000000  0.5915510000000 1.0
C      1  0.4542840000000  0.4446580000000  0.5011190000000 1.0
C      1  0.4936730000000  0.3960900000000  0.5038520000000 1.0
C      1  0.4651290000000  0.5620370000000  0.4193240000000 1.0
C      1  0.5736460000000  0.4590710000000  0.4470890000000 1.0
C      1  0.5436520000000  0.5184970000000  0.5459600000000 1.0
C      1  0.6093480000000  0.4812180000000  0.4679870000000 1.0
C      1  0.4973450000000  0.5245100000000  0.4242500000000 1.0
C      1  0.4618690000000  0.4362980000000  0.4739310000000 1.0
C      1  0.4097560000000  0.5608970000000  0.4847750000000 1.0
C      1  0.5711290000000  0.4388350000000  0.5509880000000 1.0
C      1  0.5795450000000  0.5099260000000  0.4330700000000 1.0
C      1  0.5169630000000  0.5702690000000  0.4412580000000 1.0
C      1  0.5107800000000  0.4876300000000  0.3802590000000 1.0
C      1  0.4595360000000  0.4840500000000  0.3928840000000 1.0
C      1  0.5208040000000  0.4321000000000  0.5668630000000 1.0
C      1  0.5018540000000  0.6062790000000  0.4708430000000 1.0
C      1  0.3921480000000  0.5041120000000  0.4927480000000 1.0
C      1  0.5198120000000  0.5189580000000  0.5952420000000 1.0
C      1  0.5068200000000  0.4183050000000  0.4540540000000 1.0
C      1  0.4413400000000  0.4106220000000  0.5345650000000 1.0
C      1  0.5348440000000  0.5250480000000  0.4570680000000 1.0
C      1  0.5157950000000  0.4625780000000  0.5416440000000 1.0
C      1  0.4180960000000  0.4905500000000  0.5015680000000 1.0
C      1  0.5545740000000  0.5562820000000  0.5639620000000 1.0
C      1  0.5031120000000  0.5254420000000  0.5475170000000 1.0
C      1  0.4702740000000  0.4520570000000  0.5506140000000 1.0
C      1  0.4445860000000  0.5934290000000  0.4600090000000 1.0
C      1  0.4767910000000  0.4384650000000  0.5232190000000 1.0
C      1  0.4929550000000  0.4695950000000  0.5614550000000 1.0
C      1  0.5616410000000  0.5633320000000  0.4227150000000 1.0
C      1  0.5197030000000  0.5183090000000  0.5216800000000 1.0
C      1  0.5476390000000  0.4556600000000  0.5087780000000 1.0
C      1  0.4755280000000  0.4115200000000  0.4570210000000 1.0
C      1  0.4945360000000  0.6081200000000  0.4983410000000 1.0
C      1  0.4544670000000  0.5818170000000  0.4873110000000 1.0
C      1  0.4765080000000  0.4887170000000  0.4893910000000 1.0
C      1  0.4466730000000  0.4055360000000  0.5039140000000 1.0
C      1  0.5838170000000  0.4345790000000  0.4833740000000 1.0
C      1  0.5333560000000  0.5603480000000  0.4173860000000 1.0
C      1  0.4126650000000  0.5182930000000  0.4523710000000 1.0
C      1  0.5717900000000  0.5084680000000  0.5630080000000 1.0
C      1  0.4922310000000  0.5794350000000  0.5396950000000 1.0
C      1  0.5947850000000  0.5286530000000  0.5714610000000 1.0
C      1  0.5496040000000  0.5059790000000  0.4749160000000 1.0
C      1  0.4698320000000  0.3998330000000  0.4882240000000 1.0
C      1  0.4262690000000  0.5395300000000  0.5285540000000 1.0
C      1  0.4237340000000  0.4652500000000  0.5816770000000 1.0
C      1  0.4906450000000  0.4477620000000  0.4630820000000 1.0
C      1  0.5346080000000  0.5020690000000  0.5741070000000 1.0
C      1  0.4711950000000  0.5347740000000  0.5523690000000 1.0
C      1  0.4704310000000  0.5232530000000  0.5912980000000 1.0
C      1  0.4367880000000  0.5511220000000  0.4314260000000 1.0
C      1  0.5759580000000  0.5161460000000  0.4847530000000 1.0
C      1  0.4496590000000  0.4415810000000  0.4274930000000 1.0
C      1  0.4899780000000  0.4094750000000  0.5305520000000 1.0
C      1  0.5419770000000  0.4788140000000  0.5504240000000 1.0
C      1  0.4258310000000  0.4911020000000  0.5515380000000 1.0
C      1  0.4157360000000  0.4599560000000  0.5515740000000 1.0
C      1  0.5204720000000  0.5950910000000  0.5507170000000 1.0
C      1  0.4700520000000  0.6093270000000  0.5116020000000 1.0
C      1  0.5857400000000  0.5397270000000  0.5211210000000 1.0
C      1  0.5294320000000  0.4690440000000  0.4135950000000 1.0
END
