TITL C-2778429-3646-393 -0.00325362043565102 125000 -1067.31520490075 0 0 181 (C1) n - 1
REM
REM in /home/nfs/bkarasulu/CARBON/AIRSS/Generating-Clusters/REBO/Only-C1/SD-CG/HFTN-CG
REM
REM
REM
REM
REM
REM ./C.cell (11c1c37f851c82e70ff6c80c92926a4b)
REM
REM compiler GCC version 9.2.1 20190827 (Red Hat 9.2.1-1)
REM options -cpp -mtune=generic -march=x86-64 -g -O0 -fpre-include=/usr/include/finclude/math-vector-fortran.h
REM seed -509663564 1326763494 -205331199 -100276059 -840840850 -2039035929 276541704 293525868 -861382161 -1925093612 1490921481 491987137 1554663649 868827418 -1692526275 -1890380851 1127268314 -228018406 166971616 1196805226 1061827006 1842944904 353056645 -1017310987 749775760 1652151886 -202483365 -1563186612 1852099048 -1090418893 -31144089 -222689889 -896332089
REM
CELL 1.54180   50.00000   50.00000   50.00000   90.00000   90.00000   90.00000
LATT -1
SFAC C  
C      1  0.6057790000000  0.4642180000000  0.5551520000000 1.0
C      1  0.5449760000000  0.5556020000000  0.4221700000000 1.0
C      1  0.4700540000000  0.4659610000000  0.4911620000000 1.0
C      1  0.5202660000000  0.3971060000000  0.4683410000000 1.0
C      1  0.4713390000000  0.5057300000000  0.6074060000000 1.0
C      1  0.4147970000000  0.4645520000000  0.4490860000000 1.0
C      1  0.3949870000000  0.4692050000000  0.5475420000000 1.0
C      1  0.5349980000000  0.4745790000000  0.5361600000000 1.0
C      1  0.5459060000000  0.5150890000000  0.4044390000000 1.0
C      1  0.4905170000000  0.5246020000000  0.4932520000000 1.0
C      1  0.5765500000000  0.5317540000000  0.5626100000000 1.0
C      1  0.5769500000000  0.4574540000000  0.5683120000000 1.0
C      1  0.4256130000000  0.4756720000000  0.5961370000000 1.0
C      1  0.5956760000000  0.5284200000000  0.5345400000000 1.0
C      1  0.5485410000000  0.4550560000000  0.5837600000000 1.0
C      1  0.4953620000000  0.5287860000000  0.3924610000000 1.0
C      1  0.4970560000000  0.4664940000000  0.4578780000000 1.0
C      1  0.4505480000000  0.5875280000000  0.4628750000000 1.0
C      1  0.5148650000000  0.5669210000000  0.4186820000000 1.0
C      1  0.4538110000000  0.5366610000000  0.5532560000000 1.0
C      1  0.4169800000000  0.4941050000000  0.4759010000000 1.0
C      1  0.4170270000000  0.4811930000000  0.5244970000000 1.0
C      1  0.5744010000000  0.5074670000000  0.4766330000000 1.0
C      1  0.4710030000000  0.4497950000000  0.5896410000000 1.0
C      1  0.5246240000000  0.4969440000000  0.5868380000000 1.0
C      1  0.4836020000000  0.5147970000000  0.5387950000000 1.0
C      1  0.4692210000000  0.5918650000000  0.4892940000000 1.0
C      1  0.5204070000000  0.5941040000000  0.4729900000000 1.0
C      1  0.5061400000000  0.5903770000000  0.4418710000000 1.0
C      1  0.4958490000000  0.5814530000000  0.5756450000000 1.0
C      1  0.4619530000000  0.4388460000000  0.4630400000000 1.0
C      1  0.5740330000000  0.5234620000000  0.4489660000000 1.0
C      1  0.5333810000000  0.4545680000000  0.4844460000000 1.0
C      1  0.5129750000000  0.4758810000000  0.4800770000000 1.0
C      1  0.4960960000000  0.4386740000000  0.4402460000000 1.0
C      1  0.4770560000000  0.5504290000000  0.3924760000000 1.0
C      1  0.5104040000000  0.4589030000000  0.5522360000000 1.0
C      1  0.5575030000000  0.4392580000000  0.5268280000000 1.0
C      1  0.4206430000000  0.5398410000000  0.5273680000000 1.0
C      1  0.4176080000000  0.5131430000000  0.4333300000000 1.0
C      1  0.5744890000000  0.4793300000000  0.4259480000000 1.0
C      1  0.4485960000000  0.4661330000000  0.4108810000000 1.0
C      1  0.5884270000000  0.5664560000000  0.5055600000000 1.0
C      1  0.4549450000000  0.4761950000000  0.6015710000000 1.0
C      1  0.4213200000000  0.4829590000000  0.5640330000000 1.0
C      1  0.5616680000000  0.4814890000000  0.4781300000000 1.0
C      1  0.5724940000000  0.4076820000000  0.4872010000000 1.0
C      1  0.6046140000000  0.4511610000000  0.4909030000000 1.0
C      1  0.4984320000000  0.4538260000000  0.5910310000000 1.0
C      1  0.5026360000000  0.5551970000000  0.5965760000000 1.0
C      1  0.4490830000000  0.5864200000000  0.5162620000000 1.0
C      1  0.4261290000000  0.4177260000000  0.5064740000000 1.0
C      1  0.4958680000000  0.5731810000000  0.4844580000000 1.0
C      1  0.5774640000000  0.4427170000000  0.4560990000000 1.0
C      1  0.4137630000000  0.5187470000000  0.4616250000000 1.0
C      1  0.4816110000000  0.5632110000000  0.4579610000000 1.0
C      1  0.5438610000000  0.5247450000000  0.5414100000000 1.0
C      1  0.5075480000000  0.4287430000000  0.4680700000000 1.0
C      1  0.5342650000000  0.4316530000000  0.5044460000000 1.0
C      1  0.5611840000000  0.5580500000000  0.5881330000000 1.0
C      1  0.4927590000000  0.6137760000000  0.4796960000000 1.0
C      1  0.4938410000000  0.4419810000000  0.4892010000000 1.0
C      1  0.5570430000000  0.5152740000000  0.4988710000000 1.0
C      1  0.4488550000000  0.5547100000000  0.4534890000000 1.0
C      1  0.4084530000000  0.4543570000000  0.5756950000000 1.0
C      1  0.6163690000000  0.4892060000000  0.5150560000000 1.0
C      1  0.4633990000000  0.5236300000000  0.4737760000000 1.0
C      1  0.5257840000000  0.3974210000000  0.5231870000000 1.0
C      1  0.4809600000000  0.4008370000000  0.4953940000000 1.0
C      1  0.5317640000000  0.6048520000000  0.5035350000000 1.0
C      1  0.4868810000000  0.5675340000000  0.5286760000000 1.0
C      1  0.5441530000000  0.5296000000000  0.4418030000000 1.0
C      1  0.4429960000000  0.5319400000000  0.4288960000000 1.0
C      1  0.5075320000000  0.5949740000000  0.5488540000000 1.0
C      1  0.3931220000000  0.4554320000000  0.5056130000000 1.0
C      1  0.4481710000000  0.5653250000000  0.5640530000000 1.0
C      1  0.5894090000000  0.4677260000000  0.4474330000000 1.0
C      1  0.6145820000000  0.5057280000000  0.5371370000000 1.0
C      1  0.4413970000000  0.4912740000000  0.5418800000000 1.0
C      1  0.6049170000000  0.4751870000000  0.4723170000000 1.0
C      1  0.5151380000000  0.4313350000000  0.5580390000000 1.0
C      1  0.4875850000000  0.6215700000000  0.5087040000000 1.0
C      1  0.5130360000000  0.6153690000000  0.5221600000000 1.0
C      1  0.4688650000000  0.5426180000000  0.5258870000000 1.0
C      1  0.6078090000000  0.4584470000000  0.5213080000000 1.0
C      1  0.5015240000000  0.5508630000000  0.5044870000000 1.0
C      1  0.4457930000000  0.4120210000000  0.4504130000000 1.0
C      1  0.5888000000000  0.4299460000000  0.4791760000000 1.0
C      1  0.4725150000000  0.5874270000000  0.4368730000000 1.0
C      1  0.4508530000000  0.4912490000000  0.4341310000000 1.0
C      1  0.4739140000000  0.4459450000000  0.4079880000000 1.0
C      1  0.4568420000000  0.4625040000000  0.4505540000000 1.0
C      1  0.4737520000000  0.4072460000000  0.4675500000000 1.0
C      1  0.4904840000000  0.4664560000000  0.5184040000000 1.0
C      1  0.4351500000000  0.5673290000000  0.5358870000000 1.0
C      1  0.5251340000000  0.5045880000000  0.4938430000000 1.0
C      1  0.4865980000000  0.4776900000000  0.4120800000000 1.0
C      1  0.4281740000000  0.4230510000000  0.4774530000000 1.0
C      1  0.4641390000000  0.4154940000000  0.5163740000000 1.0
C      1  0.5484370000000  0.4463760000000  0.4581940000000 1.0
C      1  0.5960640000000  0.5091290000000  0.5783030000000 1.0
C      1  0.5657110000000  0.5238860000000  0.5236210000000 1.0
C      1  0.5012240000000  0.4500770000000  0.3880550000000 1.0
C      1  0.5230400000000  0.4682460000000  0.5890070000000 1.0
C      1  0.4759610000000  0.5382210000000  0.5979160000000 1.0
C      1  0.5051320000000  0.5506810000000  0.4443800000000 1.0
C      1  0.4462230000000  0.4820560000000  0.4751100000000 1.0
C      1  0.4671650000000  0.5686030000000  0.5851580000000 1.0
C      1  0.4535540000000  0.4965510000000  0.4005630000000 1.0
C      1  0.4753020000000  0.5197690000000  0.5704180000000 1.0
C      1  0.4543600000000  0.5445460000000  0.4992070000000 1.0
C      1  0.4406990000000  0.4184050000000  0.5381300000000 1.0
C      1  0.5712800000000  0.5085860000000  0.4215520000000 1.0
C      1  0.4762960000000  0.4884720000000  0.5782200000000 1.0
C      1  0.5352890000000  0.4182110000000  0.5417430000000 1.0
C      1  0.5521630000000  0.4671180000000  0.5077570000000 1.0
C      1  0.4315300000000  0.4655240000000  0.5013030000000 1.0
C      1  0.4035290000000  0.5077670000000  0.5107110000000 1.0
C      1  0.4583760000000  0.4546290000000  0.5458690000000 1.0
C      1  0.5213580000000  0.4361170000000  0.4194850000000 1.0
C      1  0.5657320000000  0.5635330000000  0.5566590000000 1.0
C      1  0.4116810000000  0.4848680000000  0.4303260000000 1.0
C      1  0.5590370000000  0.5760420000000  0.4369610000000 1.0
C      1  0.4322700000000  0.5205190000000  0.5017150000000 1.0
C      1  0.4230850000000  0.5441500000000  0.4694360000000 1.0
C      1  0.5730060000000  0.5749830000000  0.5268470000000 1.0
C      1  0.5834930000000  0.4433110000000  0.5396820000000 1.0
C      1  0.4211890000000  0.4510260000000  0.4732290000000 1.0
C      1  0.4288660000000  0.5199120000000  0.5509240000000 1.0
C      1  0.4134370000000  0.5641990000000  0.4867820000000 1.0
C      1  0.5528520000000  0.4801800000000  0.5611380000000 1.0
C      1  0.5352060000000  0.5508870000000  0.5929250000000 1.0
C      1  0.5780340000000  0.5657250000000  0.4786750000000 1.0
C      1  0.5424620000000  0.4822720000000  0.4137760000000 1.0
C      1  0.4881430000000  0.4845500000000  0.4393180000000 1.0
C      1  0.4554270000000  0.4474990000000  0.5151740000000 1.0
C      1  0.5391780000000  0.5826010000000  0.5462210000000 1.0
C      1  0.4681370000000  0.5164390000000  0.4454040000000 1.0
C      1  0.5194680000000  0.5203760000000  0.5231160000000 1.0
C      1  0.5328460000000  0.4247620000000  0.4450190000000 1.0
C      1  0.5284060000000  0.5021920000000  0.4377170000000 1.0
C      1  0.4998400000000  0.5207120000000  0.4408710000000 1.0
C      1  0.6113460000000  0.4929820000000  0.5616780000000 1.0
C      1  0.4118700000000  0.5197390000000  0.5764760000000 1.0
C      1  0.5449290000000  0.4075290000000  0.4886040000000 1.0
C      1  0.4103340000000  0.4386400000000  0.5218720000000 1.0
C      1  0.4886380000000  0.4159640000000  0.5617000000000 1.0
C      1  0.6047600000000  0.5437960000000  0.5101520000000 1.0
C      1  0.5502650000000  0.5911230000000  0.5186110000000 1.0
C      1  0.4722120000000  0.4195910000000  0.4296870000000 1.0
C      1  0.4784520000000  0.5973240000000  0.5292190000000 1.0
C      1  0.5490090000000  0.5759450000000  0.4679460000000 1.0
C      1  0.5232130000000  0.5377230000000  0.4024690000000 1.0
C      1  0.4109990000000  0.5043630000000  0.5961700000000 1.0
C      1  0.6116870000000  0.4988220000000  0.4881740000000 1.0
C      1  0.5137500000000  0.5223810000000  0.4709950000000 1.0
C      1  0.3876220000000  0.5343000000000  0.5222490000000 1.0
C      1  0.5061890000000  0.4362650000000  0.5182370000000 1.0
C      1  0.5501960000000  0.5108020000000  0.5691960000000 1.0
C      1  0.5311660000000  0.5500290000000  0.4643730000000 1.0
C      1  0.4652490000000  0.5760150000000  0.4097920000000 1.0
C      1  0.4589750000000  0.4281920000000  0.5660110000000 1.0
C      1  0.4260360000000  0.4447780000000  0.5505910000000 1.0
C      1  0.4302590000000  0.5859100000000  0.4892630000000 1.0
C      1  0.5129700000000  0.5497220000000  0.5369110000000 1.0
C      1  0.5906480000000  0.5424190000000  0.4663390000000 1.0
C      1  0.4955110000000  0.3991210000000  0.4448260000000 1.0
C      1  0.5069700000000  0.4916480000000  0.5297520000000 1.0
C      1  0.3946990000000  0.4807010000000  0.4917050000000 1.0
C      1  0.4479140000000  0.5491070000000  0.4047560000000 1.0
C      1  0.4836060000000  0.4694640000000  0.5573400000000 1.0
C      1  0.4907050000000  0.4142270000000  0.5316790000000 1.0
C      1  0.4672660000000  0.4894550000000  0.5269750000000 1.0
C      1  0.5036970000000  0.5097630000000  0.5981030000000 1.0
C      1  0.5090160000000  0.3944060000000  0.4999380000000 1.0
C      1  0.5162750000000  0.5559150000000  0.5652550000000 1.0
C      1  0.5260290000000  0.4592470000000  0.4019650000000 1.0
C      1  0.6075170000000  0.5278810000000  0.4857250000000 1.0
C      1  0.5426060000000  0.4780720000000  0.4535830000000 1.0
C      1  0.4833290000000  0.5028890000000  0.3939300000000 1.0
C      1  0.4632100000000  0.5060170000000  0.5021510000000 1.0
END
