TITL C-2778429-3646-325 -0.00368050624660101 125000 -716.026596238237 0 0 122 (C1) n - 1
REM
REM in /home/nfs/bkarasulu/CARBON/AIRSS/Generating-Clusters/REBO/Only-C1/SD-CG/HFTN-CG
REM
REM
REM
REM
REM
REM ./C.cell (11c1c37f851c82e70ff6c80c92926a4b)
REM
REM compiler GCC version 9.2.1 20190827 (Red Hat 9.2.1-1)
REM options -cpp -mtune=generic -march=x86-64 -g -O0 -fpre-include=/usr/include/finclude/math-vector-fortran.h
REM seed 535481094 1575262020 1948208565 -1390982176 550076319 1350385687 1518100552 125113521 1955169358 1762140502 1152298239 878501725 -1202553703 1201894922 -1838027868 2126464902 -1551775165 1075158777 64881632 -1840421226 204632631 113316726 -1513771114 -450974600 1911049292 -647178150 -793626720 -1628750107 179629809 -178548703 -1791798166 1618298715 1662645608
REM
CELL 1.54180   50.00000   50.00000   50.00000   90.00000   90.00000   90.00000
LATT -1
SFAC C  
C      1  0.5234430000000  0.4706700000000  0.5299240000000 1.0
C      1  0.5031720000000  0.5849640000000  0.4563530000000 1.0
C      1  0.4594800000000  0.5177850000000  0.4027830000000 1.0
C      1  0.4259010000000  0.4315920000000  0.4981290000000 1.0
C      1  0.4709990000000  0.4138890000000  0.4664000000000 1.0
C      1  0.5038450000000  0.5509420000000  0.4193350000000 1.0
C      1  0.5435970000000  0.4223750000000  0.5134350000000 1.0
C      1  0.4511470000000  0.5207660000000  0.4297710000000 1.0
C      1  0.4870480000000  0.5916630000000  0.4821620000000 1.0
C      1  0.4354470000000  0.5042290000000  0.5178370000000 1.0
C      1  0.5396990000000  0.5130750000000  0.4211730000000 1.0
C      1  0.4166950000000  0.5381900000000  0.4839260000000 1.0
C      1  0.4940260000000  0.4594990000000  0.4510830000000 1.0
C      1  0.4785160000000  0.4446350000000  0.5453120000000 1.0
C      1  0.5342640000000  0.5116770000000  0.5583610000000 1.0
C      1  0.4246630000000  0.5082930000000  0.5560700000000 1.0
C      1  0.4537940000000  0.5507560000000  0.4421620000000 1.0
C      1  0.4556090000000  0.5313260000000  0.4685540000000 1.0
C      1  0.5563390000000  0.5162240000000  0.5138220000000 1.0
C      1  0.5483160000000  0.5080700000000  0.4854070000000 1.0
C      1  0.5130850000000  0.4648940000000  0.5971110000000 1.0
C      1  0.5709230000000  0.4838670000000  0.4630260000000 1.0
C      1  0.4646640000000  0.5120490000000  0.5021460000000 1.0
C      1  0.4012430000000  0.4680340000000  0.4829340000000 1.0
C      1  0.4553140000000  0.5502040000000  0.5498920000000 1.0
C      1  0.5728460000000  0.5169470000000  0.4668580000000 1.0
C      1  0.5150110000000  0.4953380000000  0.6044970000000 1.0
C      1  0.5201810000000  0.5205440000000  0.4791600000000 1.0
C      1  0.4761150000000  0.5561320000000  0.5055730000000 1.0
C      1  0.5006210000000  0.4605670000000  0.4186320000000 1.0
C      1  0.4911570000000  0.4446060000000  0.5013170000000 1.0
C      1  0.4597720000000  0.5814280000000  0.5416840000000 1.0
C      1  0.5528840000000  0.4669640000000  0.5222120000000 1.0
C      1  0.5309670000000  0.5617630000000  0.4206230000000 1.0
C      1  0.4922080000000  0.5117280000000  0.6013080000000 1.0
C      1  0.6091820000000  0.5110940000000  0.5033620000000 1.0
C      1  0.5558170000000  0.5692080000000  0.5073060000000 1.0
C      1  0.5430550000000  0.5458050000000  0.4737280000000 1.0
C      1  0.5711850000000  0.4878060000000  0.5775450000000 1.0
C      1  0.5233580000000  0.4273570000000  0.5591100000000 1.0
C      1  0.5064360000000  0.5236890000000  0.4482030000000 1.0
C      1  0.5278890000000  0.5759150000000  0.5350140000000 1.0
C      1  0.4531330000000  0.4661750000000  0.4204340000000 1.0
C      1  0.4162600000000  0.5310350000000  0.5115480000000 1.0
C      1  0.4136260000000  0.4376400000000  0.5279560000000 1.0
C      1  0.5359990000000  0.5079280000000  0.5921920000000 1.0
C      1  0.5982230000000  0.4884260000000  0.5167910000000 1.0
C      1  0.5669290000000  0.5434240000000  0.4498800000000 1.0
C      1  0.4054130000000  0.5206510000000  0.5383320000000 1.0
C      1  0.5660750000000  0.5137990000000  0.5674080000000 1.0
C      1  0.5936700000000  0.5289200000000  0.4882050000000 1.0
C      1  0.5710220000000  0.4921590000000  0.5233270000000 1.0
C      1  0.5498230000000  0.5727030000000  0.4449890000000 1.0
C      1  0.5658690000000  0.4356400000000  0.5013710000000 1.0
C      1  0.3986140000000  0.4893960000000  0.4594440000000 1.0
C      1  0.4589460000000  0.4665360000000  0.5597800000000 1.0
C      1  0.5217000000000  0.4833580000000  0.5592100000000 1.0
C      1  0.4899380000000  0.5234470000000  0.5754200000000 1.0
C      1  0.5592620000000  0.4647660000000  0.4887380000000 1.0
C      1  0.5509440000000  0.5391830000000  0.4233660000000 1.0
C      1  0.4157860000000  0.4412330000000  0.4667630000000 1.0
C      1  0.5050280000000  0.5908000000000  0.5052710000000 1.0
C      1  0.5351670000000  0.5876570000000  0.4654140000000 1.0
C      1  0.5238640000000  0.5513640000000  0.5234300000000 1.0
C      1  0.5929180000000  0.4372870000000  0.5110030000000 1.0
C      1  0.5266090000000  0.4692520000000  0.4471120000000 1.0
C      1  0.4588730000000  0.4341130000000  0.4986150000000 1.0
C      1  0.4628260000000  0.4992690000000  0.4463500000000 1.0
C      1  0.4835400000000  0.5024230000000  0.4016890000000 1.0
C      1  0.4829650000000  0.5136190000000  0.4666530000000 1.0
C      1  0.4631020000000  0.4657670000000  0.4526860000000 1.0
C      1  0.5338790000000  0.4796360000000  0.4766710000000 1.0
C      1  0.5692980000000  0.4570260000000  0.5679700000000 1.0
C      1  0.4486370000000  0.5239680000000  0.5569490000000 1.0
C      1  0.4935040000000  0.4843840000000  0.5683160000000 1.0
C      1  0.6063280000000  0.4610660000000  0.5159020000000 1.0
C      1  0.4740790000000  0.4736160000000  0.5079280000000 1.0
C      1  0.5172610000000  0.5532860000000  0.4571860000000 1.0
C      1  0.5420490000000  0.4700200000000  0.5810890000000 1.0
C      1  0.4880240000000  0.5526780000000  0.4734790000000 1.0
C      1  0.4827290000000  0.5626260000000  0.4405110000000 1.0
C      1  0.5312560000000  0.4650770000000  0.4177750000000 1.0
C      1  0.5676640000000  0.4481310000000  0.5422850000000 1.0
C      1  0.4115710000000  0.4826400000000  0.5119950000000 1.0
C      1  0.5590010000000  0.5428750000000  0.5563680000000 1.0
C      1  0.4890410000000  0.4068920000000  0.5156750000000 1.0
C      1  0.5314300000000  0.5252140000000  0.5322110000000 1.0
C      1  0.4895970000000  0.5854970000000  0.5289920000000 1.0
C      1  0.4867050000000  0.5529390000000  0.5379410000000 1.0
C      1  0.5067210000000  0.5171050000000  0.4163290000000 1.0
C      1  0.5726910000000  0.5503060000000  0.4887470000000 1.0
C      1  0.4488800000000  0.4379500000000  0.4661770000000 1.0
C      1  0.4132330000000  0.4640630000000  0.5367600000000 1.0
C      1  0.5062460000000  0.4810250000000  0.5080430000000 1.0
C      1  0.5162620000000  0.4215740000000  0.5020010000000 1.0
C      1  0.5318760000000  0.5507970000000  0.5656340000000 1.0
C      1  0.4728140000000  0.5041670000000  0.5561550000000 1.0
C      1  0.4393250000000  0.5599440000000  0.4715620000000 1.0
C      1  0.4321230000000  0.4636230000000  0.4951830000000 1.0
C      1  0.4957610000000  0.5082510000000  0.4964330000000 1.0
C      1  0.5054920000000  0.4636340000000  0.4799520000000 1.0
C      1  0.5044500000000  0.5430740000000  0.5608530000000 1.0
C      1  0.4286690000000  0.4787580000000  0.5561500000000 1.0
C      1  0.5430450000000  0.4166550000000  0.5416790000000 1.0
C      1  0.4905190000000  0.4083020000000  0.4837970000000 1.0
C      1  0.5073270000000  0.4344350000000  0.5835220000000 1.0
C      1  0.5550420000000  0.4931350000000  0.4333280000000 1.0
C      1  0.4827480000000  0.4579400000000  0.5826670000000 1.0
C      1  0.4247140000000  0.4652750000000  0.4205650000000 1.0
C      1  0.5339820000000  0.5851890000000  0.4956440000000 1.0
C      1  0.4551680000000  0.4782700000000  0.4831950000000 1.0
C      1  0.4405390000000  0.5066610000000  0.4785090000000 1.0
C      1  0.5079520000000  0.5511540000000  0.5009950000000 1.0
C      1  0.4084160000000  0.4644630000000  0.4439930000000 1.0
C      1  0.5775040000000  0.4709240000000  0.4323980000000 1.0
C      1  0.5643690000000  0.5465410000000  0.5274240000000 1.0
C      1  0.5067550000000  0.4486810000000  0.5461640000000 1.0
C      1  0.4116450000000  0.5129720000000  0.4665970000000 1.0
C      1  0.4786340000000  0.4742270000000  0.4066280000000 1.0
C      1  0.4599300000000  0.5776210000000  0.4868610000000 1.0
C      1  0.4596490000000  0.4866170000000  0.5321570000000 1.0
C      1  0.4694280000000  0.4245660000000  0.5280340000000 1.0
END
