TITL C-2778435-5768-275 0.00268699174541425 125000 -242.481270350122 0 0 42 (C1) n - 1
REM
REM in /home/nfs/bkarasulu/CARBON/AIRSS/Generating-Clusters/REBO/Only-C1/SD-CG/HFTN-CG
REM
REM
REM
REM
REM
REM ./C.cell (11c1c37f851c82e70ff6c80c92926a4b)
REM
REM compiler GCC version 9.2.1 20190827 (Red Hat 9.2.1-1)
REM options -cpp -mtune=generic -march=x86-64 -g -O0 -fpre-include=/usr/include/finclude/math-vector-fortran.h
REM seed -527436432 -670155028 -974807961 -1640723648 -870901317 1016362944 235549098 481055181 -201877262 2137829748 904492836 1019328948 1685343562 -2017465594 1618088136 -815319897 709742944 491168321 622745450 1677520834 -1808766829 -1924453747 -1803829614 -2121245468 817263609 -390961628 -1239521648 814700680 -802406950 -1502127905 -1139507478 229715725 -115407059
REM
CELL 1.54180   50.00000   50.00000   50.00000   90.00000   90.00000   90.00000
LATT -1
SFAC C  
C      1  0.4596880000000  0.5244150000000  0.5319820000000 1.0
C      1  0.5056650000000  0.4838050000000  0.4946160000000 1.0
C      1  0.5081210000000  0.5109010000000  0.5447520000000 1.0
C      1  0.4870700000000  0.5001170000000  0.4811750000000 1.0
C      1  0.5245830000000  0.4872910000000  0.5586390000000 1.0
C      1  0.4447180000000  0.4825860000000  0.4698910000000 1.0
C      1  0.4707620000000  0.5648670000000  0.4871950000000 1.0
C      1  0.4966850000000  0.5630020000000  0.4746080000000 1.0
C      1  0.5251390000000  0.5219230000000  0.5184380000000 1.0
C      1  0.5502010000000  0.4760220000000  0.5546200000000 1.0
C      1  0.5032730000000  0.4712700000000  0.5445460000000 1.0
C      1  0.5345910000000  0.4855030000000  0.4780640000000 1.0
C      1  0.4329270000000  0.4893430000000  0.4942640000000 1.0
C      1  0.4655150000000  0.4761580000000  0.5307870000000 1.0
C      1  0.5206520000000  0.4562260000000  0.4700550000000 1.0
C      1  0.4956560000000  0.5093530000000  0.4504310000000 1.0
C      1  0.4825510000000  0.4419880000000  0.4962400000000 1.0
C      1  0.5737930000000  0.4724400000000  0.5317640000000 1.0
C      1  0.4527350000000  0.5446170000000  0.4791890000000 1.0
C      1  0.4739070000000  0.5494610000000  0.5339170000000 1.0
C      1  0.4722750000000  0.4697020000000  0.4598180000000 1.0
C      1  0.4630000000000  0.5142620000000  0.4859930000000 1.0
C      1  0.4449610000000  0.4977260000000  0.5186750000000 1.0
C      1  0.5652730000000  0.4820230000000  0.4829790000000 1.0
C      1  0.5134730000000  0.4942730000000  0.4350840000000 1.0
C      1  0.4694930000000  0.5705340000000  0.5151650000000 1.0
C      1  0.4715140000000  0.4514940000000  0.5193280000000 1.0
C      1  0.4424430000000  0.5212410000000  0.4602670000000 1.0
C      1  0.5512560000000  0.4495580000000  0.5350120000000 1.0
C      1  0.5089300000000  0.4654210000000  0.5172520000000 1.0
C      1  0.5305880000000  0.5148780000000  0.4914880000000 1.0
C      1  0.5340380000000  0.4375200000000  0.4877890000000 1.0
C      1  0.5042490000000  0.5381980000000  0.4552930000000 1.0
C      1  0.5308620000000  0.4457680000000  0.5149600000000 1.0
C      1  0.4645890000000  0.5001020000000  0.4481780000000 1.0
C      1  0.4782350000000  0.5018760000000  0.5400860000000 1.0
C      1  0.5014520000000  0.5441110000000  0.5411650000000 1.0
C      1  0.5227280000000  0.5638730000000  0.4933240000000 1.0
C      1  0.4917010000000  0.4540310000000  0.4718630000000 1.0
C      1  0.5801580000000  0.4801820000000  0.5056050000000 1.0
C      1  0.5225370000000  0.5533700000000  0.5206950000000 1.0
C      1  0.5280110000000  0.5385680000000  0.4748070000000 1.0
END
