TITL C-2778427-5640-1158 -0.00571222820400739 125000 -1025.08357399867 0 0 173 (C1) n - 1
REM
REM in /home/nfs/bkarasulu/CARBON/AIRSS/Generating-Clusters/REBO/Only-C1/SD-CG/HFTN-CG
REM
REM
REM
REM
REM
REM ./C.cell (11c1c37f851c82e70ff6c80c92926a4b)
REM
REM compiler GCC version 9.2.1 20190827 (Red Hat 9.2.1-1)
REM options -cpp -mtune=generic -march=x86-64 -g -O0 -fpre-include=/usr/include/finclude/math-vector-fortran.h
REM seed 1623562321 2057952518 -1713260916 691896909 -1271986438 1020309973 585599460 -1674860769 138933713 -15611338 1941348193 280907022 -504443786 -757483379 309328481 -1375764228 1172493220 -988010529 904296183 -1270653059 1444513238 -1935673246 -1625673967 1543101838 -2090186499 -907145077 -1725363946 -1434302462 -1029487900 -1591569391 380335897 -1788283362 -51155162
REM
CELL 1.54180   50.00000   50.00000   50.00000   90.00000   90.00000   90.00000
LATT -1
SFAC C  
C      1  0.5135210000000  0.5872420000000  0.5254540000000 1.0
C      1  0.4597390000000  0.5230810000000  0.5605000000000 1.0
C      1  0.4557470000000  0.5480830000000  0.5086140000000 1.0
C      1  0.4829810000000  0.4200620000000  0.4398050000000 1.0
C      1  0.4430040000000  0.4714580000000  0.4773200000000 1.0
C      1  0.5112500000000  0.5205100000000  0.6050680000000 1.0
C      1  0.5585170000000  0.4138820000000  0.5038910000000 1.0
C      1  0.4165460000000  0.5418050000000  0.5117040000000 1.0
C      1  0.6019260000000  0.4915900000000  0.4492810000000 1.0
C      1  0.5116190000000  0.5578230000000  0.5412720000000 1.0
C      1  0.5864290000000  0.5094890000000  0.4337260000000 1.0
C      1  0.5849250000000  0.4421790000000  0.4662700000000 1.0
C      1  0.4904360000000  0.4682990000000  0.4980070000000 1.0
C      1  0.4325730000000  0.5703450000000  0.5017400000000 1.0
C      1  0.5299820000000  0.4123930000000  0.4661160000000 1.0
C      1  0.5580130000000  0.5562360000000  0.4753380000000 1.0
C      1  0.4101700000000  0.5165240000000  0.4498970000000 1.0
C      1  0.4400970000000  0.4293070000000  0.5580160000000 1.0
C      1  0.4534630000000  0.5547810000000  0.5572440000000 1.0
C      1  0.5122450000000  0.6076740000000  0.4681230000000 1.0
C      1  0.5957580000000  0.5386940000000  0.4774860000000 1.0
C      1  0.4574320000000  0.5179760000000  0.5941360000000 1.0
C      1  0.4125670000000  0.5327960000000  0.4729940000000 1.0
C      1  0.5428810000000  0.5663090000000  0.5521940000000 1.0
C      1  0.5578980000000  0.4610180000000  0.5811290000000 1.0
C      1  0.4774000000000  0.4981830000000  0.6091220000000 1.0
C      1  0.4923890000000  0.5199600000000  0.4894260000000 1.0
C      1  0.4842040000000  0.4649780000000  0.5494610000000 1.0
C      1  0.4622680000000  0.5258360000000  0.4497670000000 1.0
C      1  0.5621970000000  0.5191780000000  0.5852910000000 1.0
C      1  0.5659540000000  0.5042650000000  0.4147900000000 1.0
C      1  0.6005140000000  0.5255780000000  0.5378600000000 1.0
C      1  0.5342130000000  0.5406560000000  0.5228350000000 1.0
C      1  0.4595650000000  0.5770530000000  0.4440550000000 1.0
C      1  0.5732360000000  0.4313860000000  0.5236290000000 1.0
C      1  0.5092430000000  0.5567200000000  0.4179790000000 1.0
C      1  0.5154440000000  0.4574850000000  0.4605360000000 1.0
C      1  0.4516450000000  0.4209080000000  0.5022660000000 1.0
C      1  0.4775570000000  0.4776750000000  0.4352700000000 1.0
C      1  0.5461080000000  0.4489700000000  0.4613440000000 1.0
C      1  0.4536010000000  0.4389140000000  0.4789900000000 1.0
C      1  0.5275230000000  0.5380600000000  0.4318370000000 1.0
C      1  0.5569050000000  0.5055560000000  0.5231670000000 1.0
C      1  0.5041100000000  0.5258980000000  0.5442990000000 1.0
C      1  0.5491440000000  0.5246270000000  0.4663730000000 1.0
C      1  0.4768820000000  0.5916540000000  0.5031160000000 1.0
C      1  0.5211220000000  0.4041340000000  0.5358170000000 1.0
C      1  0.4349870000000  0.5942390000000  0.5228730000000 1.0
C      1  0.5165080000000  0.4356790000000  0.5770750000000 1.0
C      1  0.4538780000000  0.4489290000000  0.4158340000000 1.0
C      1  0.4700430000000  0.5618660000000  0.4156490000000 1.0
C      1  0.4720790000000  0.4049700000000  0.5209760000000 1.0
C      1  0.4687090000000  0.4547840000000  0.4524780000000 1.0
C      1  0.4560000000000  0.4963240000000  0.4120270000000 1.0
C      1  0.4358640000000  0.4753430000000  0.5309540000000 1.0
C      1  0.5247910000000  0.4900470000000  0.4647340000000 1.0
C      1  0.4327970000000  0.4326050000000  0.5247950000000 1.0
C      1  0.5403650000000  0.5935660000000  0.4802910000000 1.0
C      1  0.5238360000000  0.4770830000000  0.4101990000000 1.0
C      1  0.5499480000000  0.5294340000000  0.4101380000000 1.0
C      1  0.5297270000000  0.4302170000000  0.5502510000000 1.0
C      1  0.4586260000000  0.5300300000000  0.4158650000000 1.0
C      1  0.4591200000000  0.4699020000000  0.5074150000000 1.0
C      1  0.5329560000000  0.4536520000000  0.5923870000000 1.0
C      1  0.5118930000000  0.5525960000000  0.5017950000000 1.0
C      1  0.5460430000000  0.5233290000000  0.5466750000000 1.0
C      1  0.4866080000000  0.5083890000000  0.4344530000000 1.0
C      1  0.4958960000000  0.5091390000000  0.5203030000000 1.0
C      1  0.5621990000000  0.4207800000000  0.4717540000000 1.0
C      1  0.5149740000000  0.3961850000000  0.4891900000000 1.0
C      1  0.4402420000000  0.4726960000000  0.4222700000000 1.0
C      1  0.4128880000000  0.5596620000000  0.4688440000000 1.0
C      1  0.6086640000000  0.5157890000000  0.5086530000000 1.0
C      1  0.4925520000000  0.4908460000000  0.4761360000000 1.0
C      1  0.5073470000000  0.4706630000000  0.3880590000000 1.0
C      1  0.4674690000000  0.5379930000000  0.4803870000000 1.0
C      1  0.5342710000000  0.4941700000000  0.5042700000000 1.0
C      1  0.6146230000000  0.5094090000000  0.4755680000000 1.0
C      1  0.4829500000000  0.5634610000000  0.5091620000000 1.0
C      1  0.5821980000000  0.5074460000000  0.4801430000000 1.0
C      1  0.4906420000000  0.5430250000000  0.3958910000000 1.0
C      1  0.5256780000000  0.5552890000000  0.5784150000000 1.0
C      1  0.3967570000000  0.5032140000000  0.5461920000000 1.0
C      1  0.5315190000000  0.5255650000000  0.4936370000000 1.0
C      1  0.4647340000000  0.5970030000000  0.4777980000000 1.0
C      1  0.5572220000000  0.5521330000000  0.4355840000000 1.0
C      1  0.5345060000000  0.4411630000000  0.4239040000000 1.0
C      1  0.5641530000000  0.5481610000000  0.5715960000000 1.0
C      1  0.4089170000000  0.4504760000000  0.5152480000000 1.0
C      1  0.5675430000000  0.4896030000000  0.5699970000000 1.0
C      1  0.6002600000000  0.4517240000000  0.5285940000000 1.0
C      1  0.5646950000000  0.4610440000000  0.5134030000000 1.0
C      1  0.5755190000000  0.5216870000000  0.5072500000000 1.0
C      1  0.5222460000000  0.5094620000000  0.5627760000000 1.0
C      1  0.4803170000000  0.4529490000000  0.3992460000000 1.0
C      1  0.4781740000000  0.4857440000000  0.3899390000000 1.0
C      1  0.4256620000000  0.4706400000000  0.4480700000000 1.0
C      1  0.3961400000000  0.4802550000000  0.4810170000000 1.0
C      1  0.4702690000000  0.4147230000000  0.5537570000000 1.0
C      1  0.4872880000000  0.5342500000000  0.5951650000000 1.0
C      1  0.4634740000000  0.4463750000000  0.5305840000000 1.0
C      1  0.5344920000000  0.5323430000000  0.5931850000000 1.0
C      1  0.4917870000000  0.5115170000000  0.4035970000000 1.0
C      1  0.5376670000000  0.5871430000000  0.5089750000000 1.0
C      1  0.5397420000000  0.4638080000000  0.4915850000000 1.0
C      1  0.6031480000000  0.4693610000000  0.5067210000000 1.0
C      1  0.5043450000000  0.5387510000000  0.4653090000000 1.0
C      1  0.5784040000000  0.4683640000000  0.4836570000000 1.0
C      1  0.4223570000000  0.5416250000000  0.5644690000000 1.0
C      1  0.5015330000000  0.4361790000000  0.4160940000000 1.0
C      1  0.5207860000000  0.5267270000000  0.3942790000000 1.0
C      1  0.4949350000000  0.5828680000000  0.4271750000000 1.0
C      1  0.4498660000000  0.4283880000000  0.4407140000000 1.0
C      1  0.5751370000000  0.5532510000000  0.5008060000000 1.0
C      1  0.5608010000000  0.5702980000000  0.5234220000000 1.0
C      1  0.4892850000000  0.4295540000000  0.5769500000000 1.0
C      1  0.5135770000000  0.4828300000000  0.5696600000000 1.0
C      1  0.4339780000000  0.5190250000000  0.4924130000000 1.0
C      1  0.4067920000000  0.4540530000000  0.4868430000000 1.0
C      1  0.5568890000000  0.5816940000000  0.4526070000000 1.0
C      1  0.3930240000000  0.5225840000000  0.5216530000000 1.0
C      1  0.4377820000000  0.5798910000000  0.4701210000000 1.0
C      1  0.5072770000000  0.4938330000000  0.6173850000000 1.0
C      1  0.5080300000000  0.4726490000000  0.4333700000000 1.0
C      1  0.5043210000000  0.4422990000000  0.5058710000000 1.0
C      1  0.5279680000000  0.5584660000000  0.4658920000000 1.0
C      1  0.5518180000000  0.4800860000000  0.4151470000000 1.0
C      1  0.5593060000000  0.4294830000000  0.5520860000000 1.0
C      1  0.4249570000000  0.4398020000000  0.4615670000000 1.0
C      1  0.4322220000000  0.5219050000000  0.4340930000000 1.0
C      1  0.5313490000000  0.4321840000000  0.4941650000000 1.0
C      1  0.5690490000000  0.4815290000000  0.5371100000000 1.0
C      1  0.3963040000000  0.4978140000000  0.5029780000000 1.0
C      1  0.5157720000000  0.4603450000000  0.5455960000000 1.0
C      1  0.4262110000000  0.5011120000000  0.5194160000000 1.0
C      1  0.4790150000000  0.5694790000000  0.5612340000000 1.0
C      1  0.5130860000000  0.5145220000000  0.4477030000000 1.0
C      1  0.4463130000000  0.4476200000000  0.5844900000000 1.0
C      1  0.4656350000000  0.5033020000000  0.5137670000000 1.0
C      1  0.5170840000000  0.4193580000000  0.4416210000000 1.0
C      1  0.4128550000000  0.5154600000000  0.5687020000000 1.0
C      1  0.5105650000000  0.4799590000000  0.5200870000000 1.0
C      1  0.4263550000000  0.5572630000000  0.5379850000000 1.0
C      1  0.4966960000000  0.5564610000000  0.5787990000000 1.0
C      1  0.5326960000000  0.3964800000000  0.5120210000000 1.0
C      1  0.5043310000000  0.5764300000000  0.4785230000000 1.0
C      1  0.4864130000000  0.5888460000000  0.5417450000000 1.0
C      1  0.4925300000000  0.4362360000000  0.4682330000000 1.0
C      1  0.5237800000000  0.5853310000000  0.4449880000000 1.0
C      1  0.4840300000000  0.6002810000000  0.4528080000000 1.0
C      1  0.4593280000000  0.4993360000000  0.4805560000000 1.0
C      1  0.3968580000000  0.4731330000000  0.5377960000000 1.0
C      1  0.4297090000000  0.5022670000000  0.5877300000000 1.0
C      1  0.4345740000000  0.4751030000000  0.5827700000000 1.0
C      1  0.5576090000000  0.4913850000000  0.4691930000000 1.0
C      1  0.5922460000000  0.4652280000000  0.4463110000000 1.0
C      1  0.5794580000000  0.4546660000000  0.5554130000000 1.0
C      1  0.5217430000000  0.4703950000000  0.6122680000000 1.0
C      1  0.4903010000000  0.4147240000000  0.4941360000000 1.0
C      1  0.4484030000000  0.5250820000000  0.5291460000000 1.0
C      1  0.4187400000000  0.4554720000000  0.5532300000000 1.0
C      1  0.5886620000000  0.5151540000000  0.5638610000000 1.0
C      1  0.4795330000000  0.5620800000000  0.4634600000000 1.0
C      1  0.4530030000000  0.4750190000000  0.5564180000000 1.0
C      1  0.5619190000000  0.4581470000000  0.4350060000000 1.0
C      1  0.5732670000000  0.5436200000000  0.5404810000000 1.0
C      1  0.4034880000000  0.4896640000000  0.4549710000000 1.0
C      1  0.4925720000000  0.4292360000000  0.5320990000000 1.0
C      1  0.4868920000000  0.4768810000000  0.5875000000000 1.0
C      1  0.4741340000000  0.4494320000000  0.5893050000000 1.0
C      1  0.4624540000000  0.6026770000000  0.5273190000000 1.0
C      1  0.4769330000000  0.4963240000000  0.5612200000000 1.0
C      1  0.5781720000000  0.5332460000000  0.4499740000000 1.0
END
