TITL C-2778422-5617-193 -0.000589147677201927 125000 -969.197044988294 0 0 164 (C1) n - 1
REM
REM in /home/nfs/bkarasulu/CARBON/AIRSS/Generating-Clusters/REBO/Only-C1/SD-CG/HFTN-CG
REM
REM
REM
REM
REM
REM ./C.cell (11c1c37f851c82e70ff6c80c92926a4b)
REM
REM compiler GCC version 9.2.1 20190827 (Red Hat 9.2.1-1)
REM options -cpp -mtune=generic -march=x86-64 -g -O0 -fpre-include=/usr/include/finclude/math-vector-fortran.h
REM seed 674509572 1331587993 -2104118251 -738413237 -1631334639 767072832 -761467160 599863021 -496102290 2036369394 1043249896 1174823207 2058574784 -669029049 -1474400193 2106428311 922920920 1163676669 -571777169 1362243244 79494165 1283165479 -1867796249 -868120601 -1056530362 -488628636 -275021780 -1716231242 -1637140023 1575705890 1313002533 1701905327 -1491901870
REM
CELL 1.54180   50.00000   50.00000   50.00000   90.00000   90.00000   90.00000
LATT -1
SFAC C  
C      1  0.5280260000000  0.5647960000000  0.5357030000000 1.0
C      1  0.5605130000000  0.5324270000000  0.5033500000000 1.0
C      1  0.5512390000000  0.5991490000000  0.4800270000000 1.0
C      1  0.5977110000000  0.4793810000000  0.4809790000000 1.0
C      1  0.5045110000000  0.4860120000000  0.4425690000000 1.0
C      1  0.5395660000000  0.4313030000000  0.5903480000000 1.0
C      1  0.4533040000000  0.4111800000000  0.4963110000000 1.0
C      1  0.4681290000000  0.4869050000000  0.5844470000000 1.0
C      1  0.5333050000000  0.4578970000000  0.4689480000000 1.0
C      1  0.5010920000000  0.5985020000000  0.4706670000000 1.0
C      1  0.5316850000000  0.4605970000000  0.5029960000000 1.0
C      1  0.4210540000000  0.5233150000000  0.5283480000000 1.0
C      1  0.5823540000000  0.4730370000000  0.5689860000000 1.0
C      1  0.4901260000000  0.4924240000000  0.3940440000000 1.0
C      1  0.5250640000000  0.6064150000000  0.4863240000000 1.0
C      1  0.4052010000000  0.4575810000000  0.4892850000000 1.0
C      1  0.5126150000000  0.5419980000000  0.5867260000000 1.0
C      1  0.4084720000000  0.4922370000000  0.4886910000000 1.0
C      1  0.4695240000000  0.5644550000000  0.5734880000000 1.0
C      1  0.4489730000000  0.5068780000000  0.5357320000000 1.0
C      1  0.4302340000000  0.5320040000000  0.5603010000000 1.0
C      1  0.5353650000000  0.6062540000000  0.5356920000000 1.0
C      1  0.5440910000000  0.5745660000000  0.5734930000000 1.0
C      1  0.5204680000000  0.5100630000000  0.5171300000000 1.0
C      1  0.5705180000000  0.5103910000000  0.4083750000000 1.0
C      1  0.4754000000000  0.4820590000000  0.4709610000000 1.0
C      1  0.4945160000000  0.5014660000000  0.6107950000000 1.0
C      1  0.4473200000000  0.5831500000000  0.4418970000000 1.0
C      1  0.4906010000000  0.5363680000000  0.5193400000000 1.0
C      1  0.4853970000000  0.5208570000000  0.4466390000000 1.0
C      1  0.5286600000000  0.4113410000000  0.4947840000000 1.0
C      1  0.4366270000000  0.5117780000000  0.4687560000000 1.0
C      1  0.5060060000000  0.5522960000000  0.3995700000000 1.0
C      1  0.5059480000000  0.6063080000000  0.5397180000000 1.0
C      1  0.4678430000000  0.4488950000000  0.4247000000000 1.0
C      1  0.4741890000000  0.5563040000000  0.4055680000000 1.0
C      1  0.5215880000000  0.4457780000000  0.6058160000000 1.0
C      1  0.5660160000000  0.4190920000000  0.4835260000000 1.0
C      1  0.5365830000000  0.5727740000000  0.4340400000000 1.0
C      1  0.4589770000000  0.5048890000000  0.4011800000000 1.0
C      1  0.4976440000000  0.4559110000000  0.4502280000000 1.0
C      1  0.4675430000000  0.5570410000000  0.4644280000000 1.0
C      1  0.5079720000000  0.5221340000000  0.5421210000000 1.0
C      1  0.5123540000000  0.4797430000000  0.5182060000000 1.0
C      1  0.4754120000000  0.6017680000000  0.4830300000000 1.0
C      1  0.5425710000000  0.5136370000000  0.4027390000000 1.0
C      1  0.4254580000000  0.5545210000000  0.4854570000000 1.0
C      1  0.4452020000000  0.5723620000000  0.5340920000000 1.0
C      1  0.5036070000000  0.4189610000000  0.5522590000000 1.0
C      1  0.4796740000000  0.4801800000000  0.4240070000000 1.0
C      1  0.4466980000000  0.4678020000000  0.5103720000000 1.0
C      1  0.5829690000000  0.4919240000000  0.4339420000000 1.0
C      1  0.5006730000000  0.4469210000000  0.4173950000000 1.0
C      1  0.5657020000000  0.5022310000000  0.4613140000000 1.0
C      1  0.5030500000000  0.5755780000000  0.4253240000000 1.0
C      1  0.5559560000000  0.5231200000000  0.5669620000000 1.0
C      1  0.5379130000000  0.4242450000000  0.4660180000000 1.0
C      1  0.5876280000000  0.4774440000000  0.5296230000000 1.0
C      1  0.4679310000000  0.5073450000000  0.4634140000000 1.0
C      1  0.5465160000000  0.4671920000000  0.4219530000000 1.0
C      1  0.4560610000000  0.5842420000000  0.4716630000000 1.0
C      1  0.4115170000000  0.4933630000000  0.5386940000000 1.0
C      1  0.5251500000000  0.4442320000000  0.5490780000000 1.0
C      1  0.5209520000000  0.5193040000000  0.6023520000000 1.0
C      1  0.4790720000000  0.4782230000000  0.5104090000000 1.0
C      1  0.5064360000000  0.5620310000000  0.5103380000000 1.0
C      1  0.4901890000000  0.4471740000000  0.5206160000000 1.0
C      1  0.5558080000000  0.5724250000000  0.4619380000000 1.0
C      1  0.5266110000000  0.5441540000000  0.4221500000000 1.0
C      1  0.4262900000000  0.4981810000000  0.5674660000000 1.0
C      1  0.4898370000000  0.4356740000000  0.4708970000000 1.0
C      1  0.5076920000000  0.5936690000000  0.5097630000000 1.0
C      1  0.5009450000000  0.4278650000000  0.4999330000000 1.0
C      1  0.5618600000000  0.4495500000000  0.4955330000000 1.0
C      1  0.4338630000000  0.4202900000000  0.5176840000000 1.0
C      1  0.4608810000000  0.4515580000000  0.5337960000000 1.0
C      1  0.4254860000000  0.5049400000000  0.4231300000000 1.0
C      1  0.5555400000000  0.5821090000000  0.5268160000000 1.0
C      1  0.4843400000000  0.5462030000000  0.5892890000000 1.0
C      1  0.5243200000000  0.4399200000000  0.4409680000000 1.0
C      1  0.4582210000000  0.5300180000000  0.5151460000000 1.0
C      1  0.5018440000000  0.4702590000000  0.6187400000000 1.0
C      1  0.4296140000000  0.4790130000000  0.4663710000000 1.0
C      1  0.5741320000000  0.5527110000000  0.4826470000000 1.0
C      1  0.4935450000000  0.5491590000000  0.4815880000000 1.0
C      1  0.4358650000000  0.4534080000000  0.4363320000000 1.0
C      1  0.4771220000000  0.6031700000000  0.5122070000000 1.0
C      1  0.5301000000000  0.4170210000000  0.5342960000000 1.0
C      1  0.4944110000000  0.4695490000000  0.5460230000000 1.0
C      1  0.4178220000000  0.4762330000000  0.5151790000000 1.0
C      1  0.4455470000000  0.4817940000000  0.4222760000000 1.0
C      1  0.4589310000000  0.4340200000000  0.4747950000000 1.0
C      1  0.5617750000000  0.4513710000000  0.4332410000000 1.0
C      1  0.5041580000000  0.4653560000000  0.3954890000000 1.0
C      1  0.5463470000000  0.5163560000000  0.4423130000000 1.0
C      1  0.4107630000000  0.4370800000000  0.5158460000000 1.0
C      1  0.5968800000000  0.5073950000000  0.5184390000000 1.0
C      1  0.3843070000000  0.4474270000000  0.4413190000000 1.0
C      1  0.5315570000000  0.4812760000000  0.5772870000000 1.0
C      1  0.5375040000000  0.4683350000000  0.5531220000000 1.0
C      1  0.5484970000000  0.5010530000000  0.5058480000000 1.0
C      1  0.5524960000000  0.4222620000000  0.5682690000000 1.0
C      1  0.5663930000000  0.5809030000000  0.4992200000000 1.0
C      1  0.4758020000000  0.4572390000000  0.5717590000000 1.0
C      1  0.5671770000000  0.4284290000000  0.5446570000000 1.0
C      1  0.4695060000000  0.5815440000000  0.4237490000000 1.0
C      1  0.4525850000000  0.4628970000000  0.4805800000000 1.0
C      1  0.5888120000000  0.4700230000000  0.4560390000000 1.0
C      1  0.4276070000000  0.5259510000000  0.4424890000000 1.0
C      1  0.5670770000000  0.4941980000000  0.5600720000000 1.0
C      1  0.4476340000000  0.4408680000000  0.5697350000000 1.0
C      1  0.4434170000000  0.5179040000000  0.5886670000000 1.0
C      1  0.4652710000000  0.5930650000000  0.5349330000000 1.0
C      1  0.5725390000000  0.4435150000000  0.4607640000000 1.0
C      1  0.4814960000000  0.4042570000000  0.5125650000000 1.0
C      1  0.5554660000000  0.4151190000000  0.5156040000000 1.0
C      1  0.5273310000000  0.5396810000000  0.5587340000000 1.0
C      1  0.5007790000000  0.5181400000000  0.4834520000000 1.0
C      1  0.4717770000000  0.5232180000000  0.6014870000000 1.0
C      1  0.5417880000000  0.5051930000000  0.5888950000000 1.0
C      1  0.5029510000000  0.3890870000000  0.4911470000000 1.0
C      1  0.4511040000000  0.4221080000000  0.5452090000000 1.0
C      1  0.5137850000000  0.5248970000000  0.4435240000000 1.0
C      1  0.5044950000000  0.5707510000000  0.4576420000000 1.0
C      1  0.5304510000000  0.5544000000000  0.4688710000000 1.0
C      1  0.4638200000000  0.5104580000000  0.5622330000000 1.0
C      1  0.5103940000000  0.5183390000000  0.3965500000000 1.0
C      1  0.4022580000000  0.4473100000000  0.5402980000000 1.0
C      1  0.4737750000000  0.4019620000000  0.4488320000000 1.0
C      1  0.4916620000000  0.4495030000000  0.5965040000000 1.0
C      1  0.4715510000000  0.3898360000000  0.4774070000000 1.0
C      1  0.5166020000000  0.5775970000000  0.5645280000000 1.0
C      1  0.4827620000000  0.5246920000000  0.4157980000000 1.0
C      1  0.4792620000000  0.4090440000000  0.5419670000000 1.0
C      1  0.5809950000000  0.5297880000000  0.5265450000000 1.0
C      1  0.5869710000000  0.4638730000000  0.5019530000000 1.0
C      1  0.5728430000000  0.5419590000000  0.5505910000000 1.0
C      1  0.5557490000000  0.4853600000000  0.5310410000000 1.0
C      1  0.5287660000000  0.5334210000000  0.4932800000000 1.0
C      1  0.5844880000000  0.5262260000000  0.4358420000000 1.0
C      1  0.5846120000000  0.4504190000000  0.5485780000000 1.0
C      1  0.4197740000000  0.5234480000000  0.4960870000000 1.0
C      1  0.5143490000000  0.4949180000000  0.4697610000000 1.0
C      1  0.4552400000000  0.4264610000000  0.4439370000000 1.0
C      1  0.5039150000000  0.4068720000000  0.4627200000000 1.0
C      1  0.5637370000000  0.5681190000000  0.5533600000000 1.0
C      1  0.4471330000000  0.5357220000000  0.4055990000000 1.0
C      1  0.5449420000000  0.4886310000000  0.4782220000000 1.0
C      1  0.4461480000000  0.4765810000000  0.5491670000000 1.0
C      1  0.5290030000000  0.4928210000000  0.4253100000000 1.0
C      1  0.5873360000000  0.5271460000000  0.4697690000000 1.0
C      1  0.5023320000000  0.4852010000000  0.5819900000000 1.0
C      1  0.4097230000000  0.4550640000000  0.4555560000000 1.0
C      1  0.4543480000000  0.5442440000000  0.4377940000000 1.0
C      1  0.4410670000000  0.4693060000000  0.5874100000000 1.0
C      1  0.4286330000000  0.5577530000000  0.4553830000000 1.0
C      1  0.4457970000000  0.5583170000000  0.5591520000000 1.0
C      1  0.4416390000000  0.5547340000000  0.5113570000000 1.0
C      1  0.4925070000000  0.5017780000000  0.5565890000000 1.0
C      1  0.4797600000000  0.5078200000000  0.5035390000000 1.0
C      1  0.4861750000000  0.5878120000000  0.5602920000000 1.0
C      1  0.6008540000000  0.5062100000000  0.4896360000000 1.0
C      1  0.5583200000000  0.5461710000000  0.4307130000000 1.0
C      1  0.4199460000000  0.4591410000000  0.5624970000000 1.0
END
