TITL C-2778432-5617-1460 0.00382003669977306 125000 -949.93498652535 0 0 164 (C1) n - 1
REM
REM in /home/nfs/bkarasulu/CARBON/AIRSS/Generating-Clusters/REBO/Only-C1/SD-CG/HFTN-CG
REM
REM
REM
REM
REM
REM ./C.cell (11c1c37f851c82e70ff6c80c92926a4b)
REM
REM compiler GCC version 9.2.1 20190827 (Red Hat 9.2.1-1)
REM options -cpp -mtune=generic -march=x86-64 -g -O0 -fpre-include=/usr/include/finclude/math-vector-fortran.h
REM seed -1897703256 -1209479498 266993241 -1435062651 1645790810 1177165466 249698692 1439018265 -393452961 -1836763148 -1867562873 841609573 1392020647 -1646478351 -745534337 -593806351 2136128519 -984611168 -712765515 -1270776467 1373423381 -2099319152 -1807477165 -1377795707 1692291293 -151924471 -2020152564 119694086 1801521376 1751486441 713257002 -793776261 722186002
REM
CELL 1.54180   50.00000   50.00000   50.00000   90.00000   90.00000   90.00000
LATT -1
SFAC C  
C      1  0.5536520000000  0.4886900000000  0.5841470000000 1.0
C      1  0.4763280000000  0.5089260000000  0.4335880000000 1.0
C      1  0.4588930000000  0.4119270000000  0.4665400000000 1.0
C      1  0.5681770000000  0.5286560000000  0.4370000000000 1.0
C      1  0.5648110000000  0.5621270000000  0.6005690000000 1.0
C      1  0.4408330000000  0.5662270000000  0.5200580000000 1.0
C      1  0.5841160000000  0.4635670000000  0.4804790000000 1.0
C      1  0.4503740000000  0.5729800000000  0.4407120000000 1.0
C      1  0.5026760000000  0.5018680000000  0.5955470000000 1.0
C      1  0.4923760000000  0.4579220000000  0.5113770000000 1.0
C      1  0.4306930000000  0.5037760000000  0.5817900000000 1.0
C      1  0.4927440000000  0.5277180000000  0.5130430000000 1.0
C      1  0.5227210000000  0.4944720000000  0.5267060000000 1.0
C      1  0.4507860000000  0.4230400000000  0.5503890000000 1.0
C      1  0.4403000000000  0.5258260000000  0.4188620000000 1.0
C      1  0.5090740000000  0.5167390000000  0.5668430000000 1.0
C      1  0.4253810000000  0.4506830000000  0.4663550000000 1.0
C      1  0.4555230000000  0.4851920000000  0.4216860000000 1.0
C      1  0.4167540000000  0.5429990000000  0.4731070000000 1.0
C      1  0.4905700000000  0.5519540000000  0.4084370000000 1.0
C      1  0.4860710000000  0.5570540000000  0.4868940000000 1.0
C      1  0.5041040000000  0.5228520000000  0.4717310000000 1.0
C      1  0.5138910000000  0.5654300000000  0.5682290000000 1.0
C      1  0.4098340000000  0.5093020000000  0.4528400000000 1.0
C      1  0.5833670000000  0.4334120000000  0.4830370000000 1.0
C      1  0.5804150000000  0.5044140000000  0.5814660000000 1.0
C      1  0.4596620000000  0.5773150000000  0.4793480000000 1.0
C      1  0.4436380000000  0.5159170000000  0.4956770000000 1.0
C      1  0.5150770000000  0.4742610000000  0.4298230000000 1.0
C      1  0.4997980000000  0.5193770000000  0.4110960000000 1.0
C      1  0.4186520000000  0.5446610000000  0.5072220000000 1.0
C      1  0.5161900000000  0.4511280000000  0.5313280000000 1.0
C      1  0.3669610000000  0.4781500000000  0.4913590000000 1.0
C      1  0.4406900000000  0.4916070000000  0.5511860000000 1.0
C      1  0.4681900000000  0.5276540000000  0.3994840000000 1.0
C      1  0.5695400000000  0.4140580000000  0.4894020000000 1.0
C      1  0.4972030000000  0.5000890000000  0.5412700000000 1.0
C      1  0.5168540000000  0.5992740000000  0.4753320000000 1.0
C      1  0.5932280000000  0.5373490000000  0.5169550000000 1.0
C      1  0.4508870000000  0.4066790000000  0.5264700000000 1.0
C      1  0.5112270000000  0.5802830000000  0.5403300000000 1.0
C      1  0.4416210000000  0.4714630000000  0.5771360000000 1.0
C      1  0.4874090000000  0.5038340000000  0.4921170000000 1.0
C      1  0.4905940000000  0.4754110000000  0.4643670000000 1.0
C      1  0.5488720000000  0.5368800000000  0.4127690000000 1.0
C      1  0.5180820000000  0.4200420000000  0.5325370000000 1.0
C      1  0.4391430000000  0.4583600000000  0.4963740000000 1.0
C      1  0.5245310000000  0.5734170000000  0.5157870000000 1.0
C      1  0.5109190000000  0.4236540000000  0.5717100000000 1.0
C      1  0.4815110000000  0.5862260000000  0.5347440000000 1.0
C      1  0.4702340000000  0.4917060000000  0.5960550000000 1.0
C      1  0.6035760000000  0.5502750000000  0.4936600000000 1.0
C      1  0.5639450000000  0.4609460000000  0.4448360000000 1.0
C      1  0.3906220000000  0.5212160000000  0.4733430000000 1.0
C      1  0.4063820000000  0.4661780000000  0.4978940000000 1.0
C      1  0.5416850000000  0.4033960000000  0.5033950000000 1.0
C      1  0.4539630000000  0.4541280000000  0.5500760000000 1.0
C      1  0.5159170000000  0.4011730000000  0.4804750000000 1.0
C      1  0.4819280000000  0.5665760000000  0.4347320000000 1.0
C      1  0.4661650000000  0.4545110000000  0.4652040000000 1.0
C      1  0.4919820000000  0.4071570000000  0.4595100000000 1.0
C      1  0.5233400000000  0.4422080000000  0.4385710000000 1.0
C      1  0.5252540000000  0.4473910000000  0.5884940000000 1.0
C      1  0.5564440000000  0.5397040000000  0.4659320000000 1.0
C      1  0.4599750000000  0.5886110000000  0.5566270000000 1.0
C      1  0.5290140000000  0.4775410000000  0.3928730000000 1.0
C      1  0.4860970000000  0.4467430000000  0.4179860000000 1.0
C      1  0.4272310000000  0.4968690000000  0.4266750000000 1.0
C      1  0.4870680000000  0.5310220000000  0.5972980000000 1.0
C      1  0.4227730000000  0.5263240000000  0.5576020000000 1.0
C      1  0.5139650000000  0.5487970000000  0.5011230000000 1.0
C      1  0.5701730000000  0.5567450000000  0.5755520000000 1.0
C      1  0.4502890000000  0.5472890000000  0.4724190000000 1.0
C      1  0.5025050000000  0.4017930000000  0.5112420000000 1.0
C      1  0.5267540000000  0.4457080000000  0.4051170000000 1.0
C      1  0.4712680000000  0.4584190000000  0.5874840000000 1.0
C      1  0.4668890000000  0.5045280000000  0.5656990000000 1.0
C      1  0.4878140000000  0.6052090000000  0.4836030000000 1.0
C      1  0.5229870000000  0.5590280000000  0.4132010000000 1.0
C      1  0.6018390000000  0.4831270000000  0.5384050000000 1.0
C      1  0.4592770000000  0.5337610000000  0.4456750000000 1.0
C      1  0.5899020000000  0.5466040000000  0.4692560000000 1.0
C      1  0.5118590000000  0.4535200000000  0.4672830000000 1.0
C      1  0.5491800000000  0.4137520000000  0.5350850000000 1.0
C      1  0.5459680000000  0.4549840000000  0.5152410000000 1.0
C      1  0.5323210000000  0.4341260000000  0.4953770000000 1.0
C      1  0.5760530000000  0.5732720000000  0.5167680000000 1.0
C      1  0.4752810000000  0.6000650000000  0.5082640000000 1.0
C      1  0.4541560000000  0.5221970000000  0.5984100000000 1.0
C      1  0.5396240000000  0.5542490000000  0.5499630000000 1.0
C      1  0.5437080000000  0.5032860000000  0.4942900000000 1.0
C      1  0.4365830000000  0.5235460000000  0.5277900000000 1.0
C      1  0.4488130000000  0.4859620000000  0.5233710000000 1.0
C      1  0.4686140000000  0.5972320000000  0.4563340000000 1.0
C      1  0.5516030000000  0.4906050000000  0.5442820000000 1.0
C      1  0.4257090000000  0.4899290000000  0.5028570000000 1.0
C      1  0.5468530000000  0.4881920000000  0.4573950000000 1.0
C      1  0.4616470000000  0.5358430000000  0.5671040000000 1.0
C      1  0.3882850000000  0.4307810000000  0.4944470000000 1.0
C      1  0.4418290000000  0.4136290000000  0.4960860000000 1.0
C      1  0.5276730000000  0.4777490000000  0.4788480000000 1.0
C      1  0.5342710000000  0.5301870000000  0.4819590000000 1.0
C      1  0.5680430000000  0.4981070000000  0.4318550000000 1.0
C      1  0.4146910000000  0.4282900000000  0.4882300000000 1.0
C      1  0.5238060000000  0.5427120000000  0.4432120000000 1.0
C      1  0.5767850000000  0.5063870000000  0.5417830000000 1.0
C      1  0.5557400000000  0.4619680000000  0.5627320000000 1.0
C      1  0.5930480000000  0.5570070000000  0.5432450000000 1.0
C      1  0.5113900000000  0.5373950000000  0.5399210000000 1.0
C      1  0.5673560000000  0.5709540000000  0.4629510000000 1.0
C      1  0.5315720000000  0.5127040000000  0.4392800000000 1.0
C      1  0.5891630000000  0.4820190000000  0.4530270000000 1.0
C      1  0.5864910000000  0.4962140000000  0.4899560000000 1.0
C      1  0.5078830000000  0.4833680000000  0.5027420000000 1.0
C      1  0.5833210000000  0.5305260000000  0.5626280000000 1.0
C      1  0.4849530000000  0.4337430000000  0.4456550000000 1.0
C      1  0.4452170000000  0.4349500000000  0.4481710000000 1.0
C      1  0.4169340000000  0.5552590000000  0.5404150000000 1.0
C      1  0.5920840000000  0.4524980000000  0.5354840000000 1.0
C      1  0.5970390000000  0.5069360000000  0.5155260000000 1.0
C      1  0.5267710000000  0.4896650000000  0.5660530000000 1.0
C      1  0.4636420000000  0.4587600000000  0.5180680000000 1.0
C      1  0.4760710000000  0.4151660000000  0.4950170000000 1.0
C      1  0.5376320000000  0.5233530000000  0.5211050000000 1.0
C      1  0.4390320000000  0.5011330000000  0.4670160000000 1.0
C      1  0.5029540000000  0.4983920000000  0.4484390000000 1.0
C      1  0.4773430000000  0.4294040000000  0.5708550000000 1.0
C      1  0.3739100000000  0.5037960000000  0.4852090000000 1.0
C      1  0.5605340000000  0.5438440000000  0.5249420000000 1.0
C      1  0.4193870000000  0.4766990000000  0.4533980000000 1.0
C      1  0.4931780000000  0.4071450000000  0.5497440000000 1.0
C      1  0.5081900000000  0.4652100000000  0.5571900000000 1.0
C      1  0.4684740000000  0.5112430000000  0.5265110000000 1.0
C      1  0.4416870000000  0.5613340000000  0.5616420000000 1.0
C      1  0.5417150000000  0.4340050000000  0.5615090000000 1.0
C      1  0.4634290000000  0.4860000000000  0.4781750000000 1.0
C      1  0.4747940000000  0.4943190000000  0.3967360000000 1.0
C      1  0.4588080000000  0.5454240000000  0.5033310000000 1.0
C      1  0.4970110000000  0.4721520000000  0.4012120000000 1.0
C      1  0.4997030000000  0.4361260000000  0.4911560000000 1.0
C      1  0.5682920000000  0.4397730000000  0.5319520000000 1.0
C      1  0.5364250000000  0.4225600000000  0.4634790000000 1.0
C      1  0.4773350000000  0.4756190000000  0.5519490000000 1.0
C      1  0.5301840000000  0.5091770000000  0.4056910000000 1.0
C      1  0.5632120000000  0.5849580000000  0.4908380000000 1.0
C      1  0.5357460000000  0.5911830000000  0.4955530000000 1.0
C      1  0.4578390000000  0.4551360000000  0.4261090000000 1.0
C      1  0.4921110000000  0.5569280000000  0.5855630000000 1.0
C      1  0.5649890000000  0.5753640000000  0.5489210000000 1.0
C      1  0.5492120000000  0.5637550000000  0.4350820000000 1.0
C      1  0.4274490000000  0.5485960000000  0.4407490000000 1.0
C      1  0.5862150000000  0.4767720000000  0.5666310000000 1.0
C      1  0.5476450000000  0.4761020000000  0.4197250000000 1.0
C      1  0.5012520000000  0.5906430000000  0.4493460000000 1.0
C      1  0.3696530000000  0.4510910000000  0.4943390000000 1.0
C      1  0.5609420000000  0.4765690000000  0.5005090000000 1.0
C      1  0.4822130000000  0.5540120000000  0.5469560000000 1.0
C      1  0.4676880000000  0.5721140000000  0.5824220000000 1.0
C      1  0.4465220000000  0.5915660000000  0.5046220000000 1.0
C      1  0.5606090000000  0.4338450000000  0.4501860000000 1.0
C      1  0.4964130000000  0.5506700000000  0.4575100000000 1.0
C      1  0.5030020000000  0.4698300000000  0.5910580000000 1.0
C      1  0.4756490000000  0.3920960000000  0.5280530000000 1.0
C      1  0.5873860000000  0.5148030000000  0.4622130000000 1.0
END
