TITL C-2778436-5916-1458 0.000470594460399012 125000 -912.099121825957 0 0 158 (C1) n - 1
REM
REM in /home/nfs/bkarasulu/CARBON/AIRSS/Generating-Clusters/REBO/Only-C1/SD-CG/HFTN-CG
REM
REM
REM
REM
REM
REM ./C.cell (11c1c37f851c82e70ff6c80c92926a4b)
REM
REM compiler GCC version 9.2.1 20190827 (Red Hat 9.2.1-1)
REM options -cpp -mtune=generic -march=x86-64 -g -O0 -fpre-include=/usr/include/finclude/math-vector-fortran.h
REM seed 767514082 1707030044 -160763724 -424648734 -1056933911 510403433 -1195768848 202725076 1282998523 2007643368 602114761 741635682 -1393006415 -1332436676 -1824822779 -496959524 -845658796 -1238447524 2130569660 619265751 -1755323195 559721412 -1883109340 2008139778 -2045103838 -67077194 684346046 -1702510620 -1595407725 1554588994 -1434218920 -220489805 2079678140
REM
CELL 1.54180   50.00000   50.00000   50.00000   90.00000   90.00000   90.00000
LATT -1
SFAC C  
C      1  0.5304990000000  0.4843510000000  0.5713470000000 1.0
C      1  0.4989240000000  0.4371030000000  0.5090540000000 1.0
C      1  0.5413840000000  0.4551120000000  0.5340430000000 1.0
C      1  0.5927140000000  0.5016280000000  0.4912430000000 1.0
C      1  0.4823130000000  0.5646740000000  0.5298770000000 1.0
C      1  0.4853650000000  0.5307410000000  0.4856480000000 1.0
C      1  0.5169190000000  0.4468220000000  0.4625560000000 1.0
C      1  0.4638270000000  0.4715250000000  0.5962230000000 1.0
C      1  0.5813520000000  0.5021620000000  0.4219900000000 1.0
C      1  0.4691510000000  0.5500680000000  0.5786790000000 1.0
C      1  0.5057500000000  0.5534870000000  0.4379360000000 1.0
C      1  0.4963530000000  0.5299830000000  0.5174790000000 1.0
C      1  0.4124620000000  0.4525440000000  0.4935350000000 1.0
C      1  0.3995940000000  0.4916200000000  0.5269510000000 1.0
C      1  0.5154900000000  0.5490500000000  0.4673730000000 1.0
C      1  0.4641610000000  0.5947700000000  0.4904260000000 1.0
C      1  0.4219350000000  0.4826040000000  0.5708800000000 1.0
C      1  0.5284130000000  0.4919400000000  0.4204090000000 1.0
C      1  0.5717410000000  0.4847730000000  0.5562280000000 1.0
C      1  0.4508620000000  0.5562730000000  0.5530530000000 1.0
C      1  0.4400930000000  0.4993990000000  0.4182250000000 1.0
C      1  0.4911250000000  0.5106770000000  0.4023150000000 1.0
C      1  0.5176510000000  0.5490990000000  0.6047670000000 1.0
C      1  0.4444590000000  0.4521780000000  0.4083290000000 1.0
C      1  0.5228530000000  0.5936100000000  0.5042570000000 1.0
C      1  0.4416730000000  0.4585150000000  0.4362590000000 1.0
C      1  0.5507080000000  0.5873070000000  0.5025750000000 1.0
C      1  0.4858410000000  0.4670820000000  0.4327000000000 1.0
C      1  0.4847710000000  0.5792960000000  0.4466240000000 1.0
C      1  0.4975220000000  0.4348520000000  0.5813640000000 1.0
C      1  0.5484180000000  0.5538950000000  0.5512460000000 1.0
C      1  0.4883040000000  0.4633890000000  0.5522000000000 1.0
C      1  0.4544410000000  0.4438800000000  0.5206500000000 1.0
C      1  0.5020580000000  0.5277880000000  0.5747720000000 1.0
C      1  0.5804160000000  0.5036040000000  0.4618280000000 1.0
C      1  0.4534040000000  0.5254940000000  0.5949970000000 1.0
C      1  0.4543860000000  0.4711050000000  0.5230500000000 1.0
C      1  0.4717190000000  0.5337840000000  0.5399030000000 1.0
C      1  0.6064620000000  0.4949250000000  0.5276800000000 1.0
C      1  0.5228940000000  0.4758940000000  0.6105520000000 1.0
C      1  0.5446110000000  0.5040760000000  0.5487440000000 1.0
C      1  0.5694820000000  0.4544820000000  0.5147810000000 1.0
C      1  0.4334460000000  0.5579480000000  0.4666860000000 1.0
C      1  0.4381360000000  0.5505370000000  0.4367080000000 1.0
C      1  0.4706610000000  0.4428300000000  0.5836030000000 1.0
C      1  0.5633450000000  0.4609660000000  0.4758140000000 1.0
C      1  0.5642890000000  0.5688560000000  0.5253440000000 1.0
C      1  0.5298670000000  0.5433540000000  0.4173290000000 1.0
C      1  0.4994940000000  0.5199020000000  0.4584170000000 1.0
C      1  0.5488670000000  0.4228610000000  0.4637460000000 1.0
C      1  0.5436060000000  0.4359500000000  0.4348190000000 1.0
C      1  0.4263350000000  0.5210390000000  0.5229380000000 1.0
C      1  0.4261250000000  0.5846060000000  0.5213250000000 1.0
C      1  0.4844190000000  0.4516050000000  0.4600930000000 1.0
C      1  0.4520420000000  0.5244300000000  0.5064300000000 1.0
C      1  0.4210530000000  0.4534560000000  0.4603310000000 1.0
C      1  0.5170100000000  0.5880290000000  0.4537640000000 1.0
C      1  0.4807330000000  0.4190290000000  0.4377830000000 1.0
C      1  0.5276690000000  0.4228970000000  0.5132760000000 1.0
C      1  0.4558610000000  0.4356160000000  0.5597100000000 1.0
C      1  0.5445010000000  0.5224210000000  0.4959650000000 1.0
C      1  0.5281020000000  0.4707460000000  0.4460560000000 1.0
C      1  0.4049530000000  0.4819040000000  0.4823050000000 1.0
C      1  0.4559810000000  0.5540500000000  0.4990970000000 1.0
C      1  0.5055430000000  0.4752060000000  0.4134330000000 1.0
C      1  0.4155420000000  0.4860380000000  0.4514620000000 1.0
C      1  0.4929690000000  0.4318790000000  0.4151890000000 1.0
C      1  0.5408630000000  0.5498420000000  0.5122390000000 1.0
C      1  0.4675750000000  0.4857830000000  0.4024280000000 1.0
C      1  0.5803700000000  0.4257020000000  0.4732290000000 1.0
C      1  0.4925380000000  0.5041860000000  0.6193120000000 1.0
C      1  0.5211220000000  0.4984140000000  0.4591890000000 1.0
C      1  0.5937360000000  0.5245230000000  0.5167030000000 1.0
C      1  0.5149120000000  0.5998460000000  0.5497260000000 1.0
C      1  0.4837980000000  0.4806500000000  0.6174740000000 1.0
C      1  0.5052560000000  0.6031250000000  0.5242310000000 1.0
C      1  0.4767600000000  0.4835240000000  0.4928130000000 1.0
C      1  0.4846720000000  0.5252160000000  0.6006650000000 1.0
C      1  0.5840280000000  0.4767580000000  0.4447530000000 1.0
C      1  0.5889510000000  0.5352180000000  0.4847600000000 1.0
C      1  0.4606880000000  0.5787930000000  0.4675920000000 1.0
C      1  0.6031930000000  0.5257870000000  0.4580770000000 1.0
C      1  0.4867330000000  0.4154260000000  0.4870770000000 1.0
C      1  0.5683860000000  0.5338690000000  0.4188270000000 1.0
C      1  0.5729660000000  0.5187750000000  0.5618020000000 1.0
C      1  0.5875740000000  0.4749090000000  0.5337890000000 1.0
C      1  0.4265560000000  0.5018350000000  0.4861280000000 1.0
C      1  0.4747850000000  0.4532970000000  0.4005800000000 1.0
C      1  0.4550250000000  0.5249980000000  0.4716390000000 1.0
C      1  0.4743650000000  0.3971830000000  0.5198310000000 1.0
C      1  0.5064420000000  0.5571130000000  0.3987050000000 1.0
C      1  0.4482510000000  0.5833650000000  0.5383600000000 1.0
C      1  0.5107820000000  0.5064250000000  0.5277850000000 1.0
C      1  0.4564640000000  0.4924230000000  0.4725340000000 1.0
C      1  0.5155810000000  0.5164470000000  0.3915500000000 1.0
C      1  0.5214670000000  0.4318710000000  0.4186320000000 1.0
C      1  0.5059310000000  0.5013210000000  0.5582150000000 1.0
C      1  0.4787410000000  0.5146340000000  0.4340660000000 1.0
C      1  0.4090150000000  0.4586840000000  0.5269240000000 1.0
C      1  0.4606370000000  0.5412580000000  0.4222730000000 1.0
C      1  0.4329730000000  0.4900660000000  0.5287130000000 1.0
C      1  0.4742800000000  0.5948180000000  0.5206410000000 1.0
C      1  0.4863730000000  0.5620650000000  0.4960840000000 1.0
C      1  0.5565660000000  0.4281800000000  0.4975360000000 1.0
C      1  0.4784230000000  0.4269420000000  0.5349080000000 1.0
C      1  0.5576240000000  0.5774320000000  0.4767280000000 1.0
C      1  0.5337740000000  0.4713230000000  0.5083940000000 1.0
C      1  0.4185490000000  0.5328060000000  0.4843400000000 1.0
C      1  0.4293380000000  0.4323040000000  0.5229730000000 1.0
C      1  0.5451770000000  0.5199030000000  0.3976390000000 1.0
C      1  0.4695340000000  0.5008380000000  0.5173140000000 1.0
C      1  0.5027000000000  0.4223760000000  0.5561010000000 1.0
C      1  0.4612310000000  0.4860680000000  0.4418930000000 1.0
C      1  0.5459510000000  0.5851700000000  0.4507020000000 1.0
C      1  0.4562640000000  0.4358380000000  0.4543990000000 1.0
C      1  0.5189870000000  0.5701430000000  0.5563670000000 1.0
C      1  0.5367640000000  0.4992030000000  0.6078540000000 1.0
C      1  0.5210630000000  0.4517300000000  0.5924320000000 1.0
C      1  0.5346830000000  0.5293990000000  0.5651750000000 1.0
C      1  0.3974760000000  0.5191380000000  0.5068860000000 1.0
C      1  0.5613430000000  0.5463310000000  0.4780920000000 1.0
C      1  0.5570110000000  0.4881270000000  0.4026010000000 1.0
C      1  0.5038190000000  0.3920420000000  0.5048380000000 1.0
C      1  0.5371110000000  0.4599230000000  0.4832970000000 1.0
C      1  0.5148260000000  0.5547670000000  0.5262900000000 1.0
C      1  0.5277180000000  0.4189090000000  0.5435730000000 1.0
C      1  0.5342200000000  0.5273910000000  0.5982020000000 1.0
C      1  0.4247130000000  0.5209380000000  0.5806340000000 1.0
C      1  0.4076860000000  0.5064640000000  0.5549660000000 1.0
C      1  0.4306510000000  0.5709750000000  0.4973700000000 1.0
C      1  0.4314570000000  0.4583870000000  0.5529830000000 1.0
C      1  0.5480090000000  0.4396640000000  0.5836880000000 1.0
C      1  0.5511280000000  0.5095760000000  0.4355140000000 1.0
C      1  0.4366840000000  0.4315790000000  0.4813880000000 1.0
C      1  0.5009160000000  0.5602730000000  0.5785880000000 1.0
C      1  0.4746490000000  0.5010980000000  0.5492200000000 1.0
C      1  0.4586060000000  0.5188280000000  0.3997140000000 1.0
C      1  0.5499460000000  0.4328180000000  0.5574550000000 1.0
C      1  0.5576070000000  0.4664560000000  0.4292330000000 1.0
C      1  0.5318040000000  0.4988160000000  0.5113370000000 1.0
C      1  0.4602580000000  0.4750040000000  0.5623780000000 1.0
C      1  0.5775990000000  0.5402660000000  0.5382370000000 1.0
C      1  0.5591280000000  0.4976930000000  0.5850820000000 1.0
C      1  0.4418510000000  0.4936430000000  0.5925110000000 1.0
C      1  0.4812470000000  0.5627380000000  0.4174920000000 1.0
C      1  0.4879260000000  0.4596150000000  0.4893230000000 1.0
C      1  0.5897090000000  0.4719100000000  0.4939660000000 1.0
C      1  0.5256020000000  0.4074060000000  0.4832070000000 1.0
C      1  0.4326540000000  0.5130630000000  0.4485060000000 1.0
C      1  0.5023620000000  0.4161790000000  0.4598950000000 1.0
C      1  0.5493350000000  0.5100430000000  0.4673240000000 1.0
C      1  0.5167000000000  0.4598310000000  0.5569550000000 1.0
C      1  0.5430300000000  0.5455080000000  0.4493890000000 1.0
C      1  0.5592440000000  0.5654850000000  0.4275010000000 1.0
C      1  0.4552420000000  0.4123090000000  0.4961290000000 1.0
C      1  0.4259960000000  0.5356880000000  0.5510950000000 1.0
C      1  0.5085710000000  0.5774220000000  0.4835180000000 1.0
C      1  0.5947060000000  0.4541760000000  0.4651450000000 1.0
END
