TITL C-2778427-5640-380 0.00474096463278025 125000 -1062.50688349247 0 0 182 (C1) n - 1
REM
REM in /home/nfs/bkarasulu/CARBON/AIRSS/Generating-Clusters/REBO/Only-C1/SD-CG/HFTN-CG
REM
REM
REM
REM
REM
REM ./C.cell (11c1c37f851c82e70ff6c80c92926a4b)
REM
REM compiler GCC version 9.2.1 20190827 (Red Hat 9.2.1-1)
REM options -cpp -mtune=generic -march=x86-64 -g -O0 -fpre-include=/usr/include/finclude/math-vector-fortran.h
REM seed -548665356 -1448420609 -422543420 -455459366 -1249064011 220553443 -1242302938 683784031 -73812235 -862620799 128601348 649165295 -1360214206 1457347734 1676096443 298822131 -1891668583 -1755612853 -1242489748 1472468682 260201524 -524861917 270244588 -735553103 -1886093626 -1057790904 297643614 1566707001 -1055298720 2113609965 1751084245 -1359108946 -170333962
REM
CELL 1.54180   50.00000   50.00000   50.00000   90.00000   90.00000   90.00000
LATT -1
SFAC C  
C      1  0.5128470000000  0.4924880000000  0.4785350000000 1.0
C      1  0.4834090000000  0.3993210000000  0.5354500000000 1.0
C      1  0.4048750000000  0.4447630000000  0.4698020000000 1.0
C      1  0.4193740000000  0.4796340000000  0.4419580000000 1.0
C      1  0.4748870000000  0.4292230000000  0.4097020000000 1.0
C      1  0.4662590000000  0.5036280000000  0.6083050000000 1.0
C      1  0.5390930000000  0.5876310000000  0.4351260000000 1.0
C      1  0.5884610000000  0.5551560000000  0.5090490000000 1.0
C      1  0.4680070000000  0.6151540000000  0.5032630000000 1.0
C      1  0.5485290000000  0.5561770000000  0.5830130000000 1.0
C      1  0.4115370000000  0.5202930000000  0.4750300000000 1.0
C      1  0.4161250000000  0.5113180000000  0.5386430000000 1.0
C      1  0.6042550000000  0.4896400000000  0.4844910000000 1.0
C      1  0.5190700000000  0.4725740000000  0.4423400000000 1.0
C      1  0.4911870000000  0.4252960000000  0.5528160000000 1.0
C      1  0.5700840000000  0.4900600000000  0.5094000000000 1.0
C      1  0.5130930000000  0.3986010000000  0.4573070000000 1.0
C      1  0.4063740000000  0.4740910000000  0.4661570000000 1.0
C      1  0.5109080000000  0.5682160000000  0.4982850000000 1.0
C      1  0.4041850000000  0.5682870000000  0.5051750000000 1.0
C      1  0.4131600000000  0.4920190000000  0.4887410000000 1.0
C      1  0.4718570000000  0.5727890000000  0.5215140000000 1.0
C      1  0.4492990000000  0.6014590000000  0.4848380000000 1.0
C      1  0.4818240000000  0.4950540000000  0.4300800000000 1.0
C      1  0.5806940000000  0.5594450000000  0.4595600000000 1.0
C      1  0.5995480000000  0.4555860000000  0.5200920000000 1.0
C      1  0.4366240000000  0.4523190000000  0.4806650000000 1.0
C      1  0.5288820000000  0.6253970000000  0.4818070000000 1.0
C      1  0.5108690000000  0.5368480000000  0.4984900000000 1.0
C      1  0.5331640000000  0.5396170000000  0.4006030000000 1.0
C      1  0.5492750000000  0.5366110000000  0.4688750000000 1.0
C      1  0.5727350000000  0.5594640000000  0.4111440000000 1.0
C      1  0.5272210000000  0.4464310000000  0.4607640000000 1.0
C      1  0.5892090000000  0.4879370000000  0.4351720000000 1.0
C      1  0.5540010000000  0.5883690000000  0.4962030000000 1.0
C      1  0.4666930000000  0.4456560000000  0.5555430000000 1.0
C      1  0.5777070000000  0.4438390000000  0.5435190000000 1.0
C      1  0.4552760000000  0.4078380000000  0.5509720000000 1.0
C      1  0.5356070000000  0.4149470000000  0.4557800000000 1.0
C      1  0.4451330000000  0.4978460000000  0.4457370000000 1.0
C      1  0.5075160000000  0.4181170000000  0.5774830000000 1.0
C      1  0.5492700000000  0.4796180000000  0.5878730000000 1.0
C      1  0.5313160000000  0.5075400000000  0.4074430000000 1.0
C      1  0.4565370000000  0.4721220000000  0.4293170000000 1.0
C      1  0.4415510000000  0.4211920000000  0.4670670000000 1.0
C      1  0.5747050000000  0.5784200000000  0.5168940000000 1.0
C      1  0.4578090000000  0.5058950000000  0.4729400000000 1.0
C      1  0.4845000000000  0.5721160000000  0.5604190000000 1.0
C      1  0.4386720000000  0.4761380000000  0.5048440000000 1.0
C      1  0.5367120000000  0.4481400000000  0.5121910000000 1.0
C      1  0.4012480000000  0.4826680000000  0.5167830000000 1.0
C      1  0.4755120000000  0.5356370000000  0.6051720000000 1.0
C      1  0.5101530000000  0.3839630000000  0.5280910000000 1.0
C      1  0.5347290000000  0.5543590000000  0.5417440000000 1.0
C      1  0.4962690000000  0.4260460000000  0.6014950000000 1.0
C      1  0.4973710000000  0.4532320000000  0.6068040000000 1.0
C      1  0.4891930000000  0.4104640000000  0.4625220000000 1.0
C      1  0.4906210000000  0.4781480000000  0.3949980000000 1.0
C      1  0.5459970000000  0.4339440000000  0.4218990000000 1.0
C      1  0.5627620000000  0.4752090000000  0.4344380000000 1.0
C      1  0.5733060000000  0.5203060000000  0.5801200000000 1.0
C      1  0.5347650000000  0.6115680000000  0.5048740000000 1.0
C      1  0.4547670000000  0.4244650000000  0.5235450000000 1.0
C      1  0.4596860000000  0.4546640000000  0.4563770000000 1.0
C      1  0.5188120000000  0.4780640000000  0.4087250000000 1.0
C      1  0.5204140000000  0.3976760000000  0.4984290000000 1.0
C      1  0.4892450000000  0.5464110000000  0.5302930000000 1.0
C      1  0.5386320000000  0.4006750000000  0.5272820000000 1.0
C      1  0.4167390000000  0.5147250000000  0.4232760000000 1.0
C      1  0.5934140000000  0.5459110000000  0.4810230000000 1.0
C      1  0.4459610000000  0.5492100000000  0.4480440000000 1.0
C      1  0.5980940000000  0.4996500000000  0.5354860000000 1.0
C      1  0.4409030000000  0.5100360000000  0.5881100000000 1.0
C      1  0.5749290000000  0.5239080000000  0.5088230000000 1.0
C      1  0.5595000000000  0.4157370000000  0.5478610000000 1.0
C      1  0.3987220000000  0.4534090000000  0.5240800000000 1.0
C      1  0.4897740000000  0.4621150000000  0.5062570000000 1.0
C      1  0.4978180000000  0.5652110000000  0.4607540000000 1.0
C      1  0.4604490000000  0.5968440000000  0.4581040000000 1.0
C      1  0.5777540000000  0.4483890000000  0.4650660000000 1.0
C      1  0.4436470000000  0.5007770000000  0.4078240000000 1.0
C      1  0.5280250000000  0.5591960000000  0.4267930000000 1.0
C      1  0.5939530000000  0.4722040000000  0.4625680000000 1.0
C      1  0.4841100000000  0.6001870000000  0.5205580000000 1.0
C      1  0.5450770000000  0.4886210000000  0.4552920000000 1.0
C      1  0.5188700000000  0.4914480000000  0.5285180000000 1.0
C      1  0.4610520000000  0.5743010000000  0.4389070000000 1.0
C      1  0.4432630000000  0.4963020000000  0.5508360000000 1.0
C      1  0.4644680000000  0.5190220000000  0.5648250000000 1.0
C      1  0.4379030000000  0.4116720000000  0.4980990000000 1.0
C      1  0.5453120000000  0.5078230000000  0.5834960000000 1.0
C      1  0.5746460000000  0.4135570000000  0.5179530000000 1.0
C      1  0.4464040000000  0.4587630000000  0.5873460000000 1.0
C      1  0.4332010000000  0.5395690000000  0.5789270000000 1.0
C      1  0.4863250000000  0.5264940000000  0.4250840000000 1.0
C      1  0.4907740000000  0.6060660000000  0.4560090000000 1.0
C      1  0.5669570000000  0.4565950000000  0.5145540000000 1.0
C      1  0.4831180000000  0.4336790000000  0.5149060000000 1.0
C      1  0.5165290000000  0.5157550000000  0.5943720000000 1.0
C      1  0.4329840000000  0.4216120000000  0.4380380000000 1.0
C      1  0.5494950000000  0.5169420000000  0.5306210000000 1.0
C      1  0.4412300000000  0.5653940000000  0.5191790000000 1.0
C      1  0.5785990000000  0.5222830000000  0.5482110000000 1.0
C      1  0.5384030000000  0.5623260000000  0.5122780000000 1.0
C      1  0.5632120000000  0.4275360000000  0.4466080000000 1.0
C      1  0.5278390000000  0.5759840000000  0.5744330000000 1.0
C      1  0.5794490000000  0.5426690000000  0.4324590000000 1.0
C      1  0.5213630000000  0.4629700000000  0.5925170000000 1.0
C      1  0.5867560000000  0.5126050000000  0.4209050000000 1.0
C      1  0.5337390000000  0.5043440000000  0.5029170000000 1.0
C      1  0.4432050000000  0.4284420000000  0.5735260000000 1.0
C      1  0.5053470000000  0.5934760000000  0.4336170000000 1.0
C      1  0.4865520000000  0.4877260000000  0.5287870000000 1.0
C      1  0.4903520000000  0.5888970000000  0.4831100000000 1.0
C      1  0.5582120000000  0.5806270000000  0.4632130000000 1.0
C      1  0.4278850000000  0.4817850000000  0.5770910000000 1.0
C      1  0.4274200000000  0.4428140000000  0.5493270000000 1.0
C      1  0.4768120000000  0.4685380000000  0.5743200000000 1.0
C      1  0.4885730000000  0.4045850000000  0.5020060000000 1.0
C      1  0.5686230000000  0.4839840000000  0.5431710000000 1.0
C      1  0.4227440000000  0.4336940000000  0.5167940000000 1.0
C      1  0.5236930000000  0.4508670000000  0.5612760000000 1.0
C      1  0.4588720000000  0.5019120000000  0.5147440000000 1.0
C      1  0.4470050000000  0.5318920000000  0.5241080000000 1.0
C      1  0.5231860000000  0.5066160000000  0.4385250000000 1.0
C      1  0.4749010000000  0.4848010000000  0.4909190000000 1.0
C      1  0.5398200000000  0.4224400000000  0.5711890000000 1.0
C      1  0.4196570000000  0.5284970000000  0.4482250000000 1.0
C      1  0.4046380000000  0.4330140000000  0.4420510000000 1.0
C      1  0.4327720000000  0.5598750000000  0.5957120000000 1.0
C      1  0.4876440000000  0.4421110000000  0.4573080000000 1.0
C      1  0.5394060000000  0.5927770000000  0.5525870000000 1.0
C      1  0.5208130000000  0.4217770000000  0.4193260000000 1.0
C      1  0.4926580000000  0.5036870000000  0.5885380000000 1.0
C      1  0.4625700000000  0.5352920000000  0.4745370000000 1.0
C      1  0.4193060000000  0.4564040000000  0.4253630000000 1.0
C      1  0.6090800000000  0.4825130000000  0.5132750000000 1.0
C      1  0.5100630000000  0.5233820000000  0.5288560000000 1.0
C      1  0.5303350000000  0.6088820000000  0.4603320000000 1.0
C      1  0.5513850000000  0.4460970000000  0.5894640000000 1.0
C      1  0.5247010000000  0.5379720000000  0.4491700000000 1.0
C      1  0.4488460000000  0.4422180000000  0.4177640000000 1.0
C      1  0.4695590000000  0.5439570000000  0.5022330000000 1.0
C      1  0.5467550000000  0.4614010000000  0.4157860000000 1.0
C      1  0.4849660000000  0.4911720000000  0.4601490000000 1.0
C      1  0.5120210000000  0.4406640000000  0.5314050000000 1.0
C      1  0.4670240000000  0.4870650000000  0.3937910000000 1.0
C      1  0.4847920000000  0.5424580000000  0.4533850000000 1.0
C      1  0.5712940000000  0.4630700000000  0.5682510000000 1.0
C      1  0.5988170000000  0.5164980000000  0.4777350000000 1.0
C      1  0.5170720000000  0.6028290000000  0.5287950000000 1.0
C      1  0.4820580000000  0.5431020000000  0.5747670000000 1.0
C      1  0.4028070000000  0.5612390000000  0.5366280000000 1.0
C      1  0.5576740000000  0.4993670000000  0.4802360000000 1.0
C      1  0.5654040000000  0.5506450000000  0.5557760000000 1.0
C      1  0.5648000000000  0.5803810000000  0.5431110000000 1.0
C      1  0.3950140000000  0.4508310000000  0.5558500000000 1.0
C      1  0.4060590000000  0.4821360000000  0.5508610000000 1.0
C      1  0.3994670000000  0.5326640000000  0.5222230000000 1.0
C      1  0.4024770000000  0.5395670000000  0.4927690000000 1.0
C      1  0.5121900000000  0.5235220000000  0.4754720000000 1.0
C      1  0.5504420000000  0.4136670000000  0.4974470000000 1.0
C      1  0.5615590000000  0.5208750000000  0.4041540000000 1.0
C      1  0.4475930000000  0.4668060000000  0.5363530000000 1.0
C      1  0.4712560000000  0.4717010000000  0.6067160000000 1.0
C      1  0.5258850000000  0.5767160000000  0.4705480000000 1.0
C      1  0.4547910000000  0.5244330000000  0.4295830000000 1.0
C      1  0.5013740000000  0.5485330000000  0.4095170000000 1.0
C      1  0.4267200000000  0.5412660000000  0.5497460000000 1.0
C      1  0.4651410000000  0.4017340000000  0.4806750000000 1.0
C      1  0.4290900000000  0.5848760000000  0.4982790000000 1.0
C      1  0.4836250000000  0.4933420000000  0.5584780000000 1.0
C      1  0.5044930000000  0.4613090000000  0.4778050000000 1.0
C      1  0.4866160000000  0.5737850000000  0.4233360000000 1.0
C      1  0.5732710000000  0.5202460000000  0.4576350000000 1.0
C      1  0.5378710000000  0.4701890000000  0.5384010000000 1.0
C      1  0.5070530000000  0.5737920000000  0.5398310000000 1.0
C      1  0.5533160000000  0.5428060000000  0.4946890000000 1.0
C      1  0.5134350000000  0.5456080000000  0.5671750000000 1.0
C      1  0.5502980000000  0.4412500000000  0.4817990000000 1.0
C      1  0.5292970000000  0.5179230000000  0.5566040000000 1.0
C      1  0.4953800000000  0.4293210000000  0.4278500000000 1.0
END
