TITL C-2778431-5191-1058 0.00478970555591473 125000 -1109.54794451473 0 0 190 (C1) n - 1
REM
REM in /home/nfs/bkarasulu/CARBON/AIRSS/Generating-Clusters/REBO/Only-C1/SD-CG/HFTN-CG
REM
REM
REM
REM
REM
REM ./C.cell (11c1c37f851c82e70ff6c80c92926a4b)
REM
REM compiler GCC version 9.2.1 20190827 (Red Hat 9.2.1-1)
REM options -cpp -mtune=generic -march=x86-64 -g -O0 -fpre-include=/usr/include/finclude/math-vector-fortran.h
REM seed -1156638016 1977925049 -2028372818 218908601 158263029 445117990 -830894060 461957067 -1635140249 -38923309 -460811055 -1291828867 1349546344 987128515 -600752996 358013232 -1141768668 -1460321719 1856364579 -1751993441 -92147451 1914282875 337822069 345614962 -1936845195 -620843929 836564931 -716121731 -703723175 246586054 -1410366500 -147002141 -1117313448
REM
CELL 1.54180   50.00000   50.00000   50.00000   90.00000   90.00000   90.00000
LATT -1
SFAC C  
C      1  0.4462310000000  0.4620220000000  0.5316250000000 1.0
C      1  0.4078310000000  0.5567440000000  0.5523130000000 1.0
C      1  0.4287750000000  0.4917390000000  0.5113150000000 1.0
C      1  0.5358990000000  0.5810020000000  0.4761200000000 1.0
C      1  0.5072760000000  0.5782690000000  0.4486250000000 1.0
C      1  0.4212140000000  0.5364400000000  0.5755020000000 1.0
C      1  0.5735440000000  0.4799460000000  0.4977810000000 1.0
C      1  0.5194240000000  0.5092680000000  0.3908050000000 1.0
C      1  0.4323150000000  0.4518730000000  0.5051280000000 1.0
C      1  0.4477710000000  0.3957560000000  0.5446100000000 1.0
C      1  0.4521160000000  0.5198260000000  0.4281270000000 1.0
C      1  0.4062050000000  0.5471870000000  0.4763470000000 1.0
C      1  0.3996690000000  0.4903330000000  0.4369350000000 1.0
C      1  0.4847660000000  0.4442940000000  0.5401390000000 1.0
C      1  0.5657790000000  0.4321740000000  0.5291320000000 1.0
C      1  0.5102370000000  0.5015790000000  0.4789690000000 1.0
C      1  0.4259780000000  0.5554330000000  0.5013990000000 1.0
C      1  0.5707670000000  0.5840690000000  0.5157200000000 1.0
C      1  0.4142550000000  0.4619830000000  0.5550590000000 1.0
C      1  0.5142210000000  0.4674730000000  0.4761020000000 1.0
C      1  0.4568530000000  0.5773780000000  0.5711490000000 1.0
C      1  0.5558400000000  0.5065890000000  0.4478240000000 1.0
C      1  0.5331210000000  0.5147250000000  0.4979800000000 1.0
C      1  0.4524910000000  0.5921490000000  0.5343040000000 1.0
C      1  0.4268460000000  0.4686250000000  0.4560880000000 1.0
C      1  0.4647810000000  0.4564770000000  0.4018630000000 1.0
C      1  0.5480900000000  0.4572920000000  0.5372110000000 1.0
C      1  0.4226220000000  0.4442940000000  0.4338040000000 1.0
C      1  0.5473980000000  0.5450870000000  0.4161910000000 1.0
C      1  0.5450950000000  0.4868090000000  0.4918480000000 1.0
C      1  0.5524530000000  0.5136320000000  0.4178880000000 1.0
C      1  0.5575660000000  0.4149400000000  0.5558420000000 1.0
C      1  0.5249490000000  0.4408660000000  0.4945990000000 1.0
C      1  0.4052260000000  0.4805170000000  0.5315380000000 1.0
C      1  0.4148580000000  0.4311120000000  0.4623510000000 1.0
C      1  0.4938340000000  0.5744880000000  0.4202760000000 1.0
C      1  0.4843890000000  0.4203660000000  0.4679460000000 1.0
C      1  0.4629230000000  0.5810710000000  0.4292400000000 1.0
C      1  0.4456920000000  0.4868620000000  0.5502140000000 1.0
C      1  0.5376410000000  0.4555620000000  0.5879450000000 1.0
C      1  0.5508870000000  0.4317270000000  0.5801130000000 1.0
C      1  0.5022480000000  0.5304220000000  0.4637490000000 1.0
C      1  0.5238990000000  0.5698090000000  0.4109970000000 1.0
C      1  0.5471970000000  0.4907550000000  0.3943320000000 1.0
C      1  0.4850690000000  0.4510030000000  0.4837390000000 1.0
C      1  0.4911780000000  0.5616760000000  0.4726180000000 1.0
C      1  0.5304810000000  0.4668430000000  0.5122820000000 1.0
C      1  0.4579700000000  0.5512190000000  0.4944650000000 1.0
C      1  0.4595950000000  0.4101800000000  0.5688320000000 1.0
C      1  0.5175370000000  0.4760180000000  0.3858630000000 1.0
C      1  0.4990620000000  0.5497080000000  0.5631390000000 1.0
C      1  0.4392270000000  0.5201870000000  0.5531330000000 1.0
C      1  0.5738010000000  0.4530930000000  0.4327460000000 1.0
C      1  0.4861700000000  0.4778580000000  0.3861160000000 1.0
C      1  0.5948380000000  0.4767770000000  0.4405430000000 1.0
C      1  0.4993150000000  0.5282630000000  0.5144850000000 1.0
C      1  0.4842440000000  0.6080150000000  0.4923170000000 1.0
C      1  0.4396710000000  0.5376370000000  0.5269720000000 1.0
C      1  0.4502640000000  0.5048670000000  0.3997510000000 1.0
C      1  0.5870450000000  0.4290840000000  0.4954330000000 1.0
C      1  0.4589920000000  0.4983760000000  0.5144290000000 1.0
C      1  0.5899600000000  0.5328710000000  0.5081480000000 1.0
C      1  0.4974480000000  0.4883200000000  0.4322780000000 1.0
C      1  0.5011830000000  0.5416240000000  0.5955080000000 1.0
C      1  0.5408000000000  0.5434340000000  0.4888600000000 1.0
C      1  0.5620890000000  0.5885930000000  0.4389030000000 1.0
C      1  0.4677090000000  0.5320670000000  0.5964280000000 1.0
C      1  0.4674790000000  0.5396530000000  0.5553020000000 1.0
C      1  0.4826760000000  0.5769800000000  0.5641250000000 1.0
C      1  0.4090820000000  0.4673710000000  0.4163490000000 1.0
C      1  0.5745700000000  0.6001790000000  0.4917250000000 1.0
C      1  0.5667000000000  0.4214130000000  0.4433870000000 1.0
C      1  0.4995150000000  0.4247980000000  0.5725460000000 1.0
C      1  0.4904130000000  0.4571430000000  0.4200080000000 1.0
C      1  0.5294770000000  0.5852750000000  0.5021430000000 1.0
C      1  0.4389880000000  0.5490590000000  0.4278420000000 1.0
C      1  0.4468580000000  0.4611540000000  0.4783460000000 1.0
C      1  0.5238760000000  0.5826110000000  0.5806420000000 1.0
C      1  0.4064100000000  0.4471080000000  0.4854020000000 1.0
C      1  0.4620520000000  0.4147570000000  0.4441710000000 1.0
C      1  0.6099350000000  0.4561640000000  0.5355320000000 1.0
C      1  0.5057620000000  0.3984730000000  0.4600890000000 1.0
C      1  0.6047580000000  0.4832630000000  0.4729190000000 1.0
C      1  0.4403030000000  0.4913220000000  0.5839520000000 1.0
C      1  0.4842490000000  0.5651710000000  0.5115110000000 1.0
C      1  0.5585590000000  0.4482120000000  0.4614360000000 1.0
C      1  0.5530180000000  0.5701130000000  0.5719640000000 1.0
C      1  0.5695050000000  0.4833560000000  0.4184200000000 1.0
C      1  0.4880980000000  0.4867100000000  0.6043810000000 1.0
C      1  0.4901000000000  0.5136880000000  0.6117040000000 1.0
C      1  0.4592050000000  0.4065190000000  0.5141840000000 1.0
C      1  0.5402320000000  0.4835760000000  0.4600290000000 1.0
C      1  0.3912440000000  0.5052800000000  0.5121860000000 1.0
C      1  0.5680460000000  0.5608440000000  0.4358930000000 1.0
C      1  0.4225740000000  0.4373900000000  0.5406660000000 1.0
C      1  0.4606220000000  0.4884650000000  0.4821270000000 1.0
C      1  0.3940100000000  0.5321350000000  0.5043700000000 1.0
C      1  0.5786630000000  0.5557770000000  0.5569630000000 1.0
C      1  0.5215550000000  0.3926090000000  0.5064050000000 1.0
C      1  0.4654830000000  0.3892900000000  0.4325410000000 1.0
C      1  0.5965910000000  0.4351950000000  0.5230520000000 1.0
C      1  0.6113110000000  0.4895780000000  0.5286940000000 1.0
C      1  0.4390820000000  0.4756740000000  0.4044430000000 1.0
C      1  0.5654730000000  0.4730980000000  0.5585910000000 1.0
C      1  0.5162930000000  0.4469200000000  0.5439270000000 1.0
C      1  0.3919280000000  0.4732980000000  0.5006470000000 1.0
C      1  0.4969930000000  0.5015610000000  0.5261870000000 1.0
C      1  0.5991120000000  0.5022140000000  0.5006160000000 1.0
C      1  0.4338070000000  0.4930400000000  0.4336580000000 1.0
C      1  0.4312940000000  0.4630770000000  0.5787410000000 1.0
C      1  0.5275650000000  0.4912310000000  0.6025150000000 1.0
C      1  0.6027380000000  0.5058840000000  0.4516100000000 1.0
C      1  0.4754350000000  0.5050940000000  0.3863110000000 1.0
C      1  0.5248640000000  0.5945370000000  0.5333670000000 1.0
C      1  0.5486700000000  0.4218730000000  0.5033630000000 1.0
C      1  0.4525010000000  0.4296090000000  0.4927670000000 1.0
C      1  0.5695380000000  0.5097860000000  0.5739350000000 1.0
C      1  0.4952490000000  0.5940970000000  0.5207280000000 1.0
C      1  0.5061050000000  0.5984820000000  0.5589640000000 1.0
C      1  0.4691240000000  0.5282870000000  0.5146030000000 1.0
C      1  0.5106460000000  0.5504820000000  0.4971790000000 1.0
C      1  0.4400570000000  0.5186880000000  0.5929200000000 1.0
C      1  0.4999190000000  0.5138990000000  0.4166000000000 1.0
C      1  0.4839400000000  0.4123640000000  0.5450300000000 1.0
C      1  0.4844420000000  0.4567330000000  0.4521810000000 1.0
C      1  0.4835170000000  0.5143310000000  0.5723070000000 1.0
C      1  0.5344220000000  0.4255360000000  0.4543970000000 1.0
C      1  0.5377960000000  0.5649310000000  0.5274880000000 1.0
C      1  0.5346300000000  0.5150310000000  0.5272300000000 1.0
C      1  0.5238580000000  0.5438130000000  0.5418710000000 1.0
C      1  0.4506320000000  0.4355560000000  0.4236690000000 1.0
C      1  0.5409290000000  0.4011200000000  0.5293000000000 1.0
C      1  0.5114740000000  0.5069910000000  0.5787150000000 1.0
C      1  0.5020270000000  0.4754990000000  0.5176940000000 1.0
C      1  0.5687940000000  0.5834990000000  0.5444860000000 1.0
C      1  0.4781080000000  0.6115300000000  0.5446300000000 1.0
C      1  0.4026320000000  0.5524450000000  0.5261140000000 1.0
C      1  0.4840590000000  0.4892200000000  0.4626960000000 1.0
C      1  0.5450400000000  0.5203230000000  0.5955850000000 1.0
C      1  0.5333860000000  0.5525380000000  0.5939440000000 1.0
C      1  0.5119760000000  0.4399300000000  0.4407340000000 1.0
C      1  0.4899080000000  0.3995570000000  0.5169480000000 1.0
C      1  0.5861400000000  0.5319410000000  0.5415570000000 1.0
C      1  0.4604300000000  0.5628510000000  0.5326330000000 1.0
C      1  0.5631840000000  0.5538460000000  0.5075130000000 1.0
C      1  0.5299780000000  0.4587080000000  0.4103820000000 1.0
C      1  0.5629160000000  0.5087060000000  0.5405520000000 1.0
C      1  0.4736600000000  0.5014840000000  0.5457590000000 1.0
C      1  0.3977260000000  0.4819670000000  0.4682760000000 1.0
C      1  0.4358930000000  0.5843680000000  0.4476920000000 1.0
C      1  0.5246780000000  0.4168570000000  0.5538270000000 1.0
C      1  0.4814120000000  0.5238830000000  0.4406230000000 1.0
C      1  0.4418050000000  0.5114800000000  0.4680590000000 1.0
C      1  0.5415100000000  0.5949610000000  0.4196630000000 1.0
C      1  0.4881140000000  0.4390170000000  0.5934860000000 1.0
C      1  0.5556200000000  0.4828990000000  0.5870820000000 1.0
C      1  0.5648010000000  0.4115550000000  0.4761210000000 1.0
C      1  0.4137630000000  0.5627330000000  0.4469190000000 1.0
C      1  0.4630340000000  0.5708920000000  0.4605290000000 1.0
C      1  0.5761820000000  0.4536520000000  0.4840780000000 1.0
C      1  0.4630730000000  0.6160230000000  0.5139210000000 1.0
C      1  0.4308390000000  0.5682750000000  0.5715220000000 1.0
C      1  0.4232640000000  0.5313680000000  0.4529190000000 1.0
C      1  0.4882990000000  0.4749350000000  0.5761290000000 1.0
C      1  0.5792820000000  0.5204320000000  0.4554850000000 1.0
C      1  0.4214910000000  0.4952620000000  0.4853710000000 1.0
C      1  0.4609990000000  0.5372820000000  0.4642670000000 1.0
C      1  0.4745510000000  0.4570030000000  0.5128990000000 1.0
C      1  0.5591300000000  0.5949890000000  0.4672950000000 1.0
C      1  0.4678960000000  0.5543850000000  0.4100270000000 1.0
C      1  0.5275220000000  0.4947270000000  0.5520520000000 1.0
C      1  0.5340590000000  0.5255180000000  0.5651810000000 1.0
C      1  0.5043030000000  0.4182140000000  0.4946160000000 1.0
C      1  0.4549150000000  0.4391440000000  0.5844380000000 1.0
C      1  0.4874190000000  0.5344130000000  0.3936890000000 1.0
C      1  0.4950440000000  0.6012590000000  0.4688240000000 1.0
C      1  0.5813260000000  0.5483260000000  0.4573420000000 1.0
C      1  0.5779350000000  0.4836150000000  0.5287280000000 1.0
C      1  0.5275440000000  0.5531480000000  0.4598040000000 1.0
C      1  0.4704250000000  0.4580700000000  0.5632270000000 1.0
C      1  0.5234820000000  0.4708610000000  0.4373570000000 1.0
C      1  0.4406890000000  0.4176510000000  0.4672530000000 1.0
C      1  0.5170630000000  0.4695230000000  0.5658830000000 1.0
C      1  0.5204870000000  0.5410640000000  0.3956990000000 1.0
C      1  0.5981300000000  0.4703220000000  0.5603960000000 1.0
C      1  0.5330130000000  0.3985600000000  0.4751630000000 1.0
C      1  0.4293210000000  0.4142020000000  0.5281420000000 1.0
C      1  0.5939340000000  0.5547120000000  0.4823640000000 1.0
C      1  0.5102230000000  0.4615700000000  0.6065050000000 1.0
C      1  0.5987920000000  0.5042550000000  0.5570230000000 1.0
END
