TITL C-2778434-4341-1087 -0.00690531986919919 125000 -894.61878918321 0 0 155 (C1) n - 1
REM
REM in /home/nfs/bkarasulu/CARBON/AIRSS/Generating-Clusters/REBO/Only-C1/SD-CG/HFTN-CG
REM
REM
REM
REM
REM
REM ./C.cell (11c1c37f851c82e70ff6c80c92926a4b)
REM
REM compiler GCC version 9.2.1 20190827 (Red Hat 9.2.1-1)
REM options -cpp -mtune=generic -march=x86-64 -g -O0 -fpre-include=/usr/include/finclude/math-vector-fortran.h
REM seed 759585260 -227577813 -1026014461 2050672664 -636854987 -1862478813 -1671236829 1593987102 946653053 -911877521 -517695649 -1872733704 182148127 806350314 2101459236 -1704873525 -1960325492 482681112 801593427 -869963485 -1178787458 715864317 1197281993 1688457964 1067888113 -254190147 -1180916440 -561260997 -411824433 -888277912 1402332941 -1893595189 758859015
REM
CELL 1.54180   50.00000   50.00000   50.00000   90.00000   90.00000   90.00000
LATT -1
SFAC C  
C      1  0.4478350000000  0.4248060000000  0.5391900000000 1.0
C      1  0.4392140000000  0.4813410000000  0.5064930000000 1.0
C      1  0.5538560000000  0.4871980000000  0.4340350000000 1.0
C      1  0.5196640000000  0.4507060000000  0.4169050000000 1.0
C      1  0.5293770000000  0.4803120000000  0.4172590000000 1.0
C      1  0.4281710000000  0.4455420000000  0.5203410000000 1.0
C      1  0.4236430000000  0.5456340000000  0.4365310000000 1.0
C      1  0.4083930000000  0.5733720000000  0.5101970000000 1.0
C      1  0.5449270000000  0.5176880000000  0.5392770000000 1.0
C      1  0.4350780000000  0.5177830000000  0.4622540000000 1.0
C      1  0.5025450000000  0.5025640000000  0.6106180000000 1.0
C      1  0.4999960000000  0.5650930000000  0.5210780000000 1.0
C      1  0.4385480000000  0.4450960000000  0.4478530000000 1.0
C      1  0.5694440000000  0.4865810000000  0.4870150000000 1.0
C      1  0.5177890000000  0.4798690000000  0.5172360000000 1.0
C      1  0.4538720000000  0.4224610000000  0.4383310000000 1.0
C      1  0.4703030000000  0.4575950000000  0.5832690000000 1.0
C      1  0.5222910000000  0.4159080000000  0.5779120000000 1.0
C      1  0.5416090000000  0.4299080000000  0.4185680000000 1.0
C      1  0.4593170000000  0.4693730000000  0.4542050000000 1.0
C      1  0.4326690000000  0.5565580000000  0.5478330000000 1.0
C      1  0.5471280000000  0.5065000000000  0.3795940000000 1.0
C      1  0.5676030000000  0.4419620000000  0.4585850000000 1.0
C      1  0.5649150000000  0.5226480000000  0.5630010000000 1.0
C      1  0.5346040000000  0.4480980000000  0.5342850000000 1.0
C      1  0.4734040000000  0.5711090000000  0.4787700000000 1.0
C      1  0.5419570000000  0.5520410000000  0.5037700000000 1.0
C      1  0.5144450000000  0.4760410000000  0.5998120000000 1.0
C      1  0.4632970000000  0.5847340000000  0.5527600000000 1.0
C      1  0.5316850000000  0.4840470000000  0.3843800000000 1.0
C      1  0.4528900000000  0.4653430000000  0.4838900000000 1.0
C      1  0.4873020000000  0.4584370000000  0.5027260000000 1.0
C      1  0.4573330000000  0.4913420000000  0.5553590000000 1.0
C      1  0.5141290000000  0.5269830000000  0.4076980000000 1.0
C      1  0.5042190000000  0.4608080000000  0.5430260000000 1.0
C      1  0.5461770000000  0.4146580000000  0.5625930000000 1.0
C      1  0.4864530000000  0.5937320000000  0.5297240000000 1.0
C      1  0.5429100000000  0.4050040000000  0.5350020000000 1.0
C      1  0.5639860000000  0.4552030000000  0.5250760000000 1.0
C      1  0.4210260000000  0.5478940000000  0.4698910000000 1.0
C      1  0.4456720000000  0.5869890000000  0.4449290000000 1.0
C      1  0.5285280000000  0.4915990000000  0.5461640000000 1.0
C      1  0.4350180000000  0.4873250000000  0.4210140000000 1.0
C      1  0.4390240000000  0.5179280000000  0.4284490000000 1.0
C      1  0.5192370000000  0.5197630000000  0.5196160000000 1.0
C      1  0.5327500000000  0.5336520000000  0.4851060000000 1.0
C      1  0.5003420000000  0.4073930000000  0.5094270000000 1.0
C      1  0.4611020000000  0.5083060000000  0.4795280000000 1.0
C      1  0.4018360000000  0.5466120000000  0.4945390000000 1.0
C      1  0.4765510000000  0.4319520000000  0.4229910000000 1.0
C      1  0.5657080000000  0.4846530000000  0.5185960000000 1.0
C      1  0.5987770000000  0.5227920000000  0.5177540000000 1.0
C      1  0.5496120000000  0.5674660000000  0.4544120000000 1.0
C      1  0.5522530000000  0.4144140000000  0.5072500000000 1.0
C      1  0.5544450000000  0.4162640000000  0.4737070000000 1.0
C      1  0.5238550000000  0.4119740000000  0.4881630000000 1.0
C      1  0.4741490000000  0.5919890000000  0.4447510000000 1.0
C      1  0.5668330000000  0.4724370000000  0.5935130000000 1.0
C      1  0.5443820000000  0.5275100000000  0.3993440000000 1.0
C      1  0.5123590000000  0.5807660000000  0.4136670000000 1.0
C      1  0.4473450000000  0.4771080000000  0.5350990000000 1.0
C      1  0.5161500000000  0.6017700000000  0.4766090000000 1.0
C      1  0.4997400000000  0.4039280000000  0.5566420000000 1.0
C      1  0.5156350000000  0.4260100000000  0.4597790000000 1.0
C      1  0.5081550000000  0.5167000000000  0.5574350000000 1.0
C      1  0.5309120000000  0.5643660000000  0.5600160000000 1.0
C      1  0.5945620000000  0.5097380000000  0.4866110000000 1.0
C      1  0.5094270000000  0.5299550000000  0.5949020000000 1.0
C      1  0.4861710000000  0.6009420000000  0.4732940000000 1.0
C      1  0.5980620000000  0.4344770000000  0.5237120000000 1.0
C      1  0.5320250000000  0.5535310000000  0.5866750000000 1.0
C      1  0.5353430000000  0.5148890000000  0.5779230000000 1.0
C      1  0.5872470000000  0.4468930000000  0.5475050000000 1.0
C      1  0.5361580000000  0.5296170000000  0.4325510000000 1.0
C      1  0.4223050000000  0.4889180000000  0.4497340000000 1.0
C      1  0.4566200000000  0.5027010000000  0.6015770000000 1.0
C      1  0.4542260000000  0.5954410000000  0.5213220000000 1.0
C      1  0.4763350000000  0.5133090000000  0.5478820000000 1.0
C      1  0.5321850000000  0.4659720000000  0.4934460000000 1.0
C      1  0.5388810000000  0.4863370000000  0.5865270000000 1.0
C      1  0.5154970000000  0.5446890000000  0.5394060000000 1.0
C      1  0.4567500000000  0.5979860000000  0.4908960000000 1.0
C      1  0.4584650000000  0.4305440000000  0.5690300000000 1.0
C      1  0.4552000000000  0.5287810000000  0.5895900000000 1.0
C      1  0.4997030000000  0.4447860000000  0.4398060000000 1.0
C      1  0.5151080000000  0.3949290000000  0.5329820000000 1.0
C      1  0.5527940000000  0.5341090000000  0.4593990000000 1.0
C      1  0.4283840000000  0.5783960000000  0.5287570000000 1.0
C      1  0.5193790000000  0.4573410000000  0.6204310000000 1.0
C      1  0.5819870000000  0.5030520000000  0.5402500000000 1.0
C      1  0.5457210000000  0.4675440000000  0.5600670000000 1.0
C      1  0.4799630000000  0.5434810000000  0.5874350000000 1.0
C      1  0.3724420000000  0.5453760000000  0.4860320000000 1.0
C      1  0.5988760000000  0.4871060000000  0.4611460000000 1.0
C      1  0.4892010000000  0.5718960000000  0.4259500000000 1.0
C      1  0.5490010000000  0.5898080000000  0.5124780000000 1.0
C      1  0.4380420000000  0.5680830000000  0.4249890000000 1.0
C      1  0.5707290000000  0.5693080000000  0.4958480000000 1.0
C      1  0.5013570000000  0.4967190000000  0.4660900000000 1.0
C      1  0.5045210000000  0.5006850000000  0.4084280000000 1.0
C      1  0.4867950000000  0.4350770000000  0.5506540000000 1.0
C      1  0.4772650000000  0.5004470000000  0.6207290000000 1.0
C      1  0.4863690000000  0.5524230000000  0.4986100000000 1.0
C      1  0.5040100000000  0.4649250000000  0.3906060000000 1.0
C      1  0.4645630000000  0.5291110000000  0.4168400000000 1.0
C      1  0.5765280000000  0.4371250000000  0.4996070000000 1.0
C      1  0.5932650000000  0.5838710000000  0.4881930000000 1.0
C      1  0.4343920000000  0.5339440000000  0.5720730000000 1.0
C      1  0.5741860000000  0.5369110000000  0.4859320000000 1.0
C      1  0.5768050000000  0.4589850000000  0.5698990000000 1.0
C      1  0.4580100000000  0.4025090000000  0.4589120000000 1.0
C      1  0.5728530000000  0.5436910000000  0.5275950000000 1.0
C      1  0.4463110000000  0.5386710000000  0.5148160000000 1.0
C      1  0.4542450000000  0.4746550000000  0.4050020000000 1.0
C      1  0.5846260000000  0.4901080000000  0.4368700000000 1.0
C      1  0.5950860000000  0.5328820000000  0.5506560000000 1.0
C      1  0.4368060000000  0.5111520000000  0.5015210000000 1.0
C      1  0.5201460000000  0.5037040000000  0.4920500000000 1.0
C      1  0.4872090000000  0.5390320000000  0.4346400000000 1.0
C      1  0.4025100000000  0.4982180000000  0.5338400000000 1.0
C      1  0.5855970000000  0.4597430000000  0.4767340000000 1.0
C      1  0.4900990000000  0.5081180000000  0.5200470000000 1.0
C      1  0.5105530000000  0.4385430000000  0.5121870000000 1.0
C      1  0.4879020000000  0.4712860000000  0.4510460000000 1.0
C      1  0.4139310000000  0.5281270000000  0.5454950000000 1.0
C      1  0.5377860000000  0.4467030000000  0.4742300000000 1.0
C      1  0.5064750000000  0.5212860000000  0.4463020000000 1.0
C      1  0.4348990000000  0.5790340000000  0.4724480000000 1.0
C      1  0.4801700000000  0.5271590000000  0.4970270000000 1.0
C      1  0.4145940000000  0.4616810000000  0.4933180000000 1.0
C      1  0.5552250000000  0.5002750000000  0.4619090000000 1.0
C      1  0.4840950000000  0.4876380000000  0.4945170000000 1.0
C      1  0.4979610000000  0.4634330000000  0.5763950000000 1.0
C      1  0.4803490000000  0.4887280000000  0.3967050000000 1.0
C      1  0.4683850000000  0.4108580000000  0.5155510000000 1.0
C      1  0.4889420000000  0.4222730000000  0.5827500000000 1.0
C      1  0.5026110000000  0.5789660000000  0.5547540000000 1.0
C      1  0.4601230000000  0.5380880000000  0.5418830000000 1.0
C      1  0.4620410000000  0.5589110000000  0.4112350000000 1.0
C      1  0.4552090000000  0.4817740000000  0.5819520000000 1.0
C      1  0.5602560000000  0.5173180000000  0.5101100000000 1.0
C      1  0.4746600000000  0.4500290000000  0.4004980000000 1.0
C      1  0.4790390000000  0.5669320000000  0.5726020000000 1.0
C      1  0.5658980000000  0.4391430000000  0.4279720000000 1.0
C      1  0.5295140000000  0.6048120000000  0.5013870000000 1.0
C      1  0.4471290000000  0.5600390000000  0.4975210000000 1.0
C      1  0.5320750000000  0.5877470000000  0.4577940000000 1.0
C      1  0.5495310000000  0.5650100000000  0.5344050000000 1.0
C      1  0.4096330000000  0.5232710000000  0.5123690000000 1.0
C      1  0.4056670000000  0.4706540000000  0.5252710000000 1.0
C      1  0.4729900000000  0.4411410000000  0.4788340000000 1.0
C      1  0.4619920000000  0.4446620000000  0.5168690000000 1.0
C      1  0.5297320000000  0.4105500000000  0.4353580000000 1.0
C      1  0.4667740000000  0.4139290000000  0.4832830000000 1.0
C      1  0.4191450000000  0.4637150000000  0.4626860000000 1.0
END
