TITL C-2778436-5916-866 -0.0013773674135431 125000 -1009.37681445364 0 0 168 (C1) n - 1
REM
REM in /home/nfs/bkarasulu/CARBON/AIRSS/Generating-Clusters/REBO/Only-C1/SD-CG/HFTN-CG
REM
REM
REM
REM
REM
REM ./C.cell (11c1c37f851c82e70ff6c80c92926a4b)
REM
REM compiler GCC version 9.2.1 20190827 (Red Hat 9.2.1-1)
REM options -cpp -mtune=generic -march=x86-64 -g -O0 -fpre-include=/usr/include/finclude/math-vector-fortran.h
REM seed -1198187749 1809410446 484325406 1403501509 1535660095 537065525 2059636822 -1982149172 -654299762 -499237574 -738467943 -612757745 1592611147 963652159 -1376488115 -984439043 1048527415 455020694 -956416820 -947202027 90302459 639893803 1668731402 -1582297353 -945928755 518015369 -356498710 -1315112602 1960712372 -1089366229 709836147 1521140175 -419100050
REM
CELL 1.54180   50.00000   50.00000   50.00000   90.00000   90.00000   90.00000
LATT -1
SFAC C  
C      1  0.4506240000000  0.4906810000000  0.5356000000000 1.0
C      1  0.5237950000000  0.6189790000000  0.4856810000000 1.0
C      1  0.3862190000000  0.5242340000000  0.4666290000000 1.0
C      1  0.5492130000000  0.4966320000000  0.5906880000000 1.0
C      1  0.5262880000000  0.5250520000000  0.3919830000000 1.0
C      1  0.4566410000000  0.6069340000000  0.5355290000000 1.0
C      1  0.5632290000000  0.4977660000000  0.5348620000000 1.0
C      1  0.4806740000000  0.4831170000000  0.5238640000000 1.0
C      1  0.5124230000000  0.5949180000000  0.5416480000000 1.0
C      1  0.4417540000000  0.5287860000000  0.4656190000000 1.0
C      1  0.4657230000000  0.4829080000000  0.4471520000000 1.0
C      1  0.5030100000000  0.4653220000000  0.4810550000000 1.0
C      1  0.5554760000000  0.5368560000000  0.5084800000000 1.0
C      1  0.5634930000000  0.4576280000000  0.4321190000000 1.0
C      1  0.5633480000000  0.4803820000000  0.5642660000000 1.0
C      1  0.4036700000000  0.4692840000000  0.5357560000000 1.0
C      1  0.4760850000000  0.4701110000000  0.4079220000000 1.0
C      1  0.4122980000000  0.5459680000000  0.4644360000000 1.0
C      1  0.4760100000000  0.4023440000000  0.4610870000000 1.0
C      1  0.5475430000000  0.5797770000000  0.5691850000000 1.0
C      1  0.3899270000000  0.5257150000000  0.5200630000000 1.0
C      1  0.4955840000000  0.5419260000000  0.5055580000000 1.0
C      1  0.5498140000000  0.5427970000000  0.4609310000000 1.0
C      1  0.4488870000000  0.5150450000000  0.4937760000000 1.0
C      1  0.5886170000000  0.4448520000000  0.5143570000000 1.0
C      1  0.4076720000000  0.5613210000000  0.4925830000000 1.0
C      1  0.3861860000000  0.4997000000000  0.4900970000000 1.0
C      1  0.4811270000000  0.4485600000000  0.4329520000000 1.0
C      1  0.4583610000000  0.5208630000000  0.5228870000000 1.0
C      1  0.4577390000000  0.4914600000000  0.4043920000000 1.0
C      1  0.5462980000000  0.4812660000000  0.4218520000000 1.0
C      1  0.4556890000000  0.5491570000000  0.4251720000000 1.0
C      1  0.5275570000000  0.5480000000000  0.5113720000000 1.0
C      1  0.4902560000000  0.6116630000000  0.5331460000000 1.0
C      1  0.5832010000000  0.4397420000000  0.5438340000000 1.0
C      1  0.5650810000000  0.5180850000000  0.4561530000000 1.0
C      1  0.5638450000000  0.5092180000000  0.5082850000000 1.0
C      1  0.4749090000000  0.5108640000000  0.4346400000000 1.0
C      1  0.5253140000000  0.4037970000000  0.4613380000000 1.0
C      1  0.5253390000000  0.5061600000000  0.5705140000000 1.0
C      1  0.4846810000000  0.5686740000000  0.4895000000000 1.0
C      1  0.5463190000000  0.5312650000000  0.4109140000000 1.0
C      1  0.4485140000000  0.4611320000000  0.4924450000000 1.0
C      1  0.3949490000000  0.4702540000000  0.5023730000000 1.0
C      1  0.4974160000000  0.5994270000000  0.4811900000000 1.0
C      1  0.4358520000000  0.5044310000000  0.4200980000000 1.0
C      1  0.4909550000000  0.4850820000000  0.5919470000000 1.0
C      1  0.4134240000000  0.5674840000000  0.5483650000000 1.0
C      1  0.4917500000000  0.4375020000000  0.4906260000000 1.0
C      1  0.5573120000000  0.4305580000000  0.5504650000000 1.0
C      1  0.6051680000000  0.5213000000000  0.5094040000000 1.0
C      1  0.5503400000000  0.4154660000000  0.4565510000000 1.0
C      1  0.5139110000000  0.5636690000000  0.4774960000000 1.0
C      1  0.5594190000000  0.4541800000000  0.5016890000000 1.0
C      1  0.5021940000000  0.4745160000000  0.3961840000000 1.0
C      1  0.4866110000000  0.5126590000000  0.5775290000000 1.0
C      1  0.5129220000000  0.3863890000000  0.4826760000000 1.0
C      1  0.5228510000000  0.5626340000000  0.5717190000000 1.0
C      1  0.5371770000000  0.4614250000000  0.5212810000000 1.0
C      1  0.5758420000000  0.5613380000000  0.5042150000000 1.0
C      1  0.6129210000000  0.4646550000000  0.5115820000000 1.0
C      1  0.5414450000000  0.4109940000000  0.5287400000000 1.0
C      1  0.6271360000000  0.4729760000000  0.5342930000000 1.0
C      1  0.5881630000000  0.4675640000000  0.4424540000000 1.0
C      1  0.4586720000000  0.5795680000000  0.5174620000000 1.0
C      1  0.4634200000000  0.4032740000000  0.5466600000000 1.0
C      1  0.4604200000000  0.4880030000000  0.4792620000000 1.0
C      1  0.4146680000000  0.4630460000000  0.5640900000000 1.0
C      1  0.4846930000000  0.3810110000000  0.4777180000000 1.0
C      1  0.4408570000000  0.4448190000000  0.5712200000000 1.0
C      1  0.5358660000000  0.4671710000000  0.4592910000000 1.0
C      1  0.5358330000000  0.5894260000000  0.4775720000000 1.0
C      1  0.4836560000000  0.5111500000000  0.5436900000000 1.0
C      1  0.4700970000000  0.5546050000000  0.5806260000000 1.0
C      1  0.4270600000000  0.5083530000000  0.4454050000000 1.0
C      1  0.4957970000000  0.6235680000000  0.5044450000000 1.0
C      1  0.5056620000000  0.5141740000000  0.4314060000000 1.0
C      1  0.4787800000000  0.5145040000000  0.4673990000000 1.0
C      1  0.6154300000000  0.4727770000000  0.5591560000000 1.0
C      1  0.5562870000000  0.6027060000000  0.5243220000000 1.0
C      1  0.5096310000000  0.5657430000000  0.5341940000000 1.0
C      1  0.5003260000000  0.5159040000000  0.4875730000000 1.0
C      1  0.4523190000000  0.5706390000000  0.4790430000000 1.0
C      1  0.4923220000000  0.4118080000000  0.5487580000000 1.0
C      1  0.5166520000000  0.4165940000000  0.4979690000000 1.0
C      1  0.5261250000000  0.4852720000000  0.5274090000000 1.0
C      1  0.5143440000000  0.4406730000000  0.4330540000000 1.0
C      1  0.5912060000000  0.4957880000000  0.4364320000000 1.0
C      1  0.6083550000000  0.5052500000000  0.4854360000000 1.0
C      1  0.4423820000000  0.5458050000000  0.5313560000000 1.0
C      1  0.4154390000000  0.4479380000000  0.4603190000000 1.0
C      1  0.4613620000000  0.4266060000000  0.4491690000000 1.0
C      1  0.4675090000000  0.5240900000000  0.4057050000000 1.0
C      1  0.5190990000000  0.4885860000000  0.4397360000000 1.0
C      1  0.4099240000000  0.5017590000000  0.5313290000000 1.0
C      1  0.5406800000000  0.5992930000000  0.5479640000000 1.0
C      1  0.4173320000000  0.4483930000000  0.5139150000000 1.0
C      1  0.4417810000000  0.4426250000000  0.4293720000000 1.0
C      1  0.6117030000000  0.4767170000000  0.4861460000000 1.0
C      1  0.5135240000000  0.5149510000000  0.5335970000000 1.0
C      1  0.5132350000000  0.5290210000000  0.5903970000000 1.0
C      1  0.5775540000000  0.5397810000000  0.5505190000000 1.0
C      1  0.5912910000000  0.5414930000000  0.5250450000000 1.0
C      1  0.4651200000000  0.6087200000000  0.5020690000000 1.0
C      1  0.4005880000000  0.4692330000000  0.4691550000000 1.0
C      1  0.5194770000000  0.5779580000000  0.4494360000000 1.0
C      1  0.4358300000000  0.4292830000000  0.5946780000000 1.0
C      1  0.5621150000000  0.5078900000000  0.4243290000000 1.0
C      1  0.5586870000000  0.4727360000000  0.4773530000000 1.0
C      1  0.5248540000000  0.5401360000000  0.5498690000000 1.0
C      1  0.4018760000000  0.4972370000000  0.4565730000000 1.0
C      1  0.4394850000000  0.5115380000000  0.5837760000000 1.0
C      1  0.4704250000000  0.5446340000000  0.4555560000000 1.0
C      1  0.5109920000000  0.4848130000000  0.5551980000000 1.0
C      1  0.4780180000000  0.4500990000000  0.5170490000000 1.0
C      1  0.4434250000000  0.4673480000000  0.4326980000000 1.0
C      1  0.4364420000000  0.5837310000000  0.5502140000000 1.0
C      1  0.4999050000000  0.4251800000000  0.4596610000000 1.0
C      1  0.4796930000000  0.5596860000000  0.5281380000000 1.0
C      1  0.5080630000000  0.4994940000000  0.3840340000000 1.0
C      1  0.5990610000000  0.4580640000000  0.4672090000000 1.0
C      1  0.4709930000000  0.3723630000000  0.5009880000000 1.0
C      1  0.4166400000000  0.5067240000000  0.4923590000000 1.0
C      1  0.5660460000000  0.4989520000000  0.4816940000000 1.0
C      1  0.4965930000000  0.4707040000000  0.4526110000000 1.0
C      1  0.4674770000000  0.5982490000000  0.4693100000000 1.0
C      1  0.5583610000000  0.4049600000000  0.5032340000000 1.0
C      1  0.5894760000000  0.4621910000000  0.5609420000000 1.0
C      1  0.4975630000000  0.5580880000000  0.5872090000000 1.0
C      1  0.4467690000000  0.4263340000000  0.5466820000000 1.0
C      1  0.4676950000000  0.4651400000000  0.5768670000000 1.0
C      1  0.4954730000000  0.4587570000000  0.5626080000000 1.0
C      1  0.5677200000000  0.5620740000000  0.4727810000000 1.0
C      1  0.4792580000000  0.3836750000000  0.5254400000000 1.0
C      1  0.4851350000000  0.5755750000000  0.4506090000000 1.0
C      1  0.4612770000000  0.5279170000000  0.5862330000000 1.0
C      1  0.5104470000000  0.3979370000000  0.5258520000000 1.0
C      1  0.5304590000000  0.4452500000000  0.4853960000000 1.0
C      1  0.4604710000000  0.5633720000000  0.5539760000000 1.0
C      1  0.4961060000000  0.4404000000000  0.5403180000000 1.0
C      1  0.4169510000000  0.4893370000000  0.5802050000000 1.0
C      1  0.5214060000000  0.4555410000000  0.5802580000000 1.0
C      1  0.5473850000000  0.5308990000000  0.5917300000000 1.0
C      1  0.4136520000000  0.5343830000000  0.5411190000000 1.0
C      1  0.5230090000000  0.4618890000000  0.4104430000000 1.0
C      1  0.5212840000000  0.4785300000000  0.5987540000000 1.0
C      1  0.5584710000000  0.5880940000000  0.5012040000000 1.0
C      1  0.5611100000000  0.5514910000000  0.5750200000000 1.0
C      1  0.5454000000000  0.4515090000000  0.5659940000000 1.0
C      1  0.4472600000000  0.4857320000000  0.5642450000000 1.0
C      1  0.5684810000000  0.4157040000000  0.4786730000000 1.0
C      1  0.4929140000000  0.5272980000000  0.3892180000000 1.0
C      1  0.4368590000000  0.5640400000000  0.4493520000000 1.0
C      1  0.5470930000000  0.4358150000000  0.4373790000000 1.0
C      1  0.3880780000000  0.5392470000000  0.4955510000000 1.0
C      1  0.5885840000000  0.4354260000000  0.4821680000000 1.0
C      1  0.4474370000000  0.4418170000000  0.5206160000000 1.0
C      1  0.5241380000000  0.4386860000000  0.5301180000000 1.0
C      1  0.4983820000000  0.4883920000000  0.4991510000000 1.0
C      1  0.5377240000000  0.5538610000000  0.4338670000000 1.0
C      1  0.4315380000000  0.4837750000000  0.5113130000000 1.0
C      1  0.5503470000000  0.5197840000000  0.5534760000000 1.0
C      1  0.4341950000000  0.5649790000000  0.5048980000000 1.0
C      1  0.4880880000000  0.5585590000000  0.4228830000000 1.0
C      1  0.4407580000000  0.4425650000000  0.4692820000000 1.0
C      1  0.5102900000000  0.5410530000000  0.4248620000000 1.0
C      1  0.5980300000000  0.5136460000000  0.4605540000000 1.0
C      1  0.5256430000000  0.5351790000000  0.4802020000000 1.0
END
