TITL C-2778434-4341-126 -0.00408934705953167 125000 -1105.69313341228 0 0 189 (C1) n - 1
REM
REM in /home/nfs/bkarasulu/CARBON/AIRSS/Generating-Clusters/REBO/Only-C1/SD-CG/HFTN-CG
REM
REM
REM
REM
REM
REM ./C.cell (11c1c37f851c82e70ff6c80c92926a4b)
REM
REM compiler GCC version 9.2.1 20190827 (Red Hat 9.2.1-1)
REM options -cpp -mtune=generic -march=x86-64 -g -O0 -fpre-include=/usr/include/finclude/math-vector-fortran.h
REM seed -435763604 178298394 -246701682 -1476872981 404350258 -335975946 297569084 -753803099 -1068070259 -100701434 784695190 -1879136192 1149283844 -1379319080 1935231313 500515880 -1900453257 1095885596 201158830 -280343519 1228787885 144031579 248858864 2104182279 -1867799331 516542910 -290222490 1191520951 -1250963055 1655894427 700286806 -887099386 1106489853
REM
CELL 1.54180   50.00000   50.00000   50.00000   90.00000   90.00000   90.00000
LATT -1
SFAC C  
C      1  0.5002800000000  0.5245570000000  0.5347830000000 1.0
C      1  0.5062950000000  0.4856860000000  0.5940800000000 1.0
C      1  0.4618710000000  0.4178730000000  0.5630910000000 1.0
C      1  0.5565780000000  0.4640080000000  0.4982020000000 1.0
C      1  0.4639800000000  0.5985370000000  0.4958870000000 1.0
C      1  0.5166970000000  0.5345000000000  0.5072990000000 1.0
C      1  0.4625800000000  0.4682450000000  0.5713230000000 1.0
C      1  0.5376080000000  0.5969370000000  0.4840900000000 1.0
C      1  0.5461580000000  0.4379980000000  0.5194500000000 1.0
C      1  0.4380640000000  0.5189430000000  0.5045080000000 1.0
C      1  0.4924440000000  0.3970160000000  0.4384140000000 1.0
C      1  0.5984470000000  0.4796780000000  0.4860880000000 1.0
C      1  0.4346330000000  0.5573360000000  0.5257960000000 1.0
C      1  0.5763600000000  0.5781550000000  0.5291100000000 1.0
C      1  0.5067100000000  0.4307630000000  0.4225230000000 1.0
C      1  0.5650090000000  0.5778890000000  0.5596130000000 1.0
C      1  0.5890450000000  0.4776140000000  0.4434110000000 1.0
C      1  0.5255710000000  0.3928700000000  0.4940940000000 1.0
C      1  0.4084930000000  0.5342810000000  0.5543530000000 1.0
C      1  0.4621200000000  0.5006920000000  0.3957550000000 1.0
C      1  0.4580530000000  0.5191110000000  0.5949670000000 1.0
C      1  0.5077990000000  0.4276540000000  0.4858450000000 1.0
C      1  0.5165420000000  0.5835590000000  0.4416890000000 1.0
C      1  0.4040070000000  0.5564530000000  0.4654170000000 1.0
C      1  0.5851890000000  0.5207820000000  0.4384540000000 1.0
C      1  0.4488310000000  0.6025770000000  0.5441060000000 1.0
C      1  0.4711160000000  0.5592040000000  0.4594890000000 1.0
C      1  0.4096710000000  0.4830080000000  0.5434530000000 1.0
C      1  0.4865430000000  0.5881540000000  0.4517230000000 1.0
C      1  0.4677090000000  0.4989080000000  0.4462770000000 1.0
C      1  0.6001850000000  0.5005670000000  0.4614390000000 1.0
C      1  0.5471580000000  0.5945020000000  0.4516970000000 1.0
C      1  0.4093020000000  0.5124300000000  0.4373720000000 1.0
C      1  0.5685690000000  0.5717850000000  0.4486960000000 1.0
C      1  0.5237380000000  0.4798700000000  0.5148250000000 1.0
C      1  0.4112930000000  0.4503340000000  0.4414220000000 1.0
C      1  0.5171200000000  0.3952160000000  0.4426480000000 1.0
C      1  0.3765160000000  0.4932250000000  0.5073910000000 1.0
C      1  0.5475850000000  0.5073730000000  0.4672620000000 1.0
C      1  0.5324260000000  0.5189990000000  0.4009490000000 1.0
C      1  0.5107950000000  0.4707230000000  0.3935560000000 1.0
C      1  0.4079970000000  0.4557760000000  0.4731440000000 1.0
C      1  0.5288310000000  0.4084930000000  0.4672180000000 1.0
C      1  0.4859520000000  0.5936170000000  0.5761460000000 1.0
C      1  0.5233410000000  0.5456830000000  0.5487770000000 1.0
C      1  0.4245430000000  0.4245660000000  0.4368200000000 1.0
C      1  0.5351300000000  0.5275010000000  0.5931990000000 1.0
C      1  0.5329400000000  0.5148000000000  0.5553600000000 1.0
C      1  0.4354890000000  0.5470540000000  0.4876720000000 1.0
C      1  0.4960810000000  0.5521340000000  0.5653340000000 1.0
C      1  0.5505650000000  0.5934310000000  0.5129670000000 1.0
C      1  0.5657860000000  0.4969900000000  0.5414190000000 1.0
C      1  0.5570650000000  0.5266380000000  0.5350950000000 1.0
C      1  0.4534120000000  0.5493200000000  0.5448480000000 1.0
C      1  0.4735320000000  0.6079850000000  0.5261880000000 1.0
C      1  0.4177160000000  0.4276960000000  0.4904580000000 1.0
C      1  0.4982380000000  0.5626210000000  0.5094140000000 1.0
C      1  0.5568680000000  0.4354770000000  0.4203640000000 1.0
C      1  0.4788150000000  0.5278310000000  0.5695160000000 1.0
C      1  0.5063380000000  0.4829940000000  0.4425180000000 1.0
C      1  0.5193480000000  0.5701170000000  0.4141150000000 1.0
C      1  0.4838270000000  0.4803900000000  0.5157040000000 1.0
C      1  0.5499500000000  0.4573040000000  0.4651720000000 1.0
C      1  0.5846900000000  0.4968400000000  0.5696970000000 1.0
C      1  0.4750120000000  0.4173300000000  0.4574160000000 1.0
C      1  0.4575230000000  0.4969290000000  0.4907400000000 1.0
C      1  0.4824570000000  0.4465440000000  0.4710140000000 1.0
C      1  0.5258550000000  0.4481140000000  0.4418350000000 1.0
C      1  0.4791470000000  0.4310510000000  0.4201610000000 1.0
C      1  0.4037040000000  0.5354690000000  0.4925550000000 1.0
C      1  0.4479230000000  0.4591430000000  0.4542900000000 1.0
C      1  0.5343110000000  0.5844680000000  0.5919390000000 1.0
C      1  0.5338960000000  0.4965100000000  0.5827820000000 1.0
C      1  0.5882000000000  0.4516160000000  0.4549660000000 1.0
C      1  0.4448700000000  0.5447000000000  0.4599880000000 1.0
C      1  0.4166240000000  0.5070930000000  0.5637920000000 1.0
C      1  0.5048980000000  0.5030740000000  0.5014010000000 1.0
C      1  0.5949550000000  0.5511830000000  0.4501450000000 1.0
C      1  0.4364370000000  0.5796530000000  0.4995920000000 1.0
C      1  0.4174160000000  0.4850310000000  0.4882670000000 1.0
C      1  0.4361180000000  0.5113040000000  0.3992480000000 1.0
C      1  0.5708980000000  0.4230770000000  0.5362310000000 1.0
C      1  0.5487090000000  0.3999010000000  0.5082380000000 1.0
C      1  0.4986730000000  0.3858110000000  0.4971730000000 1.0
C      1  0.4344820000000  0.4833450000000  0.4616160000000 1.0
C      1  0.4569220000000  0.4277960000000  0.4971580000000 1.0
C      1  0.5330350000000  0.5373080000000  0.4631340000000 1.0
C      1  0.5401440000000  0.5696650000000  0.5433440000000 1.0
C      1  0.5667900000000  0.4256030000000  0.4950210000000 1.0
C      1  0.5418860000000  0.4191670000000  0.5541210000000 1.0
C      1  0.4960330000000  0.4497260000000  0.5254280000000 1.0
C      1  0.5820100000000  0.5484330000000  0.5393030000000 1.0
C      1  0.5668010000000  0.5258920000000  0.4870990000000 1.0
C      1  0.5638110000000  0.5653160000000  0.5012840000000 1.0
C      1  0.4406790000000  0.5138340000000  0.4507630000000 1.0
C      1  0.5062680000000  0.4297090000000  0.5860390000000 1.0
C      1  0.5450370000000  0.4762930000000  0.5377960000000 1.0
C      1  0.5181140000000  0.4044340000000  0.5688420000000 1.0
C      1  0.4417730000000  0.4851050000000  0.5545520000000 1.0
C      1  0.4755140000000  0.4946010000000  0.4198590000000 1.0
C      1  0.5574800000000  0.5406140000000  0.4421360000000 1.0
C      1  0.4562320000000  0.5894420000000  0.5686480000000 1.0
C      1  0.5795040000000  0.4597720000000  0.5234610000000 1.0
C      1  0.4586060000000  0.4961810000000  0.5301110000000 1.0
C      1  0.5633500000000  0.4524010000000  0.5525140000000 1.0
C      1  0.4041010000000  0.4525220000000  0.5071360000000 1.0
C      1  0.4841060000000  0.6043340000000  0.4761880000000 1.0
C      1  0.5100470000000  0.4951660000000  0.5413500000000 1.0
C      1  0.4919270000000  0.4687520000000  0.4177210000000 1.0
C      1  0.6115860000000  0.5545360000000  0.4861290000000 1.0
C      1  0.5032290000000  0.5310570000000  0.4615500000000 1.0
C      1  0.3864190000000  0.5061130000000  0.4563930000000 1.0
C      1  0.4191990000000  0.4942810000000  0.4147740000000 1.0
C      1  0.4195510000000  0.5446540000000  0.4374340000000 1.0
C      1  0.5914860000000  0.4479420000000  0.4872450000000 1.0
C      1  0.5285920000000  0.4433210000000  0.5957980000000 1.0
C      1  0.4128860000000  0.5820890000000  0.4751520000000 1.0
C      1  0.5219830000000  0.4441280000000  0.5408310000000 1.0
C      1  0.4596420000000  0.4582660000000  0.4239880000000 1.0
C      1  0.5826510000000  0.5668000000000  0.4786090000000 1.0
C      1  0.4818550000000  0.3917850000000  0.4764930000000 1.0
C      1  0.4333100000000  0.4487770000000  0.5241420000000 1.0
C      1  0.4860840000000  0.4219170000000  0.5085780000000 1.0
C      1  0.5005680000000  0.3849020000000  0.5492800000000 1.0
C      1  0.5805130000000  0.5291130000000  0.5673090000000 1.0
C      1  0.4794130000000  0.5668850000000  0.4283040000000 1.0
C      1  0.5257570000000  0.5964990000000  0.5342860000000 1.0
C      1  0.5956050000000  0.4806520000000  0.5432360000000 1.0
C      1  0.3892410000000  0.4735230000000  0.5222770000000 1.0
C      1  0.4267800000000  0.4680170000000  0.4219240000000 1.0
C      1  0.4106330000000  0.5412850000000  0.5253650000000 1.0
C      1  0.4927800000000  0.5365060000000  0.4347910000000 1.0
C      1  0.5245330000000  0.4908280000000  0.3879350000000 1.0
C      1  0.5187690000000  0.6000640000000  0.5673920000000 1.0
C      1  0.4584200000000  0.4015770000000  0.5334410000000 1.0
C      1  0.4349510000000  0.4241860000000  0.5437400000000 1.0
C      1  0.4861650000000  0.5305050000000  0.6104130000000 1.0
C      1  0.4683570000000  0.5261580000000  0.4967600000000 1.0
C      1  0.5977760000000  0.5202890000000  0.5383480000000 1.0
C      1  0.5335570000000  0.4199290000000  0.4136280000000 1.0
C      1  0.4336420000000  0.4105470000000  0.5124740000000 1.0
C      1  0.5576230000000  0.5163440000000  0.4187850000000 1.0
C      1  0.5713890000000  0.4305170000000  0.4447420000000 1.0
C      1  0.4841340000000  0.4989530000000  0.5862650000000 1.0
C      1  0.5104670000000  0.4617790000000  0.4659440000000 1.0
C      1  0.4406990000000  0.4755230000000  0.5933160000000 1.0
C      1  0.4934700000000  0.6136610000000  0.5500340000000 1.0
C      1  0.5265750000000  0.5513460000000  0.4000380000000 1.0
C      1  0.5471540000000  0.5388870000000  0.5083510000000 1.0
C      1  0.4521050000000  0.4205260000000  0.4347620000000 1.0
C      1  0.5923630000000  0.5020310000000  0.5099160000000 1.0
C      1  0.4896860000000  0.5647050000000  0.5387310000000 1.0
C      1  0.4848750000000  0.3987590000000  0.5740870000000 1.0
C      1  0.4271070000000  0.5972280000000  0.5275110000000 1.0
C      1  0.4332340000000  0.5026730000000  0.5907040000000 1.0
C      1  0.5099880000000  0.5403410000000  0.6008920000000 1.0
C      1  0.4691800000000  0.5231180000000  0.5389560000000 1.0
C      1  0.5058080000000  0.5703250000000  0.5905310000000 1.0
C      1  0.4939230000000  0.4709520000000  0.5591300000000 1.0
C      1  0.4394140000000  0.5377560000000  0.4106550000000 1.0
C      1  0.5273150000000  0.4683430000000  0.5646550000000 1.0
C      1  0.4639240000000  0.4543530000000  0.5147210000000 1.0
C      1  0.4862440000000  0.5464340000000  0.4844000000000 1.0
C      1  0.4181600000000  0.5547160000000  0.5728910000000 1.0
C      1  0.5386670000000  0.4850070000000  0.4496600000000 1.0
C      1  0.5223860000000  0.4572100000000  0.4941540000000 1.0
C      1  0.5571260000000  0.4180590000000  0.4657420000000 1.0
C      1  0.4429800000000  0.4368730000000  0.4701030000000 1.0
C      1  0.3947650000000  0.5074670000000  0.4862280000000 1.0
C      1  0.4988780000000  0.5234220000000  0.4052570000000 1.0
C      1  0.4862260000000  0.3921810000000  0.5244940000000 1.0
C      1  0.4759530000000  0.4800510000000  0.4727560000000 1.0
C      1  0.5950340000000  0.5289950000000  0.4760340000000 1.0
C      1  0.6202270000000  0.4968360000000  0.5291950000000 1.0
C      1  0.5696380000000  0.4867120000000  0.4245740000000 1.0
C      1  0.5097150000000  0.6081410000000  0.4891100000000 1.0
C      1  0.5626710000000  0.4944140000000  0.4950250000000 1.0
C      1  0.5592760000000  0.5411090000000  0.5870650000000 1.0
C      1  0.4703420000000  0.5421250000000  0.4094480000000 1.0
C      1  0.4461720000000  0.5625630000000  0.5697330000000 1.0
C      1  0.4307440000000  0.4818030000000  0.5164310000000 1.0
C      1  0.5974030000000  0.4321160000000  0.5168910000000 1.0
C      1  0.5006180000000  0.5017250000000  0.4696530000000 1.0
C      1  0.4812590000000  0.4417330000000  0.5717990000000 1.0
C      1  0.5017260000000  0.5949050000000  0.5157600000000 1.0
C      1  0.5580550000000  0.5699340000000  0.5858110000000 1.0
C      1  0.5507830000000  0.4401020000000  0.5796050000000 1.0
C      1  0.5332550000000  0.5676350000000  0.4669550000000 1.0
C      1  0.5475120000000  0.4658010000000  0.4223960000000 1.0
END
