TITL C-2778424-3986-1054 -0.00167186333814861 125000 -371.82822902934 0 0 67 (C1) n - 1
REM
REM in /home/nfs/bkarasulu/CARBON/AIRSS/Generating-Clusters/REBO/Only-C1/SD-CG/HFTN-CG
REM
REM
REM
REM
REM
REM ./C.cell (11c1c37f851c82e70ff6c80c92926a4b)
REM
REM compiler GCC version 9.2.1 20190827 (Red Hat 9.2.1-1)
REM options -cpp -mtune=generic -march=x86-64 -g -O0 -fpre-include=/usr/include/finclude/math-vector-fortran.h
REM seed 752629881 1567795539 1176717694 -750379076 -1042929578 -1154306075 1600748090 -1517748691 -223353967 1678209814 -2104552476 -1085595849 563768954 -2041351395 2021618479 -1685970880 -1209950521 -219470713 -1784780610 -1719014180 -1493069971 996260682 180360779 1178453361 -1380047538 -1761678980 638384546 -159548710 1766259180 -644896835 -340088981 999941279 1202321770
REM
CELL 1.54180   50.00000   50.00000   50.00000   90.00000   90.00000   90.00000
LATT -1
SFAC C  
C      1  0.4646410000000  0.5333830000000  0.4921600000000 1.0
C      1  0.4819200000000  0.4228500000000  0.5283860000000 1.0
C      1  0.4716620000000  0.4928750000000  0.5431790000000 1.0
C      1  0.4915900000000  0.4355350000000  0.4810440000000 1.0
C      1  0.4405310000000  0.4764540000000  0.5408540000000 1.0
C      1  0.5294130000000  0.5055030000000  0.5384410000000 1.0
C      1  0.5175090000000  0.5679700000000  0.4666270000000 1.0
C      1  0.4684380000000  0.4785140000000  0.4946820000000 1.0
C      1  0.5020880000000  0.5708790000000  0.4971220000000 1.0
C      1  0.4886030000000  0.5060350000000  0.5724090000000 1.0
C      1  0.5246830000000  0.4668680000000  0.5112330000000 1.0
C      1  0.4818560000000  0.5039950000000  0.5126790000000 1.0
C      1  0.4892470000000  0.5270780000000  0.4337870000000 1.0
C      1  0.4417520000000  0.4902730000000  0.5111470000000 1.0
C      1  0.4481920000000  0.5376830000000  0.5338160000000 1.0
C      1  0.4711130000000  0.5648940000000  0.4932870000000 1.0
C      1  0.4709230000000  0.4828110000000  0.4421210000000 1.0
C      1  0.4690800000000  0.4606240000000  0.5302130000000 1.0
C      1  0.5207960000000  0.4309540000000  0.4705550000000 1.0
C      1  0.5747070000000  0.5115400000000  0.5078740000000 1.0
C      1  0.5459190000000  0.4498270000000  0.4765710000000 1.0
C      1  0.4866540000000  0.5528980000000  0.4653900000000 1.0
C      1  0.5111820000000  0.5293490000000  0.4728050000000 1.0
C      1  0.4266310000000  0.4920130000000  0.4695650000000 1.0
C      1  0.5200330000000  0.4898140000000  0.4919730000000 1.0
C      1  0.5118350000000  0.4596060000000  0.4564000000000 1.0
C      1  0.5155100000000  0.4561250000000  0.5593620000000 1.0
C      1  0.4877890000000  0.5099830000000  0.4796640000000 1.0
C      1  0.5342720000000  0.4966980000000  0.4617780000000 1.0
C      1  0.5625010000000  0.5114260000000  0.4630020000000 1.0
C      1  0.5269290000000  0.4050580000000  0.4630700000000 1.0
C      1  0.4385890000000  0.4511730000000  0.5175960000000 1.0
C      1  0.5485210000000  0.5283160000000  0.5439660000000 1.0
C      1  0.5055680000000  0.5488790000000  0.5220330000000 1.0
C      1  0.5548350000000  0.4755080000000  0.4787860000000 1.0
C      1  0.5732970000000  0.5241600000000  0.5333510000000 1.0
C      1  0.4310310000000  0.4669450000000  0.4884000000000 1.0
C      1  0.5330550000000  0.5540300000000  0.5451190000000 1.0
C      1  0.5187980000000  0.5096800000000  0.4389030000000 1.0
C      1  0.5176810000000  0.5436740000000  0.4425540000000 1.0
C      1  0.4574880000000  0.4234480000000  0.5218530000000 1.0
C      1  0.5661810000000  0.4839150000000  0.5049490000000 1.0
C      1  0.5142320000000  0.4860730000000  0.5762900000000 1.0
C      1  0.4877060000000  0.4539580000000  0.5040510000000 1.0
C      1  0.4410510000000  0.5162390000000  0.4750030000000 1.0
C      1  0.5063640000000  0.4462870000000  0.5302830000000 1.0
C      1  0.5040930000000  0.4840130000000  0.5433070000000 1.0
C      1  0.5133240000000  0.5174580000000  0.5108870000000 1.0
C      1  0.4563030000000  0.4656550000000  0.4655720000000 1.0
C      1  0.4656820000000  0.5283540000000  0.4547200000000 1.0
C      1  0.4405260000000  0.5206420000000  0.5093190000000 1.0
C      1  0.5412080000000  0.4785600000000  0.5562200000000 1.0
C      1  0.4931670000000  0.4807730000000  0.4639720000000 1.0
C      1  0.5632740000000  0.5260660000000  0.4862310000000 1.0
C      1  0.5493480000000  0.4733180000000  0.5256310000000 1.0
C      1  0.4571940000000  0.5674510000000  0.5217080000000 1.0
C      1  0.5343890000000  0.5675330000000  0.4966190000000 1.0
C      1  0.5354360000000  0.5364300000000  0.4918980000000 1.0
C      1  0.4800130000000  0.5501240000000  0.5388430000000 1.0
C      1  0.5435580000000  0.5738620000000  0.5230340000000 1.0
C      1  0.5143980000000  0.5536400000000  0.5704290000000 1.0
C      1  0.4611990000000  0.5216270000000  0.5588980000000 1.0
C      1  0.4890460000000  0.5397360000000  0.5677940000000 1.0
C      1  0.4847060000000  0.4979040000000  0.4218100000000 1.0
C      1  0.4696460000000  0.4372190000000  0.4638120000000 1.0
C      1  0.5185600000000  0.4612560000000  0.4283640000000 1.0
C      1  0.5125320000000  0.4865790000000  0.4165990000000 1.0
END
