TITL C-2778433-5640-667 0.00363734514643206 125000 -641.136279501836 0 0 111 (C1) n - 1
REM
REM in /home/nfs/bkarasulu/CARBON/AIRSS/Generating-Clusters/REBO/Only-C1/SD-CG/HFTN-CG
REM
REM
REM
REM
REM
REM ./C.cell (11c1c37f851c82e70ff6c80c92926a4b)
REM
REM compiler GCC version 9.2.1 20190827 (Red Hat 9.2.1-1)
REM options -cpp -mtune=generic -march=x86-64 -g -O0 -fpre-include=/usr/include/finclude/math-vector-fortran.h
REM seed 522804582 1783222704 -13672407 -1104755452 578354912 -1442368800 -488480193 -2064569331 1930544057 674215084 2120630980 867535762 -2061500386 2013446103 796913825 940454854 1997923053 1344434651 -1251814262 -9559814 1090114193 658289304 2138810059 -1031068119 -1861957472 1382983955 -470426887 -65670271 1676134653 -420137011 2122183869 -382099295 1735174218
REM
CELL 1.54180   50.00000   50.00000   50.00000   90.00000   90.00000   90.00000
LATT -1
SFAC C  
C      1  0.5157220000000  0.4729150000000  0.5067030000000 1.0
C      1  0.4201300000000  0.4958840000000  0.4812960000000 1.0
C      1  0.5446220000000  0.4741710000000  0.5821520000000 1.0
C      1  0.5180370000000  0.4994350000000  0.4894300000000 1.0
C      1  0.5019420000000  0.4330990000000  0.5342390000000 1.0
C      1  0.4609920000000  0.4634430000000  0.5139180000000 1.0
C      1  0.5300470000000  0.4631840000000  0.4781770000000 1.0
C      1  0.4427770000000  0.4438330000000  0.4927200000000 1.0
C      1  0.5181550000000  0.5267560000000  0.5475950000000 1.0
C      1  0.4195250000000  0.5251350000000  0.4378090000000 1.0
C      1  0.5202920000000  0.5812780000000  0.5519470000000 1.0
C      1  0.4722690000000  0.4098630000000  0.5014410000000 1.0
C      1  0.4988030000000  0.5964980000000  0.5334570000000 1.0
C      1  0.5598910000000  0.5110290000000  0.4831910000000 1.0
C      1  0.5200730000000  0.4121760000000  0.5222090000000 1.0
C      1  0.4436650000000  0.5677540000000  0.5214770000000 1.0
C      1  0.5675590000000  0.5192440000000  0.5617620000000 1.0
C      1  0.4435900000000  0.5133410000000  0.4315680000000 1.0
C      1  0.4790860000000  0.5303180000000  0.4744010000000 1.0
C      1  0.5146470000000  0.4100970000000  0.4738870000000 1.0
C      1  0.4547970000000  0.4948570000000  0.5254880000000 1.0
C      1  0.4489930000000  0.5137000000000  0.4780710000000 1.0
C      1  0.5653370000000  0.5445620000000  0.4626220000000 1.0
C      1  0.4882200000000  0.4772050000000  0.5521910000000 1.0
C      1  0.4897090000000  0.5549690000000  0.4941290000000 1.0
C      1  0.5524670000000  0.4223940000000  0.5185340000000 1.0
C      1  0.5177090000000  0.5519700000000  0.4315260000000 1.0
C      1  0.5201240000000  0.5416630000000  0.5846460000000 1.0
C      1  0.5831680000000  0.4838560000000  0.5008470000000 1.0
C      1  0.4436300000000  0.4853800000000  0.4317610000000 1.0
C      1  0.4855170000000  0.4529940000000  0.4829080000000 1.0
C      1  0.5021530000000  0.4038550000000  0.4987100000000 1.0
C      1  0.4638620000000  0.4881380000000  0.5785080000000 1.0
C      1  0.5280250000000  0.5784650000000  0.4501910000000 1.0
C      1  0.5443890000000  0.5307100000000  0.5262900000000 1.0
C      1  0.4315060000000  0.5433020000000  0.5167480000000 1.0
C      1  0.4958950000000  0.5134070000000  0.5061700000000 1.0
C      1  0.4799520000000  0.5665090000000  0.5728110000000 1.0
C      1  0.5559440000000  0.4658940000000  0.5517850000000 1.0
C      1  0.4701110000000  0.4799650000000  0.4754300000000 1.0
C      1  0.5540570000000  0.4691140000000  0.4460290000000 1.0
C      1  0.4648040000000  0.4699570000000  0.4192290000000 1.0
C      1  0.4397680000000  0.5226490000000  0.5381070000000 1.0
C      1  0.5114480000000  0.5039820000000  0.4234750000000 1.0
C      1  0.5527010000000  0.5747240000000  0.4630180000000 1.0
C      1  0.4694900000000  0.5011940000000  0.5000210000000 1.0
C      1  0.4895080000000  0.5365940000000  0.5594850000000 1.0
C      1  0.5162960000000  0.5033740000000  0.4572910000000 1.0
C      1  0.5053730000000  0.5403560000000  0.5196550000000 1.0
C      1  0.4926090000000  0.4549440000000  0.5145520000000 1.0
C      1  0.5125210000000  0.5371530000000  0.4787000000000 1.0
C      1  0.5172940000000  0.4932430000000  0.5796930000000 1.0
C      1  0.5697110000000  0.4916060000000  0.5687850000000 1.0
C      1  0.4825150000000  0.4268440000000  0.5524470000000 1.0
C      1  0.5320710000000  0.4305550000000  0.4714750000000 1.0
C      1  0.4566040000000  0.5716920000000  0.5512480000000 1.0
C      1  0.4118680000000  0.5232050000000  0.4668510000000 1.0
C      1  0.4694320000000  0.5214810000000  0.4445880000000 1.0
C      1  0.4859300000000  0.4953890000000  0.4527780000000 1.0
C      1  0.4194220000000  0.4622350000000  0.4762200000000 1.0
C      1  0.5030050000000  0.4660410000000  0.4577740000000 1.0
C      1  0.5924220000000  0.4694460000000  0.4774510000000 1.0
C      1  0.5719570000000  0.4538300000000  0.4667570000000 1.0
C      1  0.5379030000000  0.4769880000000  0.5298570000000 1.0
C      1  0.4134920000000  0.4825820000000  0.5100440000000 1.0
C      1  0.4338720000000  0.4920720000000  0.5515700000000 1.0
C      1  0.4404840000000  0.4410430000000  0.4587770000000 1.0
C      1  0.4278440000000  0.4657690000000  0.5222280000000 1.0
C      1  0.5455760000000  0.3901500000000  0.5269020000000 1.0
C      1  0.5444490000000  0.5325480000000  0.5700520000000 1.0
C      1  0.4718200000000  0.5172060000000  0.5807480000000 1.0
C      1  0.5272710000000  0.4557310000000  0.4390060000000 1.0
C      1  0.5149370000000  0.4930970000000  0.5462870000000 1.0
C      1  0.5342290000000  0.5396300000000  0.4569580000000 1.0
C      1  0.4516900000000  0.4248690000000  0.5176510000000 1.0
C      1  0.4873890000000  0.5218300000000  0.4094270000000 1.0
C      1  0.4225100000000  0.5405020000000  0.4911790000000 1.0
C      1  0.4712400000000  0.5943040000000  0.5303710000000 1.0
C      1  0.4598000000000  0.5858490000000  0.5014250000000 1.0
C      1  0.5744220000000  0.5540690000000  0.5140610000000 1.0
C      1  0.5454770000000  0.4963010000000  0.4605370000000 1.0
C      1  0.4568610000000  0.4366050000000  0.5436590000000 1.0
C      1  0.4558280000000  0.4662750000000  0.5533720000000 1.0
C      1  0.4450770000000  0.4738550000000  0.4593610000000 1.0
C      1  0.5098550000000  0.5672450000000  0.5748660000000 1.0
C      1  0.4618660000000  0.4438740000000  0.4321960000000 1.0
C      1  0.4851700000000  0.4879030000000  0.4106430000000 1.0
C      1  0.5548050000000  0.4703260000000  0.5009780000000 1.0
C      1  0.4664230000000  0.5817410000000  0.4737770000000 1.0
C      1  0.5040900000000  0.5180990000000  0.5912310000000 1.0
C      1  0.4850210000000  0.5479140000000  0.4312860000000 1.0
C      1  0.4559360000000  0.5383050000000  0.5588730000000 1.0
C      1  0.5022290000000  0.5843790000000  0.4912430000000 1.0
C      1  0.4427740000000  0.5436550000000  0.4643390000000 1.0
C      1  0.5239490000000  0.4378400000000  0.4199560000000 1.0
C      1  0.5090780000000  0.5921820000000  0.4662740000000 1.0
C      1  0.5888870000000  0.5039830000000  0.5173330000000 1.0
C      1  0.4734520000000  0.4211880000000  0.4480510000000 1.0
C      1  0.5371680000000  0.5249100000000  0.4987030000000 1.0
C      1  0.5616180000000  0.4999300000000  0.4322190000000 1.0
C      1  0.4882200000000  0.4660140000000  0.5832400000000 1.0
C      1  0.5153980000000  0.4631150000000  0.5948890000000 1.0
C      1  0.5645760000000  0.4378900000000  0.5429870000000 1.0
C      1  0.5789600000000  0.5173010000000  0.4557240000000 1.0
C      1  0.5758360000000  0.5271960000000  0.5327050000000 1.0
C      1  0.5154900000000  0.5712700000000  0.5197170000000 1.0
C      1  0.4772540000000  0.4250160000000  0.4756800000000 1.0
C      1  0.5363320000000  0.5226810000000  0.4287170000000 1.0
C      1  0.5565840000000  0.4373370000000  0.4922870000000 1.0
C      1  0.4638590000000  0.5612950000000  0.4545560000000 1.0
C      1  0.5688660000000  0.5632770000000  0.4896880000000 1.0
END
