TITL C-2778423-5760-347 -0.00309250849888469 125000 -781.903929520154 0 0 137 (C1) n - 1
REM
REM in /home/nfs/bkarasulu/CARBON/AIRSS/Generating-Clusters/REBO/Only-C1/SD-CG/HFTN-CG
REM
REM
REM
REM
REM
REM ./C.cell (11c1c37f851c82e70ff6c80c92926a4b)
REM
REM compiler GCC version 9.2.1 20190827 (Red Hat 9.2.1-1)
REM options -cpp -mtune=generic -march=x86-64 -g -O0 -fpre-include=/usr/include/finclude/math-vector-fortran.h
REM seed 521473377 -182280890 -1798520422 1346143669 -1637824220 2069587576 -1308378099 372759038 185240287 170761556 303590354 1476860351 871583143 -1482943518 -1607018782 -1572949251 -200004440 885956574 -1008812505 -65521158 -1467212000 1232470047 -1566424867 223146420 265250446 758223408 -1631295575 -768351434 1944653235 -547881327 955131018 -361381799 -120753802
REM
CELL 1.54180   50.00000   50.00000   50.00000   90.00000   90.00000   90.00000
LATT -1
SFAC C  
C      1  0.5712660000000  0.4697560000000  0.5528670000000 1.0
C      1  0.4419350000000  0.5809880000000  0.4902490000000 1.0
C      1  0.5489050000000  0.5755450000000  0.4638960000000 1.0
C      1  0.4490840000000  0.4778890000000  0.5853440000000 1.0
C      1  0.5292440000000  0.5375480000000  0.5783790000000 1.0
C      1  0.5052090000000  0.4251800000000  0.4392220000000 1.0
C      1  0.4811980000000  0.5213530000000  0.4450300000000 1.0
C      1  0.5253400000000  0.4874310000000  0.5832820000000 1.0
C      1  0.5044280000000  0.4668910000000  0.4717800000000 1.0
C      1  0.4879190000000  0.4853780000000  0.3963970000000 1.0
C      1  0.4712010000000  0.5615540000000  0.4577320000000 1.0
C      1  0.5250360000000  0.5710480000000  0.5575080000000 1.0
C      1  0.4614040000000  0.5190350000000  0.5582110000000 1.0
C      1  0.5626290000000  0.5167970000000  0.5547680000000 1.0
C      1  0.5007510000000  0.5014850000000  0.4305900000000 1.0
C      1  0.4581200000000  0.5065040000000  0.4561120000000 1.0
C      1  0.5536230000000  0.4541760000000  0.4877240000000 1.0
C      1  0.4660620000000  0.4508090000000  0.4374310000000 1.0
C      1  0.5775680000000  0.5105450000000  0.5849300000000 1.0
C      1  0.4865120000000  0.4124380000000  0.4561880000000 1.0
C      1  0.4466730000000  0.4064600000000  0.4817530000000 1.0
C      1  0.4973840000000  0.5888030000000  0.4766180000000 1.0
C      1  0.5027780000000  0.4572850000000  0.5400110000000 1.0
C      1  0.4822100000000  0.5573040000000  0.5896550000000 1.0
C      1  0.4406520000000  0.5009260000000  0.5085800000000 1.0
C      1  0.4306690000000  0.4549540000000  0.4554720000000 1.0
C      1  0.5814290000000  0.4598700000000  0.4980370000000 1.0
C      1  0.5091600000000  0.5651320000000  0.5833340000000 1.0
C      1  0.5317370000000  0.4304540000000  0.4479300000000 1.0
C      1  0.4913230000000  0.4864840000000  0.5440960000000 1.0
C      1  0.4309460000000  0.4987960000000  0.4282650000000 1.0
C      1  0.4617050000000  0.4837500000000  0.5291880000000 1.0
C      1  0.5567920000000  0.4904640000000  0.4114490000000 1.0
C      1  0.5135310000000  0.5138040000000  0.4080160000000 1.0
C      1  0.4994930000000  0.5180930000000  0.4980730000000 1.0
C      1  0.5897540000000  0.5032260000000  0.4556160000000 1.0
C      1  0.4179020000000  0.5395110000000  0.4949180000000 1.0
C      1  0.5439040000000  0.5140060000000  0.5897790000000 1.0
C      1  0.4861640000000  0.5756820000000  0.4303460000000 1.0
C      1  0.5073460000000  0.4394740000000  0.4918650000000 1.0
C      1  0.5627170000000  0.4324830000000  0.5200520000000 1.0
C      1  0.5209990000000  0.4197720000000  0.5384960000000 1.0
C      1  0.4988270000000  0.5320150000000  0.5637100000000 1.0
C      1  0.5791370000000  0.5440650000000  0.5465740000000 1.0
C      1  0.5096200000000  0.5695520000000  0.4513430000000 1.0
C      1  0.4508910000000  0.4515110000000  0.5298320000000 1.0
C      1  0.4532020000000  0.5478780000000  0.5745060000000 1.0
C      1  0.5106350000000  0.4675240000000  0.5999870000000 1.0
C      1  0.4246760000000  0.5327960000000  0.5631490000000 1.0
C      1  0.5923000000000  0.5179550000000  0.5285160000000 1.0
C      1  0.4940210000000  0.4187390000000  0.5457710000000 1.0
C      1  0.5090950000000  0.5029390000000  0.5596950000000 1.0
C      1  0.4494800000000  0.5234720000000  0.4208080000000 1.0
C      1  0.4873180000000  0.5504310000000  0.5416620000000 1.0
C      1  0.5715350000000  0.5374280000000  0.5091480000000 1.0
C      1  0.4839450000000  0.5520920000000  0.4843310000000 1.0
C      1  0.4915730000000  0.4134510000000  0.4841170000000 1.0
C      1  0.5377010000000  0.5558280000000  0.4392390000000 1.0
C      1  0.5434190000000  0.5173780000000  0.4090030000000 1.0
C      1  0.4348660000000  0.4496800000000  0.5040060000000 1.0
C      1  0.5672620000000  0.4632710000000  0.4483070000000 1.0
C      1  0.4431940000000  0.5732420000000  0.5545550000000 1.0
C      1  0.5643080000000  0.5639770000000  0.5279280000000 1.0
C      1  0.4336450000000  0.4999870000000  0.5642690000000 1.0
C      1  0.4558130000000  0.4902860000000  0.4845000000000 1.0
C      1  0.4880810000000  0.5690450000000  0.5141280000000 1.0
C      1  0.5118150000000  0.5354290000000  0.4485100000000 1.0
C      1  0.4097650000000  0.5142980000000  0.5090760000000 1.0
C      1  0.4674320000000  0.5271370000000  0.4947400000000 1.0
C      1  0.5445580000000  0.4499750000000  0.4325800000000 1.0
C      1  0.5136220000000  0.4795780000000  0.4440670000000 1.0
C      1  0.5785860000000  0.4885490000000  0.4330980000000 1.0
C      1  0.5302060000000  0.5899070000000  0.4787740000000 1.0
C      1  0.5595900000000  0.4738680000000  0.5231180000000 1.0
C      1  0.5950550000000  0.4879900000000  0.4814130000000 1.0
C      1  0.4680460000000  0.4078160000000  0.4996750000000 1.0
C      1  0.6093400000000  0.4735560000000  0.5088580000000 1.0
C      1  0.4144290000000  0.5472270000000  0.5339580000000 1.0
C      1  0.4420710000000  0.5307620000000  0.5253200000000 1.0
C      1  0.5326110000000  0.5411270000000  0.5446880000000 1.0
C      1  0.4234510000000  0.5047580000000  0.4582590000000 1.0
C      1  0.4776810000000  0.4662310000000  0.4921300000000 1.0
C      1  0.5355230000000  0.4681030000000  0.4123110000000 1.0
C      1  0.5332140000000  0.4260350000000  0.5073870000000 1.0
C      1  0.5852480000000  0.4466560000000  0.4605840000000 1.0
C      1  0.4690480000000  0.5040020000000  0.4024280000000 1.0
C      1  0.4879840000000  0.4451390000000  0.5164730000000 1.0
C      1  0.4228710000000  0.5665430000000  0.5073870000000 1.0
C      1  0.5060990000000  0.4659040000000  0.4073080000000 1.0
C      1  0.4929890000000  0.4460620000000  0.4237730000000 1.0
C      1  0.4170260000000  0.4782220000000  0.4734570000000 1.0
C      1  0.5086990000000  0.6091180000000  0.5149260000000 1.0
C      1  0.5416210000000  0.4291910000000  0.4745200000000 1.0
C      1  0.4712690000000  0.5470100000000  0.4268300000000 1.0
C      1  0.4317490000000  0.4689820000000  0.5508050000000 1.0
C      1  0.5485810000000  0.5055930000000  0.5016480000000 1.0
C      1  0.4653570000000  0.5021720000000  0.5882080000000 1.0
C      1  0.4339920000000  0.4714890000000  0.4257200000000 1.0
C      1  0.4576920000000  0.5557940000000  0.5357420000000 1.0
C      1  0.5909140000000  0.4974300000000  0.5559670000000 1.0
C      1  0.6164900000000  0.4806250000000  0.5332450000000 1.0
C      1  0.5577210000000  0.4842650000000  0.5773960000000 1.0
C      1  0.5545220000000  0.5421350000000  0.4642340000000 1.0
C      1  0.4410640000000  0.5339170000000  0.4789560000000 1.0
C      1  0.5780280000000  0.4982460000000  0.5080040000000 1.0
C      1  0.5386100000000  0.5016830000000  0.5469640000000 1.0
C      1  0.5388570000000  0.4770630000000  0.4889290000000 1.0
C      1  0.4719650000000  0.5165660000000  0.5269480000000 1.0
C      1  0.5158690000000  0.5480990000000  0.4953420000000 1.0
C      1  0.5810610000000  0.5287990000000  0.4586730000000 1.0
C      1  0.4980680000000  0.4505090000000  0.6142630000000 1.0
C      1  0.4114470000000  0.4841520000000  0.5300160000000 1.0
C      1  0.4651710000000  0.4748760000000  0.4551360000000 1.0
C      1  0.4044440000000  0.5153310000000  0.5417430000000 1.0
C      1  0.4530780000000  0.4457620000000  0.4791540000000 1.0
C      1  0.5402410000000  0.5779320000000  0.5316940000000 1.0
C      1  0.4674090000000  0.4230480000000  0.5265090000000 1.0
C      1  0.4386880000000  0.5404270000000  0.4484890000000 1.0
C      1  0.5169260000000  0.4983450000000  0.4787200000000 1.0
C      1  0.4805590000000  0.4426000000000  0.5613280000000 1.0
C      1  0.5263700000000  0.4780220000000  0.5268070000000 1.0
C      1  0.5420370000000  0.4865650000000  0.4484230000000 1.0
C      1  0.5402670000000  0.4280260000000  0.5585090000000 1.0
C      1  0.4557880000000  0.4227440000000  0.4539830000000 1.0
C      1  0.4157200000000  0.4707060000000  0.5010600000000 1.0
C      1  0.4972560000000  0.4874840000000  0.5114330000000 1.0
C      1  0.4564870000000  0.4535760000000  0.5692880000000 1.0
C      1  0.5347990000000  0.5274440000000  0.4818090000000 1.0
C      1  0.5630700000000  0.4403540000000  0.5466470000000 1.0
C      1  0.4816250000000  0.5259250000000  0.5917550000000 1.0
C      1  0.4040670000000  0.5245910000000  0.4606580000000 1.0
C      1  0.4705080000000  0.5883160000000  0.4940630000000 1.0
C      1  0.5376290000000  0.5153420000000  0.4398820000000 1.0
C      1  0.4413270000000  0.5703160000000  0.4627440000000 1.0
C      1  0.5416510000000  0.5317770000000  0.5209410000000 1.0
C      1  0.4360830000000  0.4389960000000  0.4256380000000 1.0
C      1  0.5197130000000  0.5801610000000  0.5086010000000 1.0
END
