TITL C-2778429-3646-207 -0.00297415157523364 125000 -1098.69561075201 0 0 185 (C1) n - 1
REM
REM in /home/nfs/bkarasulu/CARBON/AIRSS/Generating-Clusters/REBO/Only-C1/SD-CG/HFTN-CG
REM
REM
REM
REM
REM
REM ./C.cell (11c1c37f851c82e70ff6c80c92926a4b)
REM
REM compiler GCC version 9.2.1 20190827 (Red Hat 9.2.1-1)
REM options -cpp -mtune=generic -march=x86-64 -g -O0 -fpre-include=/usr/include/finclude/math-vector-fortran.h
REM seed 1938109796 1081586436 -1271856173 823093672 -868333878 -1471200756 -864515831 1597861509 -1373435526 1623516206 1516180176 1363447103 -1875887584 475811939 -1513096103 -1516850003 -624072135 965999018 -1622370050 -1822426755 1522508847 -115024287 -525689840 -30727889 147361753 1294216467 199012715 -1485469084 -828508908 836789089 202226232 963548387 -720458681
REM
CELL 1.54180   50.00000   50.00000   50.00000   90.00000   90.00000   90.00000
LATT -1
SFAC C  
C      1  0.5185270000000  0.5007610000000  0.4971110000000 1.0
C      1  0.6019420000000  0.5211410000000  0.5336000000000 1.0
C      1  0.5346720000000  0.5433600000000  0.4814600000000 1.0
C      1  0.4241090000000  0.5655510000000  0.5501370000000 1.0
C      1  0.5581100000000  0.4576610000000  0.5705200000000 1.0
C      1  0.5262030000000  0.4123930000000  0.4421030000000 1.0
C      1  0.5108130000000  0.4531720000000  0.4634240000000 1.0
C      1  0.5051470000000  0.4831160000000  0.4017460000000 1.0
C      1  0.5135580000000  0.5065430000000  0.5269150000000 1.0
C      1  0.5092770000000  0.5343770000000  0.5411440000000 1.0
C      1  0.5817650000000  0.4326590000000  0.4762460000000 1.0
C      1  0.6085270000000  0.5081370000000  0.5097110000000 1.0
C      1  0.4205770000000  0.4413570000000  0.5578100000000 1.0
C      1  0.4937670000000  0.4031650000000  0.4374440000000 1.0
C      1  0.4865620000000  0.4394510000000  0.5322870000000 1.0
C      1  0.5519560000000  0.5124740000000  0.5183210000000 1.0
C      1  0.4652730000000  0.5509700000000  0.5806130000000 1.0
C      1  0.4546060000000  0.5906880000000  0.4786400000000 1.0
C      1  0.4448470000000  0.4151370000000  0.5161830000000 1.0
C      1  0.5716980000000  0.5330990000000  0.5327980000000 1.0
C      1  0.4864420000000  0.3932840000000  0.4959120000000 1.0
C      1  0.5146360000000  0.5070470000000  0.4645650000000 1.0
C      1  0.5026050000000  0.5251230000000  0.5710310000000 1.0
C      1  0.5298230000000  0.5021400000000  0.3879840000000 1.0
C      1  0.5496750000000  0.4787220000000  0.5219510000000 1.0
C      1  0.5659000000000  0.5902990000000  0.5255690000000 1.0
C      1  0.4696490000000  0.4426120000000  0.4789360000000 1.0
C      1  0.4295960000000  0.4802780000000  0.5591500000000 1.0
C      1  0.4132950000000  0.5102940000000  0.4419730000000 1.0
C      1  0.4953840000000  0.5403670000000  0.4750910000000 1.0
C      1  0.4233430000000  0.4508210000000  0.4483430000000 1.0
C      1  0.4947690000000  0.4747310000000  0.6118590000000 1.0
C      1  0.4771830000000  0.5021130000000  0.3958030000000 1.0
C      1  0.4837760000000  0.5805820000000  0.4410780000000 1.0
C      1  0.4879940000000  0.4148080000000  0.5775470000000 1.0
C      1  0.4438820000000  0.5109310000000  0.4858640000000 1.0
C      1  0.4260870000000  0.5311010000000  0.5225580000000 1.0
C      1  0.5642130000000  0.5299600000000  0.4741910000000 1.0
C      1  0.5311250000000  0.5903850000000  0.4629600000000 1.0
C      1  0.4376900000000  0.5491920000000  0.5692740000000 1.0
C      1  0.5299580000000  0.4798340000000  0.4211320000000 1.0
C      1  0.4625690000000  0.4940250000000  0.5261370000000 1.0
C      1  0.4310680000000  0.5848750000000  0.5030360000000 1.0
C      1  0.5054320000000  0.4533080000000  0.5539880000000 1.0
C      1  0.4068120000000  0.5053660000000  0.5542950000000 1.0
C      1  0.4275420000000  0.5336570000000  0.4227300000000 1.0
C      1  0.6070280000000  0.4780200000000  0.5122780000000 1.0
C      1  0.4753730000000  0.5137570000000  0.4335730000000 1.0
C      1  0.4038210000000  0.4790090000000  0.4524130000000 1.0
C      1  0.5953070000000  0.4803170000000  0.4280490000000 1.0
C      1  0.5571390000000  0.4802620000000  0.4668910000000 1.0
C      1  0.5030260000000  0.4375090000000  0.5810470000000 1.0
C      1  0.5326770000000  0.5170630000000  0.6146200000000 1.0
C      1  0.5593770000000  0.4237390000000  0.5494910000000 1.0
C      1  0.4387070000000  0.4377510000000  0.4745430000000 1.0
C      1  0.5824390000000  0.5533710000000  0.4877590000000 1.0
C      1  0.5869000000000  0.5307450000000  0.4522610000000 1.0
C      1  0.4963230000000  0.5954250000000  0.5459130000000 1.0
C      1  0.5071820000000  0.4710710000000  0.4914050000000 1.0
C      1  0.4652230000000  0.4624980000000  0.5247690000000 1.0
C      1  0.5495020000000  0.5046100000000  0.4855550000000 1.0
C      1  0.4049980000000  0.5159220000000  0.4731940000000 1.0
C      1  0.4485870000000  0.4926450000000  0.4357610000000 1.0
C      1  0.4474850000000  0.5070610000000  0.5825130000000 1.0
C      1  0.4023640000000  0.4871150000000  0.5260640000000 1.0
C      1  0.5156850000000  0.4320510000000  0.4207040000000 1.0
C      1  0.5272210000000  0.4564020000000  0.5113320000000 1.0
C      1  0.5286140000000  0.4271580000000  0.5245400000000 1.0
C      1  0.4451700000000  0.4822440000000  0.5997990000000 1.0
C      1  0.4360150000000  0.4174060000000  0.5482440000000 1.0
C      1  0.4913400000000  0.5357600000000  0.5026830000000 1.0
C      1  0.4576690000000  0.4401500000000  0.5725820000000 1.0
C      1  0.4489440000000  0.5390590000000  0.4990110000000 1.0
C      1  0.5092650000000  0.5526590000000  0.4289170000000 1.0
C      1  0.4366200000000  0.5042000000000  0.5372820000000 1.0
C      1  0.5965750000000  0.4913860000000  0.5593340000000 1.0
C      1  0.4846320000000  0.6013400000000  0.5188140000000 1.0
C      1  0.3987420000000  0.5323680000000  0.5090160000000 1.0
C      1  0.4035960000000  0.5465600000000  0.4828780000000 1.0
C      1  0.5206360000000  0.4895360000000  0.5467800000000 1.0
C      1  0.4705870000000  0.5268950000000  0.5473300000000 1.0
C      1  0.5855560000000  0.4722320000000  0.4790500000000 1.0
C      1  0.5701730000000  0.4593640000000  0.5068820000000 1.0
C      1  0.3826220000000  0.5071300000000  0.5075990000000 1.0
C      1  0.5710860000000  0.5322030000000  0.5863710000000 1.0
C      1  0.5364230000000  0.5979000000000  0.5292910000000 1.0
C      1  0.4265370000000  0.5233950000000  0.5730770000000 1.0
C      1  0.5737450000000  0.4524360000000  0.5405590000000 1.0
C      1  0.5014570000000  0.3943260000000  0.4677970000000 1.0
C      1  0.4795160000000  0.5409810000000  0.4049240000000 1.0
C      1  0.5172800000000  0.5487930000000  0.4006840000000 1.0
C      1  0.4251320000000  0.4596580000000  0.5859130000000 1.0
C      1  0.4478320000000  0.4270730000000  0.4446960000000 1.0
C      1  0.5750100000000  0.4604320000000  0.4240390000000 1.0
C      1  0.4597660000000  0.5578420000000  0.4786220000000 1.0
C      1  0.5112550000000  0.4962400000000  0.5753220000000 1.0
C      1  0.4592130000000  0.4053690000000  0.4945140000000 1.0
C      1  0.5143490000000  0.5376210000000  0.6063300000000 1.0
C      1  0.5311250000000  0.4600680000000  0.4444770000000 1.0
C      1  0.5105650000000  0.4083060000000  0.5453210000000 1.0
C      1  0.6026970000000  0.4861450000000  0.4557480000000 1.0
C      1  0.5635880000000  0.4831060000000  0.5925050000000 1.0
C      1  0.4672790000000  0.4729680000000  0.4063900000000 1.0
C      1  0.4829120000000  0.5271730000000  0.5975700000000 1.0
C      1  0.5493900000000  0.5252310000000  0.4018760000000 1.0
C      1  0.5723250000000  0.5586430000000  0.5181550000000 1.0
C      1  0.4866350000000  0.4782750000000  0.5641940000000 1.0
C      1  0.4303670000000  0.5859500000000  0.5309660000000 1.0
C      1  0.4902290000000  0.5720880000000  0.4717000000000 1.0
C      1  0.4991300000000  0.5308520000000  0.4458160000000 1.0
C      1  0.4529780000000  0.5222010000000  0.4093670000000 1.0
C      1  0.5420600000000  0.4589000000000  0.6005850000000 1.0
C      1  0.5231970000000  0.4350120000000  0.4860970000000 1.0
C      1  0.5267210000000  0.5556210000000  0.5872110000000 1.0
C      1  0.5267160000000  0.6137620000000  0.5076960000000 1.0
C      1  0.4933710000000  0.4321690000000  0.5012020000000 1.0
C      1  0.4955620000000  0.5630050000000  0.5174240000000 1.0
C      1  0.5593600000000  0.4115320000000  0.5199800000000 1.0
C      1  0.3847250000000  0.4891600000000  0.4787630000000 1.0
C      1  0.5136460000000  0.6072120000000  0.4823780000000 1.0
C      1  0.4338910000000  0.5764490000000  0.4545460000000 1.0
C      1  0.4582210000000  0.4668610000000  0.5653020000000 1.0
C      1  0.4762770000000  0.4677370000000  0.4966560000000 1.0
C      1  0.4191370000000  0.4962590000000  0.4974680000000 1.0
C      1  0.4696520000000  0.5573610000000  0.4296700000000 1.0
C      1  0.5339570000000  0.3998040000000  0.5026200000000 1.0
C      1  0.4782140000000  0.5133310000000  0.5095990000000 1.0
C      1  0.6037870000000  0.5264450000000  0.4880870000000 1.0
C      1  0.4848240000000  0.4966370000000  0.4599890000000 1.0
C      1  0.5613250000000  0.5124110000000  0.6034130000000 1.0
C      1  0.5435000000000  0.5522710000000  0.4490270000000 1.0
C      1  0.4048190000000  0.4663520000000  0.4920450000000 1.0
C      1  0.5968180000000  0.4726880000000  0.5391940000000 1.0
C      1  0.5847460000000  0.5223310000000  0.5623110000000 1.0
C      1  0.4263280000000  0.5604340000000  0.4315300000000 1.0
C      1  0.5054720000000  0.3957580000000  0.5169820000000 1.0
C      1  0.4829290000000  0.6058250000000  0.4900660000000 1.0
C      1  0.4565470000000  0.5437550000000  0.4513620000000 1.0
C      1  0.5037030000000  0.5219570000000  0.3900490000000 1.0
C      1  0.5356630000000  0.4163680000000  0.5623200000000 1.0
C      1  0.6058380000000  0.4503850000000  0.4924560000000 1.0
C      1  0.4224310000000  0.4449370000000  0.4974060000000 1.0
C      1  0.5608820000000  0.4509770000000  0.4499870000000 1.0
C      1  0.4250160000000  0.4750880000000  0.4272310000000 1.0
C      1  0.5362390000000  0.4627680000000  0.5490980000000 1.0
C      1  0.5244620000000  0.5695970000000  0.5321800000000 1.0
C      1  0.4686930000000  0.5056210000000  0.5639050000000 1.0
C      1  0.5556210000000  0.4199780000000  0.4578210000000 1.0
C      1  0.5384940000000  0.4990330000000  0.4475190000000 1.0
C      1  0.5511990000000  0.5235930000000  0.4358370000000 1.0
C      1  0.5115390000000  0.4536270000000  0.6026430000000 1.0
C      1  0.4395400000000  0.4681940000000  0.4029880000000 1.0
C      1  0.4692720000000  0.4066070000000  0.4618430000000 1.0
C      1  0.5820200000000  0.5259810000000  0.4243880000000 1.0
C      1  0.5114000000000  0.5619510000000  0.5616190000000 1.0
C      1  0.4701480000000  0.4944590000000  0.4853960000000 1.0
C      1  0.4198580000000  0.5694790000000  0.4801070000000 1.0
C      1  0.4644230000000  0.6013780000000  0.5688920000000 1.0
C      1  0.5637700000000  0.4972470000000  0.3889280000000 1.0
C      1  0.5494240000000  0.5754720000000  0.4992420000000 1.0
C      1  0.4393830000000  0.4479090000000  0.5231820000000 1.0
C      1  0.5597010000000  0.5721140000000  0.4694620000000 1.0
C      1  0.5460030000000  0.5564590000000  0.4151410000000 1.0
C      1  0.6086380000000  0.5135270000000  0.4618380000000 1.0
C      1  0.5288970000000  0.4901460000000  0.5980570000000 1.0
C      1  0.4937740000000  0.4521760000000  0.4114400000000 1.0
C      1  0.5889410000000  0.5027750000000  0.4099450000000 1.0
C      1  0.5552660000000  0.4714730000000  0.4055990000000 1.0
C      1  0.4547710000000  0.5470030000000  0.5299600000000 1.0
C      1  0.5165200000000  0.5689430000000  0.4930830000000 1.0
C      1  0.4757320000000  0.4743520000000  0.4393040000000 1.0
C      1  0.4096250000000  0.4581640000000  0.5336160000000 1.0
C      1  0.5332170000000  0.3990340000000  0.4727070000000 1.0
C      1  0.4768940000000  0.4277310000000  0.4287640000000 1.0
C      1  0.5154610000000  0.5797750000000  0.4416740000000 1.0
C      1  0.4831350000000  0.4486760000000  0.4514960000000 1.0
C      1  0.4696060000000  0.4173330000000  0.5508570000000 1.0
C      1  0.4425460000000  0.5175560000000  0.4559960000000 1.0
C      1  0.4681920000000  0.5736230000000  0.5280780000000 1.0
C      1  0.5552820000000  0.4328190000000  0.4954980000000 1.0
C      1  0.4535670000000  0.6005670000000  0.5432950000000 1.0
C      1  0.4836420000000  0.5747930000000  0.5703160000000 1.0
C      1  0.4755080000000  0.4954570000000  0.6079330000000 1.0
C      1  0.5551000000000  0.5555300000000  0.5857300000000 1.0
C      1  0.5318430000000  0.5401580000000  0.5156950000000 1.0
END
