TITL C-2778433-5640-1410 3.42566702207833e-08 125000 -53.3358262993764 0 0 10 (C2v) n - 1
REM
REM in /home/nfs/bkarasulu/CARBON/AIRSS/Generating-Clusters/REBO/Only-C1/SD-CG/HFTN-CG
REM
REM
REM
REM
REM
REM ./C.cell (11c1c37f851c82e70ff6c80c92926a4b)
REM
REM compiler GCC version 9.2.1 20190827 (Red Hat 9.2.1-1)
REM options -cpp -mtune=generic -march=x86-64 -g -O0 -fpre-include=/usr/include/finclude/math-vector-fortran.h
REM seed 226723704 -2127007895 -1027884429 -233328782 618210916 2103109968 -2031920173 1801699763 1659836881 -185767705 -2109781835 -1634275818 -1862572358 483860098 235992076 -878574911 -2004219333 -613407207 839651972 -2040924516 707918149 -30764723 1051230230 371003801 -1134158693 1423980765 -444241380 -1637990605 827133220 870087793 1025766203 -2006664966 1359395789
REM
CELL 1.54180   50.00000   50.00000   50.00000   90.00000   90.00000   90.00000
LATT -1
SFAC C  
C      1  0.5015840000000  0.5237740000000  0.5139820000000 1.0
C      1  0.4969460000000  0.4541460000000  0.4730330000000 1.0
C      1  0.5222370000000  0.5449870000000  0.5120050000000 1.0
C      1  0.4939170000000  0.4086760000000  0.4462910000000 1.0
C      1  0.5161740000000  0.5661920000000  0.5300910000000 1.0
C      1  0.4984720000000  0.4770640000000  0.4865110000000 1.0
C      1  0.4830440000000  0.5342970000000  0.5346230000000 1.0
C      1  0.4922080000000  0.5596550000000  0.5439210000000 1.0
C      1  0.4954190000000  0.4312290000000  0.4595550000000 1.0
C      1  0.4999990000000  0.4999810000000  0.4999890000000 1.0
END
