TITL C-2778431-5191-1282 -0.00341441511182306 125000 -686.866494663632 0 0 119 (C1) n - 1
REM
REM in /home/nfs/bkarasulu/CARBON/AIRSS/Generating-Clusters/REBO/Only-C1/SD-CG/HFTN-CG
REM
REM
REM
REM
REM
REM ./C.cell (11c1c37f851c82e70ff6c80c92926a4b)
REM
REM compiler GCC version 9.2.1 20190827 (Red Hat 9.2.1-1)
REM options -cpp -mtune=generic -march=x86-64 -g -O0 -fpre-include=/usr/include/finclude/math-vector-fortran.h
REM seed 1660305253 -842016705 -698840218 1796774133 510875010 -738334262 2098353992 1906177288 -28012410 -1885337691 1558727728 62978943 -1592918397 -374304493 1733880436 632675118 527523713 1730786684 -953477028 1851941423 747876353 -173271660 -115015094 -320346151 85938999 -1591151968 -1419141571 767236326 -1872781621 1696933135 1108229099 -457186447 2133099986
REM
CELL 1.54180   50.00000   50.00000   50.00000   90.00000   90.00000   90.00000
LATT -1
SFAC C  
C      1  0.4880100000000  0.5278800000000  0.5779770000000 1.0
C      1  0.4563150000000  0.5505550000000  0.4906930000000 1.0
C      1  0.4923820000000  0.4808620000000  0.5848420000000 1.0
C      1  0.5054280000000  0.4985340000000  0.4766800000000 1.0
C      1  0.5121060000000  0.5186790000000  0.5105160000000 1.0
C      1  0.5830920000000  0.5646710000000  0.4891130000000 1.0
C      1  0.4981300000000  0.4365800000000  0.5684050000000 1.0
C      1  0.4642470000000  0.5246610000000  0.4262050000000 1.0
C      1  0.5209550000000  0.5224120000000  0.4068390000000 1.0
C      1  0.5430630000000  0.4787620000000  0.5700750000000 1.0
C      1  0.5286100000000  0.5884400000000  0.5274450000000 1.0
C      1  0.5636880000000  0.4695970000000  0.4423420000000 1.0
C      1  0.4369620000000  0.4655030000000  0.4828390000000 1.0
C      1  0.5300230000000  0.5104680000000  0.4476420000000 1.0
C      1  0.4752700000000  0.5017110000000  0.5821210000000 1.0
C      1  0.5141200000000  0.4633080000000  0.5701460000000 1.0
C      1  0.5516840000000  0.5897490000000  0.5439660000000 1.0
C      1  0.5006100000000  0.4130610000000  0.5513530000000 1.0
C      1  0.5636270000000  0.4388220000000  0.4662420000000 1.0
C      1  0.4868040000000  0.5761650000000  0.4588100000000 1.0
C      1  0.4652720000000  0.4428940000000  0.5665850000000 1.0
C      1  0.5711430000000  0.4968560000000  0.5339270000000 1.0
C      1  0.4862570000000  0.4976370000000  0.5017780000000 1.0
C      1  0.4615240000000  0.4911640000000  0.4210370000000 1.0
C      1  0.5622030000000  0.5089160000000  0.4355890000000 1.0
C      1  0.5080160000000  0.5516710000000  0.5638280000000 1.0
C      1  0.5334600000000  0.5892300000000  0.4983410000000 1.0
C      1  0.4187700000000  0.5361840000000  0.4523090000000 1.0
C      1  0.4506700000000  0.4706310000000  0.5552500000000 1.0
C      1  0.5920580000000  0.4409080000000  0.5210070000000 1.0
C      1  0.4997020000000  0.3989000000000  0.4596410000000 1.0
C      1  0.4735850000000  0.4684950000000  0.5056480000000 1.0
C      1  0.5958120000000  0.5449840000000  0.4749800000000 1.0
C      1  0.4733920000000  0.4937040000000  0.4534660000000 1.0
C      1  0.5559960000000  0.5801590000000  0.4823620000000 1.0
C      1  0.5829190000000  0.5168860000000  0.4790590000000 1.0
C      1  0.5108030000000  0.4769250000000  0.4572130000000 1.0
C      1  0.5203720000000  0.4545300000000  0.4938070000000 1.0
C      1  0.4016890000000  0.5134890000000  0.5003730000000 1.0
C      1  0.4737230000000  0.5513330000000  0.4400100000000 1.0
C      1  0.5792010000000  0.5104780000000  0.5625510000000 1.0
C      1  0.5935560000000  0.4607390000000  0.5009960000000 1.0
C      1  0.4791770000000  0.4869570000000  0.3943190000000 1.0
C      1  0.4538290000000  0.4395360000000  0.4407620000000 1.0
C      1  0.4822080000000  0.4712230000000  0.3741500000000 1.0
C      1  0.5490830000000  0.4186490000000  0.4633910000000 1.0
C      1  0.4919830000000  0.5268610000000  0.4658110000000 1.0
C      1  0.4355390000000  0.5169000000000  0.4950550000000 1.0
C      1  0.4351230000000  0.4356690000000  0.4833450000000 1.0
C      1  0.5513200000000  0.5223890000000  0.4715610000000 1.0
C      1  0.4391380000000  0.5128530000000  0.4460070000000 1.0
C      1  0.4500530000000  0.5814890000000  0.5230250000000 1.0
C      1  0.4594990000000  0.5329430000000  0.4648870000000 1.0
C      1  0.5403200000000  0.5013770000000  0.4103090000000 1.0
C      1  0.4888240000000  0.4506900000000  0.4809340000000 1.0
C      1  0.4745110000000  0.4001690000000  0.5488290000000 1.0
C      1  0.5189470000000  0.4730810000000  0.5389590000000 1.0
C      1  0.5034380000000  0.5509470000000  0.5101710000000 1.0
C      1  0.4388550000000  0.4242870000000  0.4576010000000 1.0
C      1  0.4342170000000  0.4263690000000  0.5317420000000 1.0
C      1  0.4909440000000  0.5141480000000  0.4076500000000 1.0
C      1  0.4992630000000  0.5105320000000  0.4390910000000 1.0
C      1  0.4541000000000  0.4949690000000  0.4814700000000 1.0
C      1  0.4435410000000  0.4197810000000  0.5053490000000 1.0
C      1  0.5335570000000  0.5041710000000  0.4895280000000 1.0
C      1  0.4683760000000  0.5595020000000  0.5277670000000 1.0
C      1  0.5096750000000  0.5818120000000  0.4833500000000 1.0
C      1  0.5524460000000  0.5415040000000  0.4365370000000 1.0
C      1  0.5539910000000  0.5551190000000  0.4635520000000 1.0
C      1  0.5654760000000  0.5371750000000  0.5614810000000 1.0
C      1  0.4261630000000  0.5645920000000  0.4958790000000 1.0
C      1  0.4061420000000  0.5289920000000  0.5682260000000 1.0
C      1  0.4111970000000  0.4860340000000  0.4883970000000 1.0
C      1  0.5475320000000  0.4773830000000  0.5284230000000 1.0
C      1  0.5635250000000  0.4632500000000  0.5540680000000 1.0
C      1  0.4229270000000  0.4536600000000  0.5324420000000 1.0
C      1  0.5815180000000  0.4434410000000  0.5462980000000 1.0
C      1  0.4334290000000  0.5123070000000  0.5387190000000 1.0
C      1  0.4480920000000  0.4984890000000  0.5663710000000 1.0
C      1  0.4496680000000  0.4698440000000  0.5211120000000 1.0
C      1  0.4920110000000  0.4916630000000  0.5325250000000 1.0
C      1  0.5775710000000  0.4913640000000  0.4603680000000 1.0
C      1  0.4929540000000  0.5174660000000  0.5498880000000 1.0
C      1  0.5395160000000  0.5069030000000  0.5639920000000 1.0
C      1  0.5171730000000  0.4148410000000  0.5286230000000 1.0
C      1  0.5355590000000  0.4791210000000  0.4347060000000 1.0
C      1  0.4749870000000  0.4604080000000  0.4555260000000 1.0
C      1  0.5222990000000  0.5161630000000  0.5406780000000 1.0
C      1  0.4894880000000  0.4190970000000  0.4826320000000 1.0
C      1  0.5351110000000  0.5488930000000  0.4981500000000 1.0
C      1  0.5065470000000  0.5558710000000  0.4396650000000 1.0
C      1  0.5247610000000  0.4092350000000  0.4772550000000 1.0
C      1  0.5438310000000  0.4749080000000  0.4972910000000 1.0
C      1  0.4755070000000  0.5576870000000  0.5553810000000 1.0
C      1  0.4453510000000  0.4703820000000  0.4375830000000 1.0
C      1  0.4691010000000  0.4078970000000  0.5011230000000 1.0
C      1  0.6068630000000  0.4838860000000  0.5072890000000 1.0
C      1  0.5691150000000  0.5691660000000  0.5388890000000 1.0
C      1  0.4507120000000  0.5484680000000  0.5666520000000 1.0
C      1  0.5229340000000  0.4237570000000  0.5039800000000 1.0
C      1  0.5728830000000  0.5306550000000  0.5288900000000 1.0
C      1  0.5625420000000  0.5533820000000  0.5111320000000 1.0
C      1  0.4808630000000  0.4636540000000  0.5450250000000 1.0
C      1  0.4224260000000  0.5691190000000  0.5249980000000 1.0
C      1  0.5884740000000  0.5090480000000  0.5079540000000 1.0
C      1  0.4248390000000  0.4850460000000  0.4570300000000 1.0
C      1  0.4818530000000  0.5648840000000  0.4905930000000 1.0
C      1  0.4212170000000  0.4859170000000  0.5209900000000 1.0
C      1  0.5002190000000  0.4550220000000  0.5189450000000 1.0
C      1  0.4344840000000  0.5250180000000  0.5765850000000 1.0
C      1  0.5364290000000  0.5394770000000  0.5697000000000 1.0
C      1  0.5094610000000  0.5680080000000  0.5352870000000 1.0
C      1  0.4523550000000  0.4186090000000  0.5527680000000 1.0
C      1  0.4524920000000  0.5319680000000  0.5186810000000 1.0
C      1  0.4194030000000  0.5412290000000  0.4789120000000 1.0
C      1  0.5137490000000  0.5499580000000  0.4717050000000 1.0
C      1  0.5276820000000  0.5447530000000  0.4226740000000 1.0
C      1  0.5700220000000  0.4657240000000  0.4814780000000 1.0
C      1  0.4243440000000  0.5451190000000  0.5438840000000 1.0
END
