TITL C-2778422-5617-92 -0.00192067875388668 125000 -592.230320589163 0 0 102 (C1) n - 1
REM
REM in /home/nfs/bkarasulu/CARBON/AIRSS/Generating-Clusters/REBO/Only-C1/SD-CG/HFTN-CG
REM
REM
REM
REM
REM
REM ./C.cell (11c1c37f851c82e70ff6c80c92926a4b)
REM
REM compiler GCC version 9.2.1 20190827 (Red Hat 9.2.1-1)
REM options -cpp -mtune=generic -march=x86-64 -g -O0 -fpre-include=/usr/include/finclude/math-vector-fortran.h
REM seed -1943482735 -1960989960 1584477255 -1858664374 1146392871 959868927 -482969011 -597080635 -2024091584 -1369864580 -262321061 -1590264221 2036971231 -830492228 100065717 1772139274 -1767145821 509187313 1458778721 1057552541 699105743 -257672132 2070174447 -762960015 1218866009 510989327 518751182 325585408 -466115510 1588537997 -1583783671 1129087881 960646321
REM
CELL 1.54180   50.00000   50.00000   50.00000   90.00000   90.00000   90.00000
LATT -1
SFAC C  
C      1  0.4586060000000  0.4379440000000  0.4494050000000 1.0
C      1  0.4924230000000  0.5038980000000  0.5338940000000 1.0
C      1  0.5338790000000  0.5604180000000  0.4457750000000 1.0
C      1  0.5879420000000  0.4596050000000  0.4853180000000 1.0
C      1  0.5212440000000  0.4398820000000  0.4501080000000 1.0
C      1  0.5690550000000  0.5218470000000  0.4709590000000 1.0
C      1  0.5817780000000  0.5110770000000  0.4995040000000 1.0
C      1  0.5725150000000  0.5417990000000  0.5052260000000 1.0
C      1  0.5768370000000  0.4782140000000  0.5360150000000 1.0
C      1  0.4822720000000  0.3936380000000  0.5125940000000 1.0
C      1  0.5514310000000  0.4795980000000  0.4365080000000 1.0
C      1  0.5474100000000  0.5098970000000  0.4208030000000 1.0
C      1  0.4839430000000  0.4698020000000  0.5151450000000 1.0
C      1  0.4693950000000  0.4793150000000  0.5763780000000 1.0
C      1  0.4072280000000  0.5069810000000  0.4928920000000 1.0
C      1  0.4621300000000  0.5290860000000  0.4318390000000 1.0
C      1  0.5147840000000  0.5778340000000  0.5568720000000 1.0
C      1  0.4742490000000  0.4829870000000  0.4225740000000 1.0
C      1  0.4782320000000  0.4186350000000  0.5057970000000 1.0
C      1  0.4698710000000  0.5595990000000  0.5624750000000 1.0
C      1  0.5379470000000  0.5023350000000  0.5719720000000 1.0
C      1  0.4945670000000  0.5296510000000  0.4271910000000 1.0
C      1  0.4898310000000  0.5778050000000  0.5699600000000 1.0
C      1  0.4763160000000  0.5702590000000  0.5020430000000 1.0
C      1  0.5493040000000  0.4171820000000  0.5344140000000 1.0
C      1  0.5676560000000  0.4397070000000  0.4800360000000 1.0
C      1  0.4301820000000  0.4907800000000  0.4432460000000 1.0
C      1  0.4091680000000  0.4940510000000  0.4677230000000 1.0
C      1  0.4319990000000  0.5082540000000  0.5446330000000 1.0
C      1  0.5187710000000  0.4842540000000  0.4789060000000 1.0
C      1  0.4425030000000  0.5570500000000  0.5475920000000 1.0
C      1  0.4603390000000  0.4549210000000  0.5608700000000 1.0
C      1  0.4791310000000  0.4878440000000  0.4538690000000 1.0
C      1  0.5141030000000  0.4051550000000  0.4912990000000 1.0
C      1  0.4795160000000  0.5314670000000  0.5477120000000 1.0
C      1  0.5844170000000  0.5487460000000  0.5305810000000 1.0
C      1  0.4320000000000  0.4765260000000  0.5341420000000 1.0
C      1  0.5207000000000  0.5891660000000  0.4917620000000 1.0
C      1  0.5251580000000  0.4461340000000  0.5772660000000 1.0
C      1  0.4641730000000  0.5503120000000  0.5241640000000 1.0
C      1  0.5854440000000  0.5224290000000  0.5733050000000 1.0
C      1  0.4744670000000  0.4473040000000  0.5392790000000 1.0
C      1  0.4083920000000  0.5457360000000  0.5147960000000 1.0
C      1  0.4946230000000  0.4613610000000  0.5802850000000 1.0
C      1  0.5218110000000  0.4879600000000  0.4217160000000 1.0
C      1  0.5877570000000  0.5023700000000  0.5284820000000 1.0
C      1  0.5471840000000  0.5488830000000  0.4955760000000 1.0
C      1  0.5058500000000  0.4169310000000  0.4685980000000 1.0
C      1  0.5632680000000  0.5135340000000  0.5862660000000 1.0
C      1  0.4404920000000  0.5481430000000  0.4788790000000 1.0
C      1  0.4832480000000  0.4367040000000  0.4607790000000 1.0
C      1  0.5101880000000  0.4604200000000  0.5514110000000 1.0
C      1  0.4991380000000  0.4709310000000  0.4151820000000 1.0
C      1  0.5023790000000  0.4930330000000  0.5028270000000 1.0
C      1  0.5003590000000  0.4649180000000  0.4608480000000 1.0
C      1  0.5058620000000  0.5611000000000  0.4276270000000 1.0
C      1  0.5436280000000  0.4727720000000  0.5333840000000 1.0
C      1  0.5280640000000  0.5351920000000  0.4235770000000 1.0
C      1  0.4147260000000  0.5533690000000  0.4885420000000 1.0
C      1  0.5334030000000  0.4496800000000  0.5180470000000 1.0
C      1  0.4586530000000  0.5019010000000  0.4940870000000 1.0
C      1  0.5506630000000  0.4333420000000  0.5583140000000 1.0
C      1  0.4520200000000  0.5331250000000  0.5022440000000 1.0
C      1  0.4380560000000  0.4594220000000  0.4476180000000 1.0
C      1  0.5214180000000  0.4146750000000  0.5179990000000 1.0
C      1  0.4773580000000  0.6003650000000  0.4639630000000 1.0
C      1  0.4553140000000  0.4808210000000  0.4724460000000 1.0
C      1  0.4973410000000  0.5524290000000  0.4597130000000 1.0
C      1  0.4175150000000  0.4583660000000  0.5212830000000 1.0
C      1  0.5038720000000  0.4384060000000  0.5292650000000 1.0
C      1  0.4214390000000  0.4506950000000  0.4945880000000 1.0
C      1  0.5046840000000  0.4448570000000  0.4223450000000 1.0
C      1  0.4927870000000  0.5959280000000  0.5109610000000 1.0
C      1  0.4632760000000  0.5494940000000  0.4556860000000 1.0
C      1  0.5200580000000  0.5852270000000  0.5257520000000 1.0
C      1  0.5444460000000  0.4711580000000  0.5688360000000 1.0
C      1  0.5768000000000  0.4847860000000  0.4835930000000 1.0
C      1  0.5504380000000  0.4805790000000  0.4700050000000 1.0
C      1  0.5235400000000  0.5035520000000  0.4519660000000 1.0
C      1  0.4967130000000  0.5450380000000  0.5021010000000 1.0
C      1  0.4632800000000  0.4853660000000  0.5351130000000 1.0
C      1  0.5551280000000  0.4298410000000  0.5033750000000 1.0
C      1  0.5235860000000  0.5512010000000  0.5461000000000 1.0
C      1  0.4891700000000  0.5189230000000  0.4591700000000 1.0
C      1  0.4967720000000  0.6105680000000  0.4808370000000 1.0
C      1  0.4499840000000  0.4536710000000  0.4851390000000 1.0
C      1  0.5229110000000  0.5531530000000  0.5145780000000 1.0
C      1  0.4875380000000  0.5188630000000  0.4909520000000 1.0
C      1  0.4150920000000  0.4640130000000  0.4685720000000 1.0
C      1  0.5909610000000  0.5251360000000  0.5457950000000 1.0
C      1  0.5181490000000  0.4909190000000  0.5464070000000 1.0
C      1  0.5500330000000  0.5194610000000  0.4530470000000 1.0
C      1  0.4216830000000  0.5385760000000  0.5393030000000 1.0
C      1  0.4721950000000  0.4448530000000  0.4996380000000 1.0
C      1  0.5247440000000  0.5281500000000  0.5591370000000 1.0
C      1  0.5253410000000  0.5633760000000  0.4760360000000 1.0
C      1  0.4517180000000  0.5031080000000  0.4290850000000 1.0
C      1  0.5491730000000  0.4504710000000  0.4542580000000 1.0
C      1  0.4674030000000  0.5762720000000  0.4729360000000 1.0
C      1  0.4316460000000  0.5097900000000  0.5119850000000 1.0
C      1  0.5714850000000  0.4566490000000  0.5569310000000 1.0
C      1  0.4623300000000  0.5070510000000  0.5599780000000 1.0
END
