TITL C-2778436-5916-1339 0.0537277743892387 125000 -205.43585016976 0 0 37 (C1) n - 1
REM
REM in /home/nfs/bkarasulu/CARBON/AIRSS/Generating-Clusters/REBO/Only-C1/SD-CG/HFTN-CG
REM
REM
REM
REM
REM
REM ./C.cell (11c1c37f851c82e70ff6c80c92926a4b)
REM
REM compiler GCC version 9.2.1 20190827 (Red Hat 9.2.1-1)
REM options -cpp -mtune=generic -march=x86-64 -g -O0 -fpre-include=/usr/include/finclude/math-vector-fortran.h
REM seed -928531305 1867706717 -1052491135 -97530711 708769696 2133926005 258995833 -653489814 887703805 572478915 -331340772 -838189975 222550792 1123519465 -1253351567 1937552727 1217727945 1344954739 483703239 2133026184 -539621864 -1296381010 -1295082404 -1095096442 1765430862 -335953229 -778445279 1971421874 -1142467979 -796193200 -995461493 269323360 -1113185815
REM
CELL 1.54180   50.00000   50.00000   50.00000   90.00000   90.00000   90.00000
LATT -1
SFAC C  
C      1  0.4079110000000  0.4813580000000  0.5248050000000 1.0
C      1  0.5008600000000  0.5204570000000  0.5544800000000 1.0
C      1  0.5983450000000  0.5390010000000  0.4422650000000 1.0
C      1  0.5249930000000  0.5347850000000  0.4624700000000 1.0
C      1  0.5041400000000  0.4971290000000  0.5387420000000 1.0
C      1  0.4279050000000  0.4146640000000  0.4885230000000 1.0
C      1  0.5345260000000  0.4557280000000  0.5557900000000 1.0
C      1  0.4974580000000  0.3985470000000  0.4954480000000 1.0
C      1  0.6222490000000  0.5304040000000  0.4358240000000 1.0
C      1  0.5135680000000  0.5558240000000  0.4777120000000 1.0
C      1  0.5103510000000  0.5095560000000  0.4631070000000 1.0
C      1  0.4346680000000  0.4388530000000  0.4986840000000 1.0
C      1  0.4872800000000  0.5448580000000  0.5499880000000 1.0
C      1  0.5524870000000  0.5293860000000  0.4542050000000 1.0
C      1  0.5223160000000  0.4642440000000  0.4747420000000 1.0
C      1  0.4568440000000  0.4612790000000  0.5047030000000 1.0
C      1  0.5297990000000  0.4878280000000  0.4618880000000 1.0
C      1  0.5676580000000  0.5748830000000  0.4509290000000 1.0
C      1  0.4830240000000  0.4700230000000  0.5033000000000 1.0
C      1  0.4526410000000  0.5163190000000  0.4887490000000 1.0
C      1  0.4263210000000  0.4661450000000  0.5135670000000 1.0
C      1  0.4950040000000  0.3725380000000  0.4975240000000 1.0
C      1  0.4999520000000  0.4249770000000  0.4933380000000 1.0
C      1  0.4213630000000  0.3912670000000  0.4786940000000 1.0
C      1  0.4946500000000  0.5474700000000  0.4957270000000 1.0
C      1  0.5025680000000  0.4527000000000  0.4911250000000 1.0
C      1  0.5198090000000  0.4757800000000  0.5475330000000 1.0
C      1  0.5234810000000  0.5811060000000  0.4767810000000 1.0
C      1  0.4821330000000  0.5634360000000  0.5700330000000 1.0
C      1  0.4759440000000  0.5206490000000  0.5038350000000 1.0
C      1  0.4894530000000  0.4956810000000  0.5145550000000 1.0
C      1  0.5728350000000  0.5481750000000  0.4491380000000 1.0
C      1  0.4723540000000  0.5987320000000  0.6081180000000 1.0
C      1  0.4792860000000  0.5479120000000  0.5233130000000 1.0
C      1  0.4837050000000  0.5068660000000  0.4671010000000 1.0
C      1  0.5549130000000  0.5002160000000  0.4540350000000 1.0
C      1  0.4772040000000  0.5812250000000  0.5892280000000 1.0
END
