TITL C-2778434-4341-1109 -0.00264567814781107 125000 -189.793239157623 0 0 33 (C1) n - 1
REM
REM in /home/nfs/bkarasulu/CARBON/AIRSS/Generating-Clusters/REBO/Only-C1/SD-CG/HFTN-CG
REM
REM
REM
REM
REM
REM ./C.cell (11c1c37f851c82e70ff6c80c92926a4b)
REM
REM compiler GCC version 9.2.1 20190827 (Red Hat 9.2.1-1)
REM options -cpp -mtune=generic -march=x86-64 -g -O0 -fpre-include=/usr/include/finclude/math-vector-fortran.h
REM seed -164697613 -1980808445 -1944971935 -1569617112 -938261254 -566604009 888926253 -2101792980 -1556983542 1367486626 -1274018254 -1938052193 249134242 -1774173899 -1914657015 1753809085 -145262489 1799515231 458680549 -991319253 -1339374099 498555709 -1610574068 -1186079944 -8361367 -600618302 1605804092 14924018 -1666962967 1757480616 1988938764 1808450001 479452876
REM
CELL 1.54180   50.00000   50.00000   50.00000   90.00000   90.00000   90.00000
LATT -1
SFAC C  
C      1  0.5032810000000  0.4646940000000  0.5042280000000 1.0
C      1  0.5320810000000  0.5676480000000  0.4619650000000 1.0
C      1  0.5540260000000  0.5651260000000  0.5095570000000 1.0
C      1  0.5789900000000  0.5250730000000  0.5027110000000 1.0
C      1  0.4441660000000  0.4247230000000  0.5136840000000 1.0
C      1  0.5129590000000  0.5165140000000  0.5026610000000 1.0
C      1  0.4356920000000  0.4273610000000  0.5396570000000 1.0
C      1  0.5102730000000  0.4733970000000  0.4567810000000 1.0
C      1  0.4750980000000  0.5119620000000  0.5338320000000 1.0
C      1  0.4667920000000  0.4984980000000  0.4781090000000 1.0
C      1  0.5294830000000  0.5607950000000  0.5234200000000 1.0
C      1  0.5110590000000  0.5395190000000  0.5201380000000 1.0
C      1  0.4736420000000  0.4646250000000  0.5201050000000 1.0
C      1  0.4411660000000  0.4495960000000  0.5564710000000 1.0
C      1  0.4879200000000  0.5369550000000  0.5365610000000 1.0
C      1  0.4296820000000  0.4523090000000  0.5809630000000 1.0
C      1  0.4617040000000  0.4426170000000  0.5012310000000 1.0
C      1  0.4622710000000  0.4708750000000  0.4614870000000 1.0
C      1  0.5505830000000  0.5582710000000  0.4805760000000 1.0
C      1  0.4858200000000  0.4861860000000  0.4457110000000 1.0
C      1  0.5310340000000  0.4908670000000  0.4645770000000 1.0
C      1  0.4578160000000  0.4692390000000  0.5452250000000 1.0
C      1  0.5770250000000  0.5495240000000  0.5187160000000 1.0
C      1  0.5085430000000  0.5606690000000  0.4508280000000 1.0
C      1  0.4596260000000  0.4966300000000  0.5517230000000 1.0
C      1  0.4725830000000  0.4466410000000  0.4749800000000 1.0
C      1  0.5571000000000  0.5289000000000  0.4828420000000 1.0
C      1  0.5019680000000  0.4538930000000  0.4771600000000 1.0
C      1  0.4901120000000  0.5411790000000  0.4497030000000 1.0
C      1  0.5948100000000  0.5035520000000  0.5062870000000 1.0
C      1  0.4883160000000  0.4945650000000  0.5089660000000 1.0
C      1  0.5337600000000  0.5114160000000  0.4837170000000 1.0
C      1  0.4806220000000  0.5161800000000  0.4554300000000 1.0
END
