TITL C-2778430-5657-1497 0.00458794866789519 125000 -920.843478424705 0 0 156 (C1) n - 1
REM
REM in /home/nfs/bkarasulu/CARBON/AIRSS/Generating-Clusters/REBO/Only-C1/SD-CG/HFTN-CG
REM
REM
REM
REM
REM
REM ./C.cell (11c1c37f851c82e70ff6c80c92926a4b)
REM
REM compiler GCC version 9.2.1 20190827 (Red Hat 9.2.1-1)
REM options -cpp -mtune=generic -march=x86-64 -g -O0 -fpre-include=/usr/include/finclude/math-vector-fortran.h
REM seed 827178372 2090923972 960457234 233429597 894943308 -1028308478 2143332009 -431872109 690206306 381172157 355150991 -1614026485 282389091 1053267647 -354370800 -1450676222 -1217843576 -1746550014 1986728657 1716425742 -1346571383 1310954395 1940256365 1483125617 1767562825 -45623731 1653219221 -138389279 -969219338 -439820140 598037772 -447036193 621995855
REM
CELL 1.54180   50.00000   50.00000   50.00000   90.00000   90.00000   90.00000
LATT -1
SFAC C  
C      1  0.5383130000000  0.5183800000000  0.6054710000000 1.0
C      1  0.4436870000000  0.5769340000000  0.5131860000000 1.0
C      1  0.5076490000000  0.3925790000000  0.4931280000000 1.0
C      1  0.4472450000000  0.5703870000000  0.5627360000000 1.0
C      1  0.4234740000000  0.5016350000000  0.5171490000000 1.0
C      1  0.4488590000000  0.4944750000000  0.4967490000000 1.0
C      1  0.4965740000000  0.5039160000000  0.5135900000000 1.0
C      1  0.4273760000000  0.5247270000000  0.5584610000000 1.0
C      1  0.5643250000000  0.4444110000000  0.4671740000000 1.0
C      1  0.4690020000000  0.4758890000000  0.6017220000000 1.0
C      1  0.5579610000000  0.4465600000000  0.4338070000000 1.0
C      1  0.4831510000000  0.5637100000000  0.4296710000000 1.0
C      1  0.3974730000000  0.5600330000000  0.4886670000000 1.0
C      1  0.5408250000000  0.5550960000000  0.5755210000000 1.0
C      1  0.6010220000000  0.5370960000000  0.4616710000000 1.0
C      1  0.4274710000000  0.4994250000000  0.4458230000000 1.0
C      1  0.5005280000000  0.4066870000000  0.4622280000000 1.0
C      1  0.4735970000000  0.5750860000000  0.5279990000000 1.0
C      1  0.4768410000000  0.4503030000000  0.4262080000000 1.0
C      1  0.4879140000000  0.5325030000000  0.4052200000000 1.0
C      1  0.4782800000000  0.5050530000000  0.4407450000000 1.0
C      1  0.4950280000000  0.4508280000000  0.5165920000000 1.0
C      1  0.5145930000000  0.4209560000000  0.4409850000000 1.0
C      1  0.5733480000000  0.4753610000000  0.4438760000000 1.0
C      1  0.5324720000000  0.5827710000000  0.4452230000000 1.0
C      1  0.4994700000000  0.4832070000000  0.4244400000000 1.0
C      1  0.5468150000000  0.4789700000000  0.5697790000000 1.0
C      1  0.4696680000000  0.5174010000000  0.5557990000000 1.0
C      1  0.5319080000000  0.5064950000000  0.6294890000000 1.0
C      1  0.4778320000000  0.4493640000000  0.4893470000000 1.0
C      1  0.4659840000000  0.4000520000000  0.5052040000000 1.0
C      1  0.5314560000000  0.5217280000000  0.5459280000000 1.0
C      1  0.4699520000000  0.4717580000000  0.5686700000000 1.0
C      1  0.4217620000000  0.4605470000000  0.4525120000000 1.0
C      1  0.5521100000000  0.5095170000000  0.4095130000000 1.0
C      1  0.4983000000000  0.4263710000000  0.5668710000000 1.0
C      1  0.4728720000000  0.5894900000000  0.5581980000000 1.0
C      1  0.5479510000000  0.4183960000000  0.5695990000000 1.0
C      1  0.5992770000000  0.5286400000000  0.4875800000000 1.0
C      1  0.5887190000000  0.4992220000000  0.4892590000000 1.0
C      1  0.4709610000000  0.5905810000000  0.4977570000000 1.0
C      1  0.3980310000000  0.4994100000000  0.5038830000000 1.0
C      1  0.4294770000000  0.5631410000000  0.4910380000000 1.0
C      1  0.5580060000000  0.5063290000000  0.5864530000000 1.0
C      1  0.4422020000000  0.4639910000000  0.5042390000000 1.0
C      1  0.5884330000000  0.5345710000000  0.4375190000000 1.0
C      1  0.3972200000000  0.5449030000000  0.4584930000000 1.0
C      1  0.5265250000000  0.5159970000000  0.3965970000000 1.0
C      1  0.4463450000000  0.5433710000000  0.5749410000000 1.0
C      1  0.4636360000000  0.5367280000000  0.5304410000000 1.0
C      1  0.5850900000000  0.4968570000000  0.5211950000000 1.0
C      1  0.5259060000000  0.5677610000000  0.5489040000000 1.0
C      1  0.5035510000000  0.5219850000000  0.4286880000000 1.0
C      1  0.5251790000000  0.5468110000000  0.4061700000000 1.0
C      1  0.5525950000000  0.4830620000000  0.4195200000000 1.0
C      1  0.5866360000000  0.4683970000000  0.4748260000000 1.0
C      1  0.5586940000000  0.5705070000000  0.5537710000000 1.0
C      1  0.4654550000000  0.4244580000000  0.5441420000000 1.0
C      1  0.5506660000000  0.5237340000000  0.4552580000000 1.0
C      1  0.4510530000000  0.4306770000000  0.4846320000000 1.0
C      1  0.5474970000000  0.5622060000000  0.4220130000000 1.0
C      1  0.5907030000000  0.5446550000000  0.5164180000000 1.0
C      1  0.4402870000000  0.5302380000000  0.5124770000000 1.0
C      1  0.5102400000000  0.5921880000000  0.4584510000000 1.0
C      1  0.4013310000000  0.4803560000000  0.4350790000000 1.0
C      1  0.5156020000000  0.5684720000000  0.4901710000000 1.0
C      1  0.5624950000000  0.5464730000000  0.4666920000000 1.0
C      1  0.5750780000000  0.4249490000000  0.5324810000000 1.0
C      1  0.5157760000000  0.4936730000000  0.5697140000000 1.0
C      1  0.5050500000000  0.5915310000000  0.5462940000000 1.0
C      1  0.5661910000000  0.5338060000000  0.4198190000000 1.0
C      1  0.5073710000000  0.4440230000000  0.4251300000000 1.0
C      1  0.5630290000000  0.4988250000000  0.4662160000000 1.0
C      1  0.5391930000000  0.4669230000000  0.4626960000000 1.0
C      1  0.5584350000000  0.5155640000000  0.5094170000000 1.0
C      1  0.5307060000000  0.5290230000000  0.5066450000000 1.0
C      1  0.5580240000000  0.5233950000000  0.5572670000000 1.0
C      1  0.4710120000000  0.4867050000000  0.5197500000000 1.0
C      1  0.4690490000000  0.5379820000000  0.4399880000000 1.0
C      1  0.4932780000000  0.4048300000000  0.5408410000000 1.0
C      1  0.4719020000000  0.4958610000000  0.3985730000000 1.0
C      1  0.5826100000000  0.4465780000000  0.5508660000000 1.0
C      1  0.4972810000000  0.5477480000000  0.5908970000000 1.0
C      1  0.5724200000000  0.4377220000000  0.5765210000000 1.0
C      1  0.5089560000000  0.4737690000000  0.4517480000000 1.0
C      1  0.5349820000000  0.4484590000000  0.5311680000000 1.0
C      1  0.5044250000000  0.4969880000000  0.3975130000000 1.0
C      1  0.4532900000000  0.4506940000000  0.5870090000000 1.0
C      1  0.4396780000000  0.5709030000000  0.4626660000000 1.0
C      1  0.4283180000000  0.4925680000000  0.5468540000000 1.0
C      1  0.5215350000000  0.3971410000000  0.5230120000000 1.0
C      1  0.5251630000000  0.5408720000000  0.5940520000000 1.0
C      1  0.5302520000000  0.5291830000000  0.4364820000000 1.0
C      1  0.5482430000000  0.4060310000000  0.5424170000000 1.0
C      1  0.4779160000000  0.3854030000000  0.4767620000000 1.0
C      1  0.4844260000000  0.5842950000000  0.4484240000000 1.0
C      1  0.4298590000000  0.4525060000000  0.4770930000000 1.0
C      1  0.4587770000000  0.4718750000000  0.4081100000000 1.0
C      1  0.5018540000000  0.5232350000000  0.5596790000000 1.0
C      1  0.3944630000000  0.5216200000000  0.4836670000000 1.0
C      1  0.5191750000000  0.5461160000000  0.5295780000000 1.0
C      1  0.4301440000000  0.5693660000000  0.5403630000000 1.0
C      1  0.4732220000000  0.5311100000000  0.4706130000000 1.0
C      1  0.5478180000000  0.4839490000000  0.5183990000000 1.0
C      1  0.4641800000000  0.4232420000000  0.4378100000000 1.0
C      1  0.5088660000000  0.4327770000000  0.5352190000000 1.0
C      1  0.4947380000000  0.5468000000000  0.4880700000000 1.0
C      1  0.4597660000000  0.4907160000000  0.5495070000000 1.0
C      1  0.5177170000000  0.4707600000000  0.5439650000000 1.0
C      1  0.5645660000000  0.5464050000000  0.4958370000000 1.0
C      1  0.4583350000000  0.5234000000000  0.4045510000000 1.0
C      1  0.5310370000000  0.4593960000000  0.4191700000000 1.0
C      1  0.4154850000000  0.5447840000000  0.5401170000000 1.0
C      1  0.5693830000000  0.4755260000000  0.5438880000000 1.0
C      1  0.5138200000000  0.4683940000000  0.5038590000000 1.0
C      1  0.4513470000000  0.4268340000000  0.5739050000000 1.0
C      1  0.4677600000000  0.4740660000000  0.4465320000000 1.0
C      1  0.4447700000000  0.5344130000000  0.4811290000000 1.0
C      1  0.4952280000000  0.4593410000000  0.5615320000000 1.0
C      1  0.4907520000000  0.5048940000000  0.4808370000000 1.0
C      1  0.4732800000000  0.5332580000000  0.5856680000000 1.0
C      1  0.5212820000000  0.4977560000000  0.5295940000000 1.0
C      1  0.4650300000000  0.4538250000000  0.5267670000000 1.0
C      1  0.5424040000000  0.4197760000000  0.4451060000000 1.0
C      1  0.4404910000000  0.5401820000000  0.4252410000000 1.0
C      1  0.5706370000000  0.5692090000000  0.5275370000000 1.0
C      1  0.5868000000000  0.5242440000000  0.5389600000000 1.0
C      1  0.4607950000000  0.4112470000000  0.4627610000000 1.0
C      1  0.4975720000000  0.5617730000000  0.4035390000000 1.0
C      1  0.4416860000000  0.4170350000000  0.5130760000000 1.0
C      1  0.4245830000000  0.5557850000000  0.4429920000000 1.0
C      1  0.5502990000000  0.4153360000000  0.4739630000000 1.0
C      1  0.5195690000000  0.5903040000000  0.5166360000000 1.0
C      1  0.5825060000000  0.5007270000000  0.5632920000000 1.0
C      1  0.5530260000000  0.4347290000000  0.5152210000000 1.0
C      1  0.5600890000000  0.5693750000000  0.4515700000000 1.0
C      1  0.5125280000000  0.4486290000000  0.5883030000000 1.0
C      1  0.4326110000000  0.4335710000000  0.5373210000000 1.0
C      1  0.5566700000000  0.4756550000000  0.4906110000000 1.0
C      1  0.4067110000000  0.5374880000000  0.5115320000000 1.0
C      1  0.4967200000000  0.5747120000000  0.5752090000000 1.0
C      1  0.5191490000000  0.4861370000000  0.4819800000000 1.0
C      1  0.4828370000000  0.4725580000000  0.4736220000000 1.0
C      1  0.4215940000000  0.5223090000000  0.4644540000000 1.0
C      1  0.5011740000000  0.5985210000000  0.4900310000000 1.0
C      1  0.4328230000000  0.4747160000000  0.4229150000000 1.0
C      1  0.4891030000000  0.4206030000000  0.4911260000000 1.0
C      1  0.4864540000000  0.5528470000000  0.5508920000000 1.0
C      1  0.4518210000000  0.4963770000000  0.4667810000000 1.0
C      1  0.4244060000000  0.4588010000000  0.5451590000000 1.0
C      1  0.4632710000000  0.5853480000000  0.4667770000000 1.0
C      1  0.4922740000000  0.5347740000000  0.5158270000000 1.0
C      1  0.5414920000000  0.4128230000000  0.5001190000000 1.0
C      1  0.4994260000000  0.4790830000000  0.5957480000000 1.0
C      1  0.5452120000000  0.5700670000000  0.5067770000000 1.0
C      1  0.5421200000000  0.4496350000000  0.5826880000000 1.0
END
