TITL C-2778430-5657-1174 0.00582220885844337 125000 -862.738786149969 0 0 151 (C1) n - 1
REM
REM in /home/nfs/bkarasulu/CARBON/AIRSS/Generating-Clusters/REBO/Only-C1/SD-CG/HFTN-CG
REM
REM
REM
REM
REM
REM ./C.cell (11c1c37f851c82e70ff6c80c92926a4b)
REM
REM compiler GCC version 9.2.1 20190827 (Red Hat 9.2.1-1)
REM options -cpp -mtune=generic -march=x86-64 -g -O0 -fpre-include=/usr/include/finclude/math-vector-fortran.h
REM seed 1360745038 -39354233 -1274135482 1458706225 1489625266 673337416 -663330842 -31563021 1676626531 -495394117 -735495001 -53543406 1985271032 1953160225 1127976141 1821101118 1478980191 -1635271239 -11345888 186423448 -946574876 -807322031 -632681345 1354242654 -1899822194 -1549898748 557337178 -575724869 868001523 -113546466 -9736196 -31240534 -701660448
REM
CELL 1.54180   50.00000   50.00000   50.00000   90.00000   90.00000   90.00000
LATT -1
SFAC C  
C      1  0.4614470000000  0.4669270000000  0.5346810000000 1.0
C      1  0.5017760000000  0.5403220000000  0.5406020000000 1.0
C      1  0.4021880000000  0.5387070000000  0.4802420000000 1.0
C      1  0.4898070000000  0.4444190000000  0.4821080000000 1.0
C      1  0.4840930000000  0.5453120000000  0.5969630000000 1.0
C      1  0.5964740000000  0.4754880000000  0.5471890000000 1.0
C      1  0.5254550000000  0.5882750000000  0.4797570000000 1.0
C      1  0.5981460000000  0.4963260000000  0.4979930000000 1.0
C      1  0.4941310000000  0.5077320000000  0.4118150000000 1.0
C      1  0.5276750000000  0.4916590000000  0.5150520000000 1.0
C      1  0.3907890000000  0.5075160000000  0.4881980000000 1.0
C      1  0.4057620000000  0.4732950000000  0.5380890000000 1.0
C      1  0.4612210000000  0.5229870000000  0.4739790000000 1.0
C      1  0.5280390000000  0.3948280000000  0.4745780000000 1.0
C      1  0.4938650000000  0.4786430000000  0.4628230000000 1.0
C      1  0.4540700000000  0.4539390000000  0.4335070000000 1.0
C      1  0.4402480000000  0.4245830000000  0.4565090000000 1.0
C      1  0.4960740000000  0.5496430000000  0.5029370000000 1.0
C      1  0.4281560000000  0.5044440000000  0.5268730000000 1.0
C      1  0.5526180000000  0.4465400000000  0.5174220000000 1.0
C      1  0.5079840000000  0.5483420000000  0.4138080000000 1.0
C      1  0.5100680000000  0.5035090000000  0.5914390000000 1.0
C      1  0.4931420000000  0.4520070000000  0.4413690000000 1.0
C      1  0.5232170000000  0.4491390000000  0.4769980000000 1.0
C      1  0.4965640000000  0.4612980000000  0.4085910000000 1.0
C      1  0.5402850000000  0.5308790000000  0.3982080000000 1.0
C      1  0.5952100000000  0.4403580000000  0.4791840000000 1.0
C      1  0.4883690000000  0.5640280000000  0.4479010000000 1.0
C      1  0.4640340000000  0.5235910000000  0.4110450000000 1.0
C      1  0.4127060000000  0.4959820000000  0.5626510000000 1.0
C      1  0.5732050000000  0.5116510000000  0.4500680000000 1.0
C      1  0.4781470000000  0.4965890000000  0.5136790000000 1.0
C      1  0.4609500000000  0.4949780000000  0.4859310000000 1.0
C      1  0.4249950000000  0.5163780000000  0.4890570000000 1.0
C      1  0.5560910000000  0.4113100000000  0.4988890000000 1.0
C      1  0.4365960000000  0.4456910000000  0.4750580000000 1.0
C      1  0.4734430000000  0.4979660000000  0.6026330000000 1.0
C      1  0.4395760000000  0.5484000000000  0.4704260000000 1.0
C      1  0.4835890000000  0.5004880000000  0.5702020000000 1.0
C      1  0.4216580000000  0.5059550000000  0.4388580000000 1.0
C      1  0.5642280000000  0.4848670000000  0.4309460000000 1.0
C      1  0.4607660000000  0.4061680000000  0.5062730000000 1.0
C      1  0.4852470000000  0.5445050000000  0.3989890000000 1.0
C      1  0.4208710000000  0.5501730000000  0.5396620000000 1.0
C      1  0.4507400000000  0.4721650000000  0.4094340000000 1.0
C      1  0.5400320000000  0.4473460000000  0.5662750000000 1.0
C      1  0.5657350000000  0.4595460000000  0.4464110000000 1.0
C      1  0.5341160000000  0.5037140000000  0.4489550000000 1.0
C      1  0.5095140000000  0.4463930000000  0.5542090000000 1.0
C      1  0.5816800000000  0.5587760000000  0.4636000000000 1.0
C      1  0.4682710000000  0.5534520000000  0.4882010000000 1.0
C      1  0.4386830000000  0.4396820000000  0.5527290000000 1.0
C      1  0.3974750000000  0.4953510000000  0.5162770000000 1.0
C      1  0.5287370000000  0.5481420000000  0.4767110000000 1.0
C      1  0.5223940000000  0.5972010000000  0.4251100000000 1.0
C      1  0.5007000000000  0.4652870000000  0.5276680000000 1.0
C      1  0.5287060000000  0.5248840000000  0.5866740000000 1.0
C      1  0.4953200000000  0.5965490000000  0.4700530000000 1.0
C      1  0.5483320000000  0.5613470000000  0.4984150000000 1.0
C      1  0.4860050000000  0.5328950000000  0.4589690000000 1.0
C      1  0.5309440000000  0.4860710000000  0.5600790000000 1.0
C      1  0.4441570000000  0.5801970000000  0.4715820000000 1.0
C      1  0.5603990000000  0.5203100000000  0.5895730000000 1.0
C      1  0.5445910000000  0.5759820000000  0.4359510000000 1.0
C      1  0.5599550000000  0.4702210000000  0.5823200000000 1.0
C      1  0.4451440000000  0.5299580000000  0.5107220000000 1.0
C      1  0.4268250000000  0.4511090000000  0.5224870000000 1.0
C      1  0.4849020000000  0.4021740000000  0.4938900000000 1.0
C      1  0.4707380000000  0.4277820000000  0.5950120000000 1.0
C      1  0.5249140000000  0.4592920000000  0.4185680000000 1.0
C      1  0.5266010000000  0.5427870000000  0.5171110000000 1.0
C      1  0.5726280000000  0.4539780000000  0.5443830000000 1.0
C      1  0.5253910000000  0.4354800000000  0.5068350000000 1.0
C      1  0.4658200000000  0.4811850000000  0.4450620000000 1.0
C      1  0.5192200000000  0.5685570000000  0.4543960000000 1.0
C      1  0.4731940000000  0.5794110000000  0.5664890000000 1.0
C      1  0.5231760000000  0.4352660000000  0.4383670000000 1.0
C      1  0.5887820000000  0.5000220000000  0.5573250000000 1.0
C      1  0.4425490000000  0.4791070000000  0.5090930000000 1.0
C      1  0.5380010000000  0.4109910000000  0.5278660000000 1.0
C      1  0.4590070000000  0.5910280000000  0.5407660000000 1.0
C      1  0.4743750000000  0.4694780000000  0.3938580000000 1.0
C      1  0.4957700000000  0.4728710000000  0.5962640000000 1.0
C      1  0.5886210000000  0.5325870000000  0.4664960000000 1.0
C      1  0.5687240000000  0.5578590000000  0.5213200000000 1.0
C      1  0.5028730000000  0.4174950000000  0.5425780000000 1.0
C      1  0.5050820000000  0.5946310000000  0.5262300000000 1.0
C      1  0.5041150000000  0.5011300000000  0.4433640000000 1.0
C      1  0.5506640000000  0.5224240000000  0.4291470000000 1.0
C      1  0.4181970000000  0.5374330000000  0.4499930000000 1.0
C      1  0.5156680000000  0.4029880000000  0.5034320000000 1.0
C      1  0.4876030000000  0.4490430000000  0.5782720000000 1.0
C      1  0.4992920000000  0.5615320000000  0.5616160000000 1.0
C      1  0.5393490000000  0.4721920000000  0.4609790000000 1.0
C      1  0.4668230000000  0.5894590000000  0.4518190000000 1.0
C      1  0.5018860000000  0.4796760000000  0.4959960000000 1.0
C      1  0.5558270000000  0.5003750000000  0.5026760000000 1.0
C      1  0.5114340000000  0.5337500000000  0.4363830000000 1.0
C      1  0.5126390000000  0.5257640000000  0.4755040000000 1.0
C      1  0.4608700000000  0.4620520000000  0.4779520000000 1.0
C      1  0.5272450000000  0.4694900000000  0.5888340000000 1.0
C      1  0.4131800000000  0.4511830000000  0.4914550000000 1.0
C      1  0.5517410000000  0.4796280000000  0.5362990000000 1.0
C      1  0.5520990000000  0.5538280000000  0.4179490000000 1.0
C      1  0.5501330000000  0.4278970000000  0.4765280000000 1.0
C      1  0.4711540000000  0.5872130000000  0.4913050000000 1.0
C      1  0.4762490000000  0.5971220000000  0.5198420000000 1.0
C      1  0.4533100000000  0.4314940000000  0.5135570000000 1.0
C      1  0.5563110000000  0.4248300000000  0.5507480000000 1.0
C      1  0.5795920000000  0.5267430000000  0.5436180000000 1.0
C      1  0.5043090000000  0.5109610000000  0.5262640000000 1.0
C      1  0.4684440000000  0.5247290000000  0.5558110000000 1.0
C      1  0.4964660000000  0.5956940000000  0.4360430000000 1.0
C      1  0.5240890000000  0.5058420000000  0.4042740000000 1.0
C      1  0.4786090000000  0.4499470000000  0.5113560000000 1.0
C      1  0.5543690000000  0.4988940000000  0.4742010000000 1.0
C      1  0.4002070000000  0.4810000000000  0.4464350000000 1.0
C      1  0.4892990000000  0.4169240000000  0.4654390000000 1.0
C      1  0.5385090000000  0.5658650000000  0.5648660000000 1.0
C      1  0.5171110000000  0.5859700000000  0.5506280000000 1.0
C      1  0.4414190000000  0.5658280000000  0.5529670000000 1.0
C      1  0.5178950000000  0.4122820000000  0.4549080000000 1.0
C      1  0.5555070000000  0.5765360000000  0.4684700000000 1.0
C      1  0.5160120000000  0.5520000000000  0.5870930000000 1.0
C      1  0.5126380000000  0.5774020000000  0.5046830000000 1.0
C      1  0.5915720000000  0.5397000000000  0.5148530000000 1.0
C      1  0.5399670000000  0.4835890000000  0.4149430000000 1.0
C      1  0.5031310000000  0.4882980000000  0.5490790000000 1.0
C      1  0.4590420000000  0.5000200000000  0.5388000000000 1.0
C      1  0.4772390000000  0.5238740000000  0.6135630000000 1.0
C      1  0.4177860000000  0.5502580000000  0.5083070000000 1.0
C      1  0.3968550000000  0.4748630000000  0.4797500000000 1.0
C      1  0.4228650000000  0.4935490000000  0.4691990000000 1.0
C      1  0.5769740000000  0.4184890000000  0.5243870000000 1.0
C      1  0.5449950000000  0.5148360000000  0.5591690000000 1.0
C      1  0.4725100000000  0.5349690000000  0.5233460000000 1.0
C      1  0.4632160000000  0.5488040000000  0.5732270000000 1.0
C      1  0.4694500000000  0.4274740000000  0.4436010000000 1.0
C      1  0.4167810000000  0.5240420000000  0.5510720000000 1.0
C      1  0.5769430000000  0.4776440000000  0.5126720000000 1.0
C      1  0.5736780000000  0.4952200000000  0.5810290000000 1.0
C      1  0.5855530000000  0.4466990000000  0.5075330000000 1.0
C      1  0.5592760000000  0.5539450000000  0.5503130000000 1.0
C      1  0.4376730000000  0.5393610000000  0.4244510000000 1.0
C      1  0.5971580000000  0.5239050000000  0.4923120000000 1.0
C      1  0.4789290000000  0.4093630000000  0.5466730000000 1.0
C      1  0.4349660000000  0.4719720000000  0.5555520000000 1.0
C      1  0.4617180000000  0.4268980000000  0.5641330000000 1.0
C      1  0.4472330000000  0.5005200000000  0.4245510000000 1.0
C      1  0.5728220000000  0.4375210000000  0.4618420000000 1.0
C      1  0.5496130000000  0.5226730000000  0.5274410000000 1.0
END
