TITL C-2778437-8639-664 -0.000424353029980692 125000 -910.859496307997 0 0 155 (C1) n - 1
REM
REM in /home/nfs/bkarasulu/CARBON/AIRSS/Generating-Clusters/REBO/Only-C1/SD-CG/HFTN-CG
REM
REM
REM
REM
REM
REM ./C.cell (11c1c37f851c82e70ff6c80c92926a4b)
REM
REM compiler GCC version 9.2.1 20190827 (Red Hat 9.2.1-1)
REM options -cpp -mtune=generic -march=x86-64 -g -O0 -fpre-include=/usr/include/finclude/math-vector-fortran.h
REM seed 1264704906 1611120608 2008351824 -797407069 1934019840 2107619473 683437497 -1941182551 -14785317 -1155121989 1549937832 -1663316405 -1732595580 473529837 167473427 -48495934 -1629466051 -1624165070 990467180 1989723656 -1375194646 1233187210 -1523672630 -189477990 -1195678986 663061741 945893543 1876900379 -1660029295 -2029802039 1174768668 -681837502 -1451250204
REM
CELL 1.54180   50.00000   50.00000   50.00000   90.00000   90.00000   90.00000
LATT -1
SFAC C  
C      1  0.4806700000000  0.4786510000000  0.5005150000000 1.0
C      1  0.4356400000000  0.5154490000000  0.5203540000000 1.0
C      1  0.5280260000000  0.4199950000000  0.5433020000000 1.0
C      1  0.4316530000000  0.5651710000000  0.4803520000000 1.0
C      1  0.5957590000000  0.5380100000000  0.4842340000000 1.0
C      1  0.5002660000000  0.5356780000000  0.4701320000000 1.0
C      1  0.4968910000000  0.4088500000000  0.4901230000000 1.0
C      1  0.5261740000000  0.5437980000000  0.5043320000000 1.0
C      1  0.5537580000000  0.4194030000000  0.5220060000000 1.0
C      1  0.4889500000000  0.5910610000000  0.5331950000000 1.0
C      1  0.5401090000000  0.4745320000000  0.4555040000000 1.0
C      1  0.4174060000000  0.4823750000000  0.4570030000000 1.0
C      1  0.5203550000000  0.4862860000000  0.5736690000000 1.0
C      1  0.5292960000000  0.4294630000000  0.5732930000000 1.0
C      1  0.3927890000000  0.4649830000000  0.5069890000000 1.0
C      1  0.6000400000000  0.4869740000000  0.5223350000000 1.0
C      1  0.5646570000000  0.5141590000000  0.4333250000000 1.0
C      1  0.4038780000000  0.5234760000000  0.5240820000000 1.0
C      1  0.4249170000000  0.5456150000000  0.5658230000000 1.0
C      1  0.4765460000000  0.4391490000000  0.5190100000000 1.0
C      1  0.4072340000000  0.4757850000000  0.4852830000000 1.0
C      1  0.4398170000000  0.4316750000000  0.5329520000000 1.0
C      1  0.5735880000000  0.4308340000000  0.4175380000000 1.0
C      1  0.4638310000000  0.5440390000000  0.4240630000000 1.0
C      1  0.4506900000000  0.5283150000000  0.4516060000000 1.0
C      1  0.5636770000000  0.5276220000000  0.4627630000000 1.0
C      1  0.3944750000000  0.4980570000000  0.5404350000000 1.0
C      1  0.5145280000000  0.5147820000000  0.4909130000000 1.0
C      1  0.5110510000000  0.4971920000000  0.4403030000000 1.0
C      1  0.4513620000000  0.4458770000000  0.5618860000000 1.0
C      1  0.5264470000000  0.5920510000000  0.4558690000000 1.0
C      1  0.4668570000000  0.5764910000000  0.4493450000000 1.0
C      1  0.4173180000000  0.5516570000000  0.5366150000000 1.0
C      1  0.5931050000000  0.4707450000000  0.5436470000000 1.0
C      1  0.4636010000000  0.5159370000000  0.5370870000000 1.0
C      1  0.5410820000000  0.4851180000000  0.4940550000000 1.0
C      1  0.4594890000000  0.4306250000000  0.4230930000000 1.0
C      1  0.5115990000000  0.5431620000000  0.5813300000000 1.0
C      1  0.4497130000000  0.5181630000000  0.4129850000000 1.0
C      1  0.5163130000000  0.4314000000000  0.5067970000000 1.0
C      1  0.5388630000000  0.4654450000000  0.6025050000000 1.0
C      1  0.5189000000000  0.4624320000000  0.5054810000000 1.0
C      1  0.4521630000000  0.5618600000000  0.5718750000000 1.0
C      1  0.5650910000000  0.5009730000000  0.5097880000000 1.0
C      1  0.4012350000000  0.4721070000000  0.5334590000000 1.0
C      1  0.4491520000000  0.4684730000000  0.4161400000000 1.0
C      1  0.4955830000000  0.5456280000000  0.5201690000000 1.0
C      1  0.5147140000000  0.5747830000000  0.4368800000000 1.0
C      1  0.5721240000000  0.4824920000000  0.4339000000000 1.0
C      1  0.5207380000000  0.5051380000000  0.5385220000000 1.0
C      1  0.4538070000000  0.4695740000000  0.4696390000000 1.0
C      1  0.4785090000000  0.4795690000000  0.5986180000000 1.0
C      1  0.4358300000000  0.5782710000000  0.5290990000000 1.0
C      1  0.5599940000000  0.5465730000000  0.5483040000000 1.0
C      1  0.5687110000000  0.4484120000000  0.4364190000000 1.0
C      1  0.5512710000000  0.4745370000000  0.5255490000000 1.0
C      1  0.5176200000000  0.5437420000000  0.4449270000000 1.0
C      1  0.4497830000000  0.4670460000000  0.5853420000000 1.0
C      1  0.5704700000000  0.5009360000000  0.5874370000000 1.0
C      1  0.4975620000000  0.4583660000000  0.3998150000000 1.0
C      1  0.5136140000000  0.4489480000000  0.5426200000000 1.0
C      1  0.5472670000000  0.5079840000000  0.3879500000000 1.0
C      1  0.5902020000000  0.5152460000000  0.5278960000000 1.0
C      1  0.5246190000000  0.5777080000000  0.4999270000000 1.0
C      1  0.5154790000000  0.5924560000000  0.5431080000000 1.0
C      1  0.5172910000000  0.5774040000000  0.5693020000000 1.0
C      1  0.5253650000000  0.5026570000000  0.6011690000000 1.0
C      1  0.5241740000000  0.4675380000000  0.4024940000000 1.0
C      1  0.5075300000000  0.4936630000000  0.5134770000000 1.0
C      1  0.5560510000000  0.5489220000000  0.4882910000000 1.0
C      1  0.5840320000000  0.5546940000000  0.5051410000000 1.0
C      1  0.4454690000000  0.4835680000000  0.5228110000000 1.0
C      1  0.4791340000000  0.4856670000000  0.4613970000000 1.0
C      1  0.5382720000000  0.5915260000000  0.5249860000000 1.0
C      1  0.4980820000000  0.5421470000000  0.5500430000000 1.0
C      1  0.5365360000000  0.4117490000000  0.4870130000000 1.0
C      1  0.4883690000000  0.4460050000000  0.4295320000000 1.0
C      1  0.5522270000000  0.5257710000000  0.4103120000000 1.0
C      1  0.4404380000000  0.4962500000000  0.5763170000000 1.0
C      1  0.4865270000000  0.4795070000000  0.4317810000000 1.0
C      1  0.4640970000000  0.4945300000000  0.4137350000000 1.0
C      1  0.4204510000000  0.5125760000000  0.4524290000000 1.0
C      1  0.4629480000000  0.5441040000000  0.5096280000000 1.0
C      1  0.4301110000000  0.4621930000000  0.5401170000000 1.0
C      1  0.4995280000000  0.5104480000000  0.5617390000000 1.0
C      1  0.4889580000000  0.4569990000000  0.5353130000000 1.0
C      1  0.5844350000000  0.5427480000000  0.5305970000000 1.0
C      1  0.5349890000000  0.5493170000000  0.4078760000000 1.0
C      1  0.5030760000000  0.5200620000000  0.3989490000000 1.0
C      1  0.4456690000000  0.5593140000000  0.4567050000000 1.0
C      1  0.5653090000000  0.4483180000000  0.5188520000000 1.0
C      1  0.3932540000000  0.5277600000000  0.4953020000000 1.0
C      1  0.4735630000000  0.4938630000000  0.5686520000000 1.0
C      1  0.5203850000000  0.5067260000000  0.3806720000000 1.0
C      1  0.5848040000000  0.4496350000000  0.4966770000000 1.0
C      1  0.4659250000000  0.4493970000000  0.3971940000000 1.0
C      1  0.5261150000000  0.4526460000000  0.4736220000000 1.0
C      1  0.4848860000000  0.5680670000000  0.5656590000000 1.0
C      1  0.5258890000000  0.3998920000000  0.5170920000000 1.0
C      1  0.5132720000000  0.5208650000000  0.4256760000000 1.0
C      1  0.5547780000000  0.5823700000000  0.4645240000000 1.0
C      1  0.4672680000000  0.3964470000000  0.4997610000000 1.0
C      1  0.5055130000000  0.4652720000000  0.5960440000000 1.0
C      1  0.5622320000000  0.5288950000000  0.5760140000000 1.0
C      1  0.4744980000000  0.5149550000000  0.4699290000000 1.0
C      1  0.5081810000000  0.4272330000000  0.4425420000000 1.0
C      1  0.4616370000000  0.5311650000000  0.5615020000000 1.0
C      1  0.5098060000000  0.5928660000000  0.4785380000000 1.0
C      1  0.5412730000000  0.4733520000000  0.4222180000000 1.0
C      1  0.4437650000000  0.4213430000000  0.4441540000000 1.0
C      1  0.4826090000000  0.5416130000000  0.3965720000000 1.0
C      1  0.4813450000000  0.4300960000000  0.4720650000000 1.0
C      1  0.4596250000000  0.5833190000000  0.5482590000000 1.0
C      1  0.5933530000000  0.4794400000000  0.4915820000000 1.0
C      1  0.4802850000000  0.5121690000000  0.6035150000000 1.0
C      1  0.4316200000000  0.5457600000000  0.5061830000000 1.0
C      1  0.5508260000000  0.4547140000000  0.5754550000000 1.0
C      1  0.5705920000000  0.5723030000000  0.4362560000000 1.0
C      1  0.5678770000000  0.4206230000000  0.4905840000000 1.0
C      1  0.4531170000000  0.4229640000000  0.4704690000000 1.0
C      1  0.5268260000000  0.4994380000000  0.4673690000000 1.0
C      1  0.5087930000000  0.5595360000000  0.4012210000000 1.0
C      1  0.4430200000000  0.5836150000000  0.5008540000000 1.0
C      1  0.5161030000000  0.4110980000000  0.4625530000000 1.0
C      1  0.5063530000000  0.5228510000000  0.6016770000000 1.0
C      1  0.4254310000000  0.5194090000000  0.5739450000000 1.0
C      1  0.5723680000000  0.4730120000000  0.4668030000000 1.0
C      1  0.5525620000000  0.4922940000000  0.6085760000000 1.0
C      1  0.5417700000000  0.5555150000000  0.5754030000000 1.0
C      1  0.4445290000000  0.4217700000000  0.5028050000000 1.0
C      1  0.4355350000000  0.4831200000000  0.4924760000000 1.0
C      1  0.4735970000000  0.5768510000000  0.5093520000000 1.0
C      1  0.4824050000000  0.5843500000000  0.4714000000000 1.0
C      1  0.4766380000000  0.4118510000000  0.5244810000000 1.0
C      1  0.5022630000000  0.4375810000000  0.5825690000000 1.0
C      1  0.4925720000000  0.5581460000000  0.4880960000000 1.0
C      1  0.5396940000000  0.5300050000000  0.5305630000000 1.0
C      1  0.4927580000000  0.4582300000000  0.4757940000000 1.0
C      1  0.4732300000000  0.4806340000000  0.5397220000000 1.0
C      1  0.5570800000000  0.5821970000000  0.4976850000000 1.0
C      1  0.4610720000000  0.5274580000000  0.5902120000000 1.0
C      1  0.4009300000000  0.5263550000000  0.4719320000000 1.0
C      1  0.5816350000000  0.5090860000000  0.4818690000000 1.0
C      1  0.4236200000000  0.5174070000000  0.4212510000000 1.0
C      1  0.5703570000000  0.4793330000000  0.5631230000000 1.0
C      1  0.4784520000000  0.4291880000000  0.5693380000000 1.0
C      1  0.4717180000000  0.5115020000000  0.5038410000000 1.0
C      1  0.4368870000000  0.4649840000000  0.4420970000000 1.0
C      1  0.5520150000000  0.5060770000000  0.5524460000000 1.0
C      1  0.4851750000000  0.5702880000000  0.4238070000000 1.0
C      1  0.5481550000000  0.5522280000000  0.4494830000000 1.0
C      1  0.4808030000000  0.4065060000000  0.5518730000000 1.0
C      1  0.5340430000000  0.4695020000000  0.5502270000000 1.0
C      1  0.5580540000000  0.4417480000000  0.4680660000000 1.0
C      1  0.4593400000000  0.4520980000000  0.4968640000000 1.0
END
