TITL C-2778437-8639-61 -0.00237392675804879 125000 -345.515869074615 0 0 60 (C1) n - 1
REM
REM in /home/nfs/bkarasulu/CARBON/AIRSS/Generating-Clusters/REBO/Only-C1/SD-CG/HFTN-CG
REM
REM
REM
REM
REM
REM ./C.cell (11c1c37f851c82e70ff6c80c92926a4b)
REM
REM compiler GCC version 9.2.1 20190827 (Red Hat 9.2.1-1)
REM options -cpp -mtune=generic -march=x86-64 -g -O0 -fpre-include=/usr/include/finclude/math-vector-fortran.h
REM seed -1522540051 686315920 766701725 -748492631 507778464 1977311036 360878318 2146938243 -92326578 428267632 1353099735 -309872364 -1822992185 -480643873 425122538 412360507 -61211550 -956802206 1342540818 -478445202 -788386553 -475457598 946658376 -1942468305 -532221897 -1629124119 1535349853 224141271 544048315 -1239871114 -856344284 513355427 1109932283
REM
CELL 1.54180   50.00000   50.00000   50.00000   90.00000   90.00000   90.00000
LATT -1
SFAC C  
C      1  0.4558710000000  0.4685730000000  0.4737180000000 1.0
C      1  0.4686690000000  0.5365610000000  0.5667510000000 1.0
C      1  0.5582570000000  0.5454030000000  0.5013440000000 1.0
C      1  0.4942750000000  0.5229120000000  0.4294670000000 1.0
C      1  0.5096800000000  0.4399890000000  0.4296790000000 1.0
C      1  0.4502240000000  0.5557240000000  0.4619400000000 1.0
C      1  0.5233980000000  0.5240540000000  0.5180870000000 1.0
C      1  0.5254960000000  0.5152390000000  0.4386270000000 1.0
C      1  0.5242210000000  0.5049700000000  0.4710340000000 1.0
C      1  0.4770700000000  0.4581790000000  0.4976540000000 1.0
C      1  0.4991740000000  0.4639520000000  0.5198990000000 1.0
C      1  0.5019380000000  0.4826540000000  0.4580470000000 1.0
C      1  0.5332540000000  0.5591560000000  0.5019890000000 1.0
C      1  0.5537440000000  0.4995020000000  0.4870510000000 1.0
C      1  0.4542900000000  0.4363190000000  0.4731720000000 1.0
C      1  0.5631030000000  0.5181110000000  0.5074880000000 1.0
C      1  0.4739720000000  0.4685070000000  0.5410080000000 1.0
C      1  0.5221480000000  0.4764570000000  0.5070440000000 1.0
C      1  0.4261480000000  0.5624530000000  0.4502420000000 1.0
C      1  0.4730950000000  0.5447620000000  0.4451860000000 1.0
C      1  0.4321010000000  0.4830390000000  0.4882190000000 1.0
C      1  0.4938820000000  0.4760130000000  0.5676830000000 1.0
C      1  0.5094890000000  0.5048050000000  0.5612310000000 1.0
C      1  0.4415760000000  0.4964390000000  0.5108590000000 1.0
C      1  0.5318630000000  0.4984820000000  0.5224590000000 1.0
C      1  0.4844680000000  0.5216690000000  0.5112760000000 1.0
C      1  0.5521900000000  0.5158760000000  0.5830480000000 1.0
C      1  0.4549590000000  0.5548190000000  0.4900350000000 1.0
C      1  0.4394670000000  0.5439350000000  0.5120600000000 1.0
C      1  0.4817020000000  0.5590930000000  0.4966970000000 1.0
C      1  0.5138150000000  0.4279050000000  0.5260290000000 1.0
C      1  0.4525020000000  0.5153310000000  0.5553130000000 1.0
C      1  0.5355190000000  0.4853690000000  0.4367980000000 1.0
C      1  0.5579960000000  0.4683180000000  0.5242330000000 1.0
C      1  0.4717210000000  0.5589090000000  0.5497750000000 1.0
C      1  0.5082740000000  0.5571620000000  0.4799800000000 1.0
C      1  0.4398900000000  0.5196240000000  0.5281660000000 1.0
C      1  0.5246820000000  0.5474880000000  0.4358910000000 1.0
C      1  0.4897280000000  0.4991840000000  0.5356100000000 1.0
C      1  0.5404410000000  0.5068370000000  0.5608600000000 1.0
C      1  0.5504860000000  0.4737070000000  0.4567820000000 1.0
C      1  0.5185380000000  0.4334380000000  0.4768490000000 1.0
C      1  0.5147580000000  0.4242260000000  0.4516120000000 1.0
C      1  0.5086470000000  0.4515290000000  0.5503060000000 1.0
C      1  0.5195430000000  0.5529900000000  0.5288750000000 1.0
C      1  0.5115010000000  0.4679620000000  0.4322020000000 1.0
C      1  0.4974840000000  0.4303460000000  0.4986980000000 1.0
C      1  0.5097370000000  0.5259040000000  0.4895800000000 1.0
C      1  0.4686400000000  0.5110970000000  0.4441610000000 1.0
C      1  0.4936770000000  0.5270060000000  0.5778170000000 1.0
C      1  0.4694780000000  0.4207820000000  0.4858460000000 1.0
C      1  0.5598330000000  0.4719810000000  0.4954100000000 1.0
C      1  0.4885020000000  0.5523580000000  0.5256730000000 1.0
C      1  0.4717530000000  0.4903250000000  0.5079940000000 1.0
C      1  0.5029690000000  0.5577800000000  0.4506300000000 1.0
C      1  0.4737700000000  0.4877560000000  0.4579130000000 1.0
C      1  0.4625640000000  0.4897120000000  0.5633410000000 1.0
C      1  0.5381440000000  0.4506170000000  0.5331100000000 1.0
C      1  0.5607470000000  0.4990260000000  0.5359190000000 1.0
C      1  0.5349390000000  0.4576850000000  0.4816330000000 1.0
END
