TITL C-2778437-8639-1112 0.000946447720161332 125000 -602.718384618037 0 0 108 (C1) n - 1
REM
REM in /home/nfs/bkarasulu/CARBON/AIRSS/Generating-Clusters/REBO/Only-C1/SD-CG/HFTN-CG
REM
REM
REM
REM
REM
REM ./C.cell (11c1c37f851c82e70ff6c80c92926a4b)
REM
REM compiler GCC version 9.2.1 20190827 (Red Hat 9.2.1-1)
REM options -cpp -mtune=generic -march=x86-64 -g -O0 -fpre-include=/usr/include/finclude/math-vector-fortran.h
REM seed -1020263191 -146178604 -237396262 -1697260823 856306760 -1826050284 1878529355 -1927905507 -1785871266 -689601591 1170572260 -170426775 -638231570 93765778 1075871736 -1181041413 -101016605 -1409257079 564729500 -526548439 1418713945 554375091 -1323107991 -525938433 -1076765942 -1314790996 146034111 543303414 -753708740 491021269 570437841 -1594235333 1106242089
REM
CELL 1.54180   50.00000   50.00000   50.00000   90.00000   90.00000   90.00000
LATT -1
SFAC C  
C      1  0.4050040000000  0.5307020000000  0.4614010000000 1.0
C      1  0.4933590000000  0.4936120000000  0.5515780000000 1.0
C      1  0.5396060000000  0.5180330000000  0.5927460000000 1.0
C      1  0.5549320000000  0.4431290000000  0.5375270000000 1.0
C      1  0.5415990000000  0.5868720000000  0.4866290000000 1.0
C      1  0.4265920000000  0.5497470000000  0.4531170000000 1.0
C      1  0.5339140000000  0.5474940000000  0.5765130000000 1.0
C      1  0.5589750000000  0.5631270000000  0.4753280000000 1.0
C      1  0.4855820000000  0.5252530000000  0.5412270000000 1.0
C      1  0.5078920000000  0.5825370000000  0.5287400000000 1.0
C      1  0.5162720000000  0.5019510000000  0.4160720000000 1.0
C      1  0.4688730000000  0.4434040000000  0.5270600000000 1.0
C      1  0.5127640000000  0.5100270000000  0.6075030000000 1.0
C      1  0.4893660000000  0.4314310000000  0.5615930000000 1.0
C      1  0.4527020000000  0.5621050000000  0.5305300000000 1.0
C      1  0.4425640000000  0.5417040000000  0.5053500000000 1.0
C      1  0.4396270000000  0.4394390000000  0.4567460000000 1.0
C      1  0.5408390000000  0.5318930000000  0.4527640000000 1.0
C      1  0.5415110000000  0.5084500000000  0.5410660000000 1.0
C      1  0.4372000000000  0.4712670000000  0.4567430000000 1.0
C      1  0.5167190000000  0.4397220000000  0.4432640000000 1.0
C      1  0.5582210000000  0.4680050000000  0.4536600000000 1.0
C      1  0.4397890000000  0.4457890000000  0.5093210000000 1.0
C      1  0.4617540000000  0.5774550000000  0.4590060000000 1.0
C      1  0.5166220000000  0.5142910000000  0.5605620000000 1.0
C      1  0.5485110000000  0.4976600000000  0.5730120000000 1.0
C      1  0.4759910000000  0.4701530000000  0.4214060000000 1.0
C      1  0.4695110000000  0.4553620000000  0.4958760000000 1.0
C      1  0.4119060000000  0.4793830000000  0.4462720000000 1.0
C      1  0.5585870000000  0.5216030000000  0.5074360000000 1.0
C      1  0.5098190000000  0.4488050000000  0.5786210000000 1.0
C      1  0.4754860000000  0.5802180000000  0.5184190000000 1.0
C      1  0.5300300000000  0.5406900000000  0.5241440000000 1.0
C      1  0.5579520000000  0.5567070000000  0.5542700000000 1.0
C      1  0.4778060000000  0.4138390000000  0.4823120000000 1.0
C      1  0.5477500000000  0.4210050000000  0.4799940000000 1.0
C      1  0.4021540000000  0.4918260000000  0.4946060000000 1.0
C      1  0.5002600000000  0.4558760000000  0.5213540000000 1.0
C      1  0.5445910000000  0.4981820000000  0.4759860000000 1.0
C      1  0.4867540000000  0.5275350000000  0.4687190000000 1.0
C      1  0.4143170000000  0.5080590000000  0.4759320000000 1.0
C      1  0.4951030000000  0.4847300000000  0.5040390000000 1.0
C      1  0.5016680000000  0.4343270000000  0.4852660000000 1.0
C      1  0.4392490000000  0.5564360000000  0.4292990000000 1.0
C      1  0.5523330000000  0.4720370000000  0.5528070000000 1.0
C      1  0.4978950000000  0.4054190000000  0.5085650000000 1.0
C      1  0.5668840000000  0.5281490000000  0.5399220000000 1.0
C      1  0.5255190000000  0.5467220000000  0.4289640000000 1.0
C      1  0.5029880000000  0.4237770000000  0.5324920000000 1.0
C      1  0.4390860000000  0.5064800000000  0.5454480000000 1.0
C      1  0.4852530000000  0.5058050000000  0.5893840000000 1.0
C      1  0.4881940000000  0.5163400000000  0.5090090000000 1.0
C      1  0.4662770000000  0.4774550000000  0.5476690000000 1.0
C      1  0.4577460000000  0.4803570000000  0.5168970000000 1.0
C      1  0.4191130000000  0.4706510000000  0.5140040000000 1.0
C      1  0.5254570000000  0.4669860000000  0.4571310000000 1.0
C      1  0.4609600000000  0.5523130000000  0.4118150000000 1.0
C      1  0.5222680000000  0.4094920000000  0.4853080000000 1.0
C      1  0.5702550000000  0.5004040000000  0.4543280000000 1.0
C      1  0.5074420000000  0.5297640000000  0.4135140000000 1.0
C      1  0.4762090000000  0.4578590000000  0.4654040000000 1.0
C      1  0.4782380000000  0.5531010000000  0.4735840000000 1.0
C      1  0.5133360000000  0.5087560000000  0.4789230000000 1.0
C      1  0.5080880000000  0.5422300000000  0.4988370000000 1.0
C      1  0.5828350000000  0.4442380000000  0.5182850000000 1.0
C      1  0.5866650000000  0.5042030000000  0.5080310000000 1.0
C      1  0.5389330000000  0.5385510000000  0.4854840000000 1.0
C      1  0.4606390000000  0.4841380000000  0.4396110000000 1.0
C      1  0.5813580000000  0.5549740000000  0.4970450000000 1.0
C      1  0.4241930000000  0.4798840000000  0.5425670000000 1.0
C      1  0.4597660000000  0.5005990000000  0.5719410000000 1.0
C      1  0.5483250000000  0.4352480000000  0.4547280000000 1.0
C      1  0.5042430000000  0.5337730000000  0.5841770000000 1.0
C      1  0.4615310000000  0.4214300000000  0.4586440000000 1.0
C      1  0.4303090000000  0.5368020000000  0.5366660000000 1.0
C      1  0.4394160000000  0.4795200000000  0.4881620000000 1.0
C      1  0.4921830000000  0.5524940000000  0.5255400000000 1.0
C      1  0.4482540000000  0.5062520000000  0.4726410000000 1.0
C      1  0.5542190000000  0.4367500000000  0.5043270000000 1.0
C      1  0.5256060000000  0.5623330000000  0.5470020000000 1.0
C      1  0.5316820000000  0.5022730000000  0.4441700000000 1.0
C      1  0.4326880000000  0.4599860000000  0.5605680000000 1.0
C      1  0.4995940000000  0.4797300000000  0.4107940000000 1.0
C      1  0.5188640000000  0.4745070000000  0.5591730000000 1.0
C      1  0.5544900000000  0.4813110000000  0.5017520000000 1.0
C      1  0.4509150000000  0.5318590000000  0.5739080000000 1.0
C      1  0.4415990000000  0.5372590000000  0.4761240000000 1.0
C      1  0.5934100000000  0.5283530000000  0.4891150000000 1.0
C      1  0.5257300000000  0.4424400000000  0.5490820000000 1.0
C      1  0.5784460000000  0.4772820000000  0.4779030000000 1.0
C      1  0.5705320000000  0.4833100000000  0.5300500000000 1.0
C      1  0.5260190000000  0.5923800000000  0.5050290000000 1.0
C      1  0.5273430000000  0.5093580000000  0.5100090000000 1.0
C      1  0.5113580000000  0.4626540000000  0.4837570000000 1.0
C      1  0.4885840000000  0.4359980000000  0.4475630000000 1.0
C      1  0.5723430000000  0.5329620000000  0.4643020000000 1.0
C      1  0.4727060000000  0.5814480000000  0.4888510000000 1.0
C      1  0.4619730000000  0.4464020000000  0.5579780000000 1.0
C      1  0.4730900000000  0.5138100000000  0.4425330000000 1.0
C      1  0.5715060000000  0.5560680000000  0.5230680000000 1.0
C      1  0.4791920000000  0.5322680000000  0.4190330000000 1.0
C      1  0.5316320000000  0.4609030000000  0.5086870000000 1.0
C      1  0.4648080000000  0.5680510000000  0.3899500000000 1.0
C      1  0.4992470000000  0.4942350000000  0.4513780000000 1.0
C      1  0.4560130000000  0.5142410000000  0.5168320000000 1.0
C      1  0.4650880000000  0.5452470000000  0.5540310000000 1.0
C      1  0.5928320000000  0.4713070000000  0.5066530000000 1.0
C      1  0.4765760000000  0.4892440000000  0.4758410000000 1.0
END
