TITL C-2778435-5768-491 -0.00151463578247448 125000 -846.309811808999 0 0 145 (C1) n - 1
REM
REM in /home/nfs/bkarasulu/CARBON/AIRSS/Generating-Clusters/REBO/Only-C1/SD-CG/HFTN-CG
REM
REM
REM
REM
REM
REM ./C.cell (11c1c37f851c82e70ff6c80c92926a4b)
REM
REM compiler GCC version 9.2.1 20190827 (Red Hat 9.2.1-1)
REM options -cpp -mtune=generic -march=x86-64 -g -O0 -fpre-include=/usr/include/finclude/math-vector-fortran.h
REM seed 1718930706 -1117860310 2006938612 1767589598 2014378293 1623425655 -1458666043 -1883281093 752305216 413144043 -1199919375 -2034679443 -383023679 337854149 -2090236074 -502159318 -2046536846 2141868793 -1014853145 -194593761 653794426 -681047039 -2083619845 1152518410 758609791 -1558492705 -424228199 -1205447941 -2125597996 964157566 -1437616596 230722242 1969728435
REM
CELL 1.54180   50.00000   50.00000   50.00000   90.00000   90.00000   90.00000
LATT -1
SFAC C  
C      1  0.5556850000000  0.5205440000000  0.4966080000000 1.0
C      1  0.5212260000000  0.4380310000000  0.4977160000000 1.0
C      1  0.5646640000000  0.4201780000000  0.4817300000000 1.0
C      1  0.5449960000000  0.5251970000000  0.5451610000000 1.0
C      1  0.5357980000000  0.5491620000000  0.5755560000000 1.0
C      1  0.5237530000000  0.5594990000000  0.4957060000000 1.0
C      1  0.4570020000000  0.5421280000000  0.5460660000000 1.0
C      1  0.5050530000000  0.5519150000000  0.4306440000000 1.0
C      1  0.5595930000000  0.5074550000000  0.5855850000000 1.0
C      1  0.4636880000000  0.5102260000000  0.5572210000000 1.0
C      1  0.4661010000000  0.4635800000000  0.5837000000000 1.0
C      1  0.5618190000000  0.5761370000000  0.4512620000000 1.0
C      1  0.4991300000000  0.5174720000000  0.4887720000000 1.0
C      1  0.4078230000000  0.4944740000000  0.4574600000000 1.0
C      1  0.4912870000000  0.4757820000000  0.4216860000000 1.0
C      1  0.4206110000000  0.5703090000000  0.5117710000000 1.0
C      1  0.3799760000000  0.4854310000000  0.5275720000000 1.0
C      1  0.4497160000000  0.4708800000000  0.4398440000000 1.0
C      1  0.5354620000000  0.4643940000000  0.4077730000000 1.0
C      1  0.5077450000000  0.6056610000000  0.4814800000000 1.0
C      1  0.5756070000000  0.4591040000000  0.4996450000000 1.0
C      1  0.5122990000000  0.4071600000000  0.4931540000000 1.0
C      1  0.4623390000000  0.3980250000000  0.4877840000000 1.0
C      1  0.4188660000000  0.4736840000000  0.4380130000000 1.0
C      1  0.5704230000000  0.5614730000000  0.4728140000000 1.0
C      1  0.5939510000000  0.4675550000000  0.5201790000000 1.0
C      1  0.4385030000000  0.4352080000000  0.4602930000000 1.0
C      1  0.4783090000000  0.4141800000000  0.5402790000000 1.0
C      1  0.5419270000000  0.5755130000000  0.5113690000000 1.0
C      1  0.5146810000000  0.4660390000000  0.6033080000000 1.0
C      1  0.5290790000000  0.4296200000000  0.4263630000000 1.0
C      1  0.4696410000000  0.4550270000000  0.4983190000000 1.0
C      1  0.5774420000000  0.5195720000000  0.5675560000000 1.0
C      1  0.4080170000000  0.5495850000000  0.5273160000000 1.0
C      1  0.4805450000000  0.4924170000000  0.5045760000000 1.0
C      1  0.4807870000000  0.4926190000000  0.4035430000000 1.0
C      1  0.4485760000000  0.4239350000000  0.5354070000000 1.0
C      1  0.5048540000000  0.5508690000000  0.5894870000000 1.0
C      1  0.4109600000000  0.5236330000000  0.5160110000000 1.0
C      1  0.5047370000000  0.5424440000000  0.5076880000000 1.0
C      1  0.5634540000000  0.4104330000000  0.5085600000000 1.0
C      1  0.4714020000000  0.5206930000000  0.4383020000000 1.0
C      1  0.5625380000000  0.4275090000000  0.5380490000000 1.0
C      1  0.5697680000000  0.4743790000000  0.4779260000000 1.0
C      1  0.4589470000000  0.5458240000000  0.5122300000000 1.0
C      1  0.4646620000000  0.4400730000000  0.4389540000000 1.0
C      1  0.5814010000000  0.5660240000000  0.5459990000000 1.0
C      1  0.4835060000000  0.4048200000000  0.5035870000000 1.0
C      1  0.5572280000000  0.4471540000000  0.4183990000000 1.0
C      1  0.5391270000000  0.4768640000000  0.4726050000000 1.0
C      1  0.5541880000000  0.5098610000000  0.5214750000000 1.0
C      1  0.5188210000000  0.4910040000000  0.4948750000000 1.0
C      1  0.4758480000000  0.4855550000000  0.4733450000000 1.0
C      1  0.4137250000000  0.5427210000000  0.4681420000000 1.0
C      1  0.4863350000000  0.5706250000000  0.4602340000000 1.0
C      1  0.5170800000000  0.5656400000000  0.5564380000000 1.0
C      1  0.5030030000000  0.4626450000000  0.4914500000000 1.0
C      1  0.4345640000000  0.5272220000000  0.5638910000000 1.0
C      1  0.5428730000000  0.4450540000000  0.4771080000000 1.0
C      1  0.5454570000000  0.4209590000000  0.4536310000000 1.0
C      1  0.4995250000000  0.5375430000000  0.4035860000000 1.0
C      1  0.5262990000000  0.5005360000000  0.4538890000000 1.0
C      1  0.4198700000000  0.4968780000000  0.5685220000000 1.0
C      1  0.5805860000000  0.4556320000000  0.5443570000000 1.0
C      1  0.4937780000000  0.5193890000000  0.5939920000000 1.0
C      1  0.4140940000000  0.5663620000000  0.4836250000000 1.0
C      1  0.4942770000000  0.5509310000000  0.5355250000000 1.0
C      1  0.5130830000000  0.4187520000000  0.4611210000000 1.0
C      1  0.5866190000000  0.4921830000000  0.4638210000000 1.0
C      1  0.5019260000000  0.4279620000000  0.5604350000000 1.0
C      1  0.4663650000000  0.5151540000000  0.5181290000000 1.0
C      1  0.4999260000000  0.5843610000000  0.4321710000000 1.0
C      1  0.5165060000000  0.5104340000000  0.4059810000000 1.0
C      1  0.4456530000000  0.5831240000000  0.5178110000000 1.0
C      1  0.4687820000000  0.4264770000000  0.5695880000000 1.0
C      1  0.5999750000000  0.4970090000000  0.5166170000000 1.0
C      1  0.5692750000000  0.5303380000000  0.4701620000000 1.0
C      1  0.4268760000000  0.4715560000000  0.5494440000000 1.0
C      1  0.5637150000000  0.5475630000000  0.5623520000000 1.0
C      1  0.4438340000000  0.4188050000000  0.4822860000000 1.0
C      1  0.5065620000000  0.4511030000000  0.4127230000000 1.0
C      1  0.5275880000000  0.5646710000000  0.4683570000000 1.0
C      1  0.4950880000000  0.4258660000000  0.4324650000000 1.0
C      1  0.4853320000000  0.4662600000000  0.5263100000000 1.0
C      1  0.4885670000000  0.5903620000000  0.4949160000000 1.0
C      1  0.5493400000000  0.5229050000000  0.4477500000000 1.0
C      1  0.4750220000000  0.5202930000000  0.3986260000000 1.0
C      1  0.5615360000000  0.4759650000000  0.5572920000000 1.0
C      1  0.5241310000000  0.5936950000000  0.4625280000000 1.0
C      1  0.5510850000000  0.4510030000000  0.5178280000000 1.0
C      1  0.4616580000000  0.5936870000000  0.4657360000000 1.0
C      1  0.5392550000000  0.4930480000000  0.4084630000000 1.0
C      1  0.5244780000000  0.4607810000000  0.6265550000000 1.0
C      1  0.4503520000000  0.5284060000000  0.4145480000000 1.0
C      1  0.4473820000000  0.4369350000000  0.5055270000000 1.0
C      1  0.4968080000000  0.5318070000000  0.5623670000000 1.0
C      1  0.4474690000000  0.4396970000000  0.5926310000000 1.0
C      1  0.5574930000000  0.4826780000000  0.5262560000000 1.0
C      1  0.4092620000000  0.5213520000000  0.4471110000000 1.0
C      1  0.5006460000000  0.4787340000000  0.4522460000000 1.0
C      1  0.5816450000000  0.4878350000000  0.4355990000000 1.0
C      1  0.5352550000000  0.5477880000000  0.4420030000000 1.0
C      1  0.4383190000000  0.5226120000000  0.4744060000000 1.0
C      1  0.5350150000000  0.4956270000000  0.5563530000000 1.0
C      1  0.5337690000000  0.5808370000000  0.4325470000000 1.0
C      1  0.4953620000000  0.4540810000000  0.5807770000000 1.0
C      1  0.5967430000000  0.5311880000000  0.5162200000000 1.0
C      1  0.5867860000000  0.5591990000000  0.5198900000000 1.0
C      1  0.5807550000000  0.4605040000000  0.4262270000000 1.0
C      1  0.4214070000000  0.4578360000000  0.4648970000000 1.0
C      1  0.4966390000000  0.5895780000000  0.5435770000000 1.0
C      1  0.4739740000000  0.6026200000000  0.4401880000000 1.0
C      1  0.4921210000000  0.5102680000000  0.5383730000000 1.0
C      1  0.5291250000000  0.5868420000000  0.5338890000000 1.0
C      1  0.5275930000000  0.5186070000000  0.5881310000000 1.0
C      1  0.5241830000000  0.4622870000000  0.5343400000000 1.0
C      1  0.5933840000000  0.5133900000000  0.5450510000000 1.0
C      1  0.4576740000000  0.5962610000000  0.4957380000000 1.0
C      1  0.4981750000000  0.5385290000000  0.4617690000000 1.0
C      1  0.4214300000000  0.4411200000000  0.5242580000000 1.0
C      1  0.5149400000000  0.4886770000000  0.5801380000000 1.0
C      1  0.4665990000000  0.5085100000000  0.6013000000000 1.0
C      1  0.4954620000000  0.4340460000000  0.5195040000000 1.0
C      1  0.4379960000000  0.5215350000000  0.5042230000000 1.0
C      1  0.5344090000000  0.4071720000000  0.5187230000000 1.0
C      1  0.3942130000000  0.5029830000000  0.5076980000000 1.0
C      1  0.4233730000000  0.5262980000000  0.4224130000000 1.0
C      1  0.4996850000000  0.4724920000000  0.5543600000000 1.0
C      1  0.4558920000000  0.4813030000000  0.5639760000000 1.0
C      1  0.5938290000000  0.5136520000000  0.4871850000000 1.0
C      1  0.4405600000000  0.4444330000000  0.5596490000000 1.0
C      1  0.4683150000000  0.5734050000000  0.5388780000000 1.0
C      1  0.4549280000000  0.5000730000000  0.4566400000000 1.0
C      1  0.4734960000000  0.4534340000000  0.4666140000000 1.0
C      1  0.5012030000000  0.5124140000000  0.4340830000000 1.0
C      1  0.4090030000000  0.4687400000000  0.5208610000000 1.0
C      1  0.5059750000000  0.4490550000000  0.4625340000000 1.0
C      1  0.4420240000000  0.5076380000000  0.5906870000000 1.0
C      1  0.5175660000000  0.4949590000000  0.5270590000000 1.0
C      1  0.4086880000000  0.4794330000000  0.4881510000000 1.0
C      1  0.5599060000000  0.5034350000000  0.4258010000000 1.0
C      1  0.4647820000000  0.5376130000000  0.4659500000000 1.0
C      1  0.4734800000000  0.5600330000000  0.4900240000000 1.0
C      1  0.5287080000000  0.4299310000000  0.5433410000000 1.0
C      1  0.5689940000000  0.5703200000000  0.5007040000000 1.0
END
