TITL C-2778425-5191-690 -0.00441152976453487 125000 -302.813689926079 0 0 55 (C1) n - 1
REM
REM in /home/nfs/bkarasulu/CARBON/AIRSS/Generating-Clusters/REBO/Only-C1/SD-CG/HFTN-CG
REM
REM
REM
REM
REM
REM ./C.cell (11c1c37f851c82e70ff6c80c92926a4b)
REM
REM compiler GCC version 9.2.1 20190827 (Red Hat 9.2.1-1)
REM options -cpp -mtune=generic -march=x86-64 -g -O0 -fpre-include=/usr/include/finclude/math-vector-fortran.h
REM seed -809453446 2116822035 736029385 -347844888 -1879521743 1102389623 -1238599985 -321197871 -1040134296 604256680 1835778524 -1779665810 426392635 -1821186540 -349979949 321351584 809583951 1599081514 -1006629893 76641049 -575951830 2106803064 1274681959 844562240 -528498319 345264910 1474713298 1243413762 -304716396 -2067721556 1798516704 -49469223 -1895721249
REM
CELL 1.54180   50.00000   50.00000   50.00000   90.00000   90.00000   90.00000
LATT -1
SFAC C  
C      1  0.4934990000000  0.5418220000000  0.5621800000000 1.0
C      1  0.4562250000000  0.4044040000000  0.5170210000000 1.0
C      1  0.4224770000000  0.5078130000000  0.5006840000000 1.0
C      1  0.4722890000000  0.5014150000000  0.5170250000000 1.0
C      1  0.4295380000000  0.4773240000000  0.4693920000000 1.0
C      1  0.5497410000000  0.5044620000000  0.4645310000000 1.0
C      1  0.3849700000000  0.5282780000000  0.4773160000000 1.0
C      1  0.5202560000000  0.4516400000000  0.4529330000000 1.0
C      1  0.5089230000000  0.5388400000000  0.4562570000000 1.0
C      1  0.4527920000000  0.4881490000000  0.4627700000000 1.0
C      1  0.4796000000000  0.5623540000000  0.5032550000000 1.0
C      1  0.5200400000000  0.5359640000000  0.5703240000000 1.0
C      1  0.5812840000000  0.4884940000000  0.4990550000000 1.0
C      1  0.4635020000000  0.4785000000000  0.5574720000000 1.0
C      1  0.4881840000000  0.4811150000000  0.4248440000000 1.0
C      1  0.4305840000000  0.5440750000000  0.4712280000000 1.0
C      1  0.4777570000000  0.5544230000000  0.5348030000000 1.0
C      1  0.4605140000000  0.5435380000000  0.4841550000000 1.0
C      1  0.5110800000000  0.5291500000000  0.5288930000000 1.0
C      1  0.4873620000000  0.4791440000000  0.5466520000000 1.0
C      1  0.5459330000000  0.5272070000000  0.5643140000000 1.0
C      1  0.5073000000000  0.5593370000000  0.4826470000000 1.0
C      1  0.5506710000000  0.5055690000000  0.5181300000000 1.0
C      1  0.5698910000000  0.5090880000000  0.4836860000000 1.0
C      1  0.5126130000000  0.4798260000000  0.5352010000000 1.0
C      1  0.5719040000000  0.4843650000000  0.5310860000000 1.0
C      1  0.4944980000000  0.4451870000000  0.4635650000000 1.0
C      1  0.5079060000000  0.4930720000000  0.4431240000000 1.0
C      1  0.5265060000000  0.5151280000000  0.4486800000000 1.0
C      1  0.5115690000000  0.5593370000000  0.5145650000000 1.0
C      1  0.5243990000000  0.5029690000000  0.5258480000000 1.0
C      1  0.5347140000000  0.5523400000000  0.5356280000000 1.0
C      1  0.5455590000000  0.4520260000000  0.4838610000000 1.0
C      1  0.4808280000000  0.5211320000000  0.5380320000000 1.0
C      1  0.5577810000000  0.4582070000000  0.5402760000000 1.0
C      1  0.4901840000000  0.5299010000000  0.4827180000000 1.0
C      1  0.5063000000000  0.4289070000000  0.5249610000000 1.0
C      1  0.5636370000000  0.5337300000000  0.5037340000000 1.0
C      1  0.4339250000000  0.3913860000000  0.5215030000000 1.0
C      1  0.4582220000000  0.5164900000000  0.4629530000000 1.0
C      1  0.5278360000000  0.4404170000000  0.5019890000000 1.0
C      1  0.4783150000000  0.4172990000000  0.5125800000000 1.0
C      1  0.4971370000000  0.4331910000000  0.4904720000000 1.0
C      1  0.5350530000000  0.4774480000000  0.4678030000000 1.0
C      1  0.4903300000000  0.5024710000000  0.4940700000000 1.0
C      1  0.4785970000000  0.5372310000000  0.4452880000000 1.0
C      1  0.5634280000000  0.5382330000000  0.5368160000000 1.0
C      1  0.4448090000000  0.4979670000000  0.5123890000000 1.0
C      1  0.4767750000000  0.4710570000000  0.4550920000000 1.0
C      1  0.5020410000000  0.4827750000000  0.4744370000000 1.0
C      1  0.4489250000000  0.5479080000000  0.4462010000000 1.0
C      1  0.4114980000000  0.5270380000000  0.4830300000000 1.0
C      1  0.5615760000000  0.5578830000000  0.4901420000000 1.0
C      1  0.5279110000000  0.4537460000000  0.5322900000000 1.0
C      1  0.5708120000000  0.5092280000000  0.5521020000000 1.0
END
