TITL C-2778434-4341-369 6.68280464827742e-05 125000 -969.902040619919 0 0 169 (C1) n - 1
REM
REM in /home/nfs/bkarasulu/CARBON/AIRSS/Generating-Clusters/REBO/Only-C1/SD-CG/HFTN-CG
REM
REM
REM
REM
REM
REM ./C.cell (11c1c37f851c82e70ff6c80c92926a4b)
REM
REM compiler GCC version 9.2.1 20190827 (Red Hat 9.2.1-1)
REM options -cpp -mtune=generic -march=x86-64 -g -O0 -fpre-include=/usr/include/finclude/math-vector-fortran.h
REM seed 2043649915 974423744 -1586694014 298367203 1857356752 2007038050 1963592284 -1846670555 1757360494 -1361647509 1044697458 1571902711 -2093815680 -1226100222 1834169652 123595375 1624286935 -925217407 -807536933 676770157 -1107832227 1690105848 972169448 1421266172 -1054884772 -1796631691 643965284 1483771317 -1629062873 1377999577 -370085497 1378870217 1900478889
REM
CELL 1.54180   50.00000   50.00000   50.00000   90.00000   90.00000   90.00000
LATT -1
SFAC C  
C      1  0.5654550000000  0.5658700000000  0.4510080000000 1.0
C      1  0.5115450000000  0.4467860000000  0.4275810000000 1.0
C      1  0.4864700000000  0.5262380000000  0.4550910000000 1.0
C      1  0.5501020000000  0.4841760000000  0.5293380000000 1.0
C      1  0.4189070000000  0.4647850000000  0.4512710000000 1.0
C      1  0.4635350000000  0.4901980000000  0.5563190000000 1.0
C      1  0.5190300000000  0.5579380000000  0.5707070000000 1.0
C      1  0.5088430000000  0.5280690000000  0.5776570000000 1.0
C      1  0.4149680000000  0.5277530000000  0.5467250000000 1.0
C      1  0.4899360000000  0.4218920000000  0.5141210000000 1.0
C      1  0.5498670000000  0.5195790000000  0.6059490000000 1.0
C      1  0.4862330000000  0.5031350000000  0.5720780000000 1.0
C      1  0.3918990000000  0.5009760000000  0.4799960000000 1.0
C      1  0.5754700000000  0.6150800000000  0.4757080000000 1.0
C      1  0.4667740000000  0.5101570000000  0.4930430000000 1.0
C      1  0.4575240000000  0.5353790000000  0.4634840000000 1.0
C      1  0.5124190000000  0.4844620000000  0.5798170000000 1.0
C      1  0.5554330000000  0.4717220000000  0.4789080000000 1.0
C      1  0.5448880000000  0.5342040000000  0.5279000000000 1.0
C      1  0.5185750000000  0.4787440000000  0.5408050000000 1.0
C      1  0.4532990000000  0.5368370000000  0.5200240000000 1.0
C      1  0.4436150000000  0.4324990000000  0.5287590000000 1.0
C      1  0.5120710000000  0.4391520000000  0.4860090000000 1.0
C      1  0.4332690000000  0.5297690000000  0.5019860000000 1.0
C      1  0.4213430000000  0.5173500000000  0.4753510000000 1.0
C      1  0.4267470000000  0.4370570000000  0.5645390000000 1.0
C      1  0.5167590000000  0.4132930000000  0.5487880000000 1.0
C      1  0.5412480000000  0.4931750000000  0.5701690000000 1.0
C      1  0.5325710000000  0.5268410000000  0.4385330000000 1.0
C      1  0.4524940000000  0.5022730000000  0.5935390000000 1.0
C      1  0.4438620000000  0.4792200000000  0.5028470000000 1.0
C      1  0.4040410000000  0.4757830000000  0.5300690000000 1.0
C      1  0.4900080000000  0.4060820000000  0.4677250000000 1.0
C      1  0.4331680000000  0.5820950000000  0.4585460000000 1.0
C      1  0.6021780000000  0.4795260000000  0.5131800000000 1.0
C      1  0.6119460000000  0.5233220000000  0.4630520000000 1.0
C      1  0.4832660000000  0.4651690000000  0.5280810000000 1.0
C      1  0.4962190000000  0.4466700000000  0.4562590000000 1.0
C      1  0.4595390000000  0.4721410000000  0.6001840000000 1.0
C      1  0.5054600000000  0.4418000000000  0.5330630000000 1.0
C      1  0.5639140000000  0.4143710000000  0.4993250000000 1.0
C      1  0.5794230000000  0.5208830000000  0.4899030000000 1.0
C      1  0.5491630000000  0.5591710000000  0.4866860000000 1.0
C      1  0.4827830000000  0.5958650000000  0.5307980000000 1.0
C      1  0.5536790000000  0.5287610000000  0.4720600000000 1.0
C      1  0.5506790000000  0.4468640000000  0.5849290000000 1.0
C      1  0.4273420000000  0.4561210000000  0.5154780000000 1.0
C      1  0.4547350000000  0.5306310000000  0.5471400000000 1.0
C      1  0.5486650000000  0.3914100000000  0.4952160000000 1.0
C      1  0.4088430000000  0.5512810000000  0.4912180000000 1.0
C      1  0.4716340000000  0.5622470000000  0.5124690000000 1.0
C      1  0.4467120000000  0.5856530000000  0.4329230000000 1.0
C      1  0.4940060000000  0.4962640000000  0.5316000000000 1.0
C      1  0.3977190000000  0.4681950000000  0.4776620000000 1.0
C      1  0.4561910000000  0.5019900000000  0.4642590000000 1.0
C      1  0.5897290000000  0.4489630000000  0.5203490000000 1.0
C      1  0.5804360000000  0.4987950000000  0.5648560000000 1.0
C      1  0.6053060000000  0.5587430000000  0.5012530000000 1.0
C      1  0.4973850000000  0.5472640000000  0.5392740000000 1.0
C      1  0.4929590000000  0.5267550000000  0.4943720000000 1.0
C      1  0.4584200000000  0.4572760000000  0.5447230000000 1.0
C      1  0.4952570000000  0.4737930000000  0.4768510000000 1.0
C      1  0.4454710000000  0.4416140000000  0.4900840000000 1.0
C      1  0.4340750000000  0.4837470000000  0.5710440000000 1.0
C      1  0.4352800000000  0.5161110000000  0.5675260000000 1.0
C      1  0.4634080000000  0.5065840000000  0.4035430000000 1.0
C      1  0.5292170000000  0.5074780000000  0.6195680000000 1.0
C      1  0.5476400000000  0.5485560000000  0.5576060000000 1.0
C      1  0.5925980000000  0.4762620000000  0.4366200000000 1.0
C      1  0.5114080000000  0.4564420000000  0.5636440000000 1.0
C      1  0.5208990000000  0.4113860000000  0.4590520000000 1.0
C      1  0.5349120000000  0.4409600000000  0.4640310000000 1.0
C      1  0.5251160000000  0.4798000000000  0.4923060000000 1.0
C      1  0.5336280000000  0.5095960000000  0.5417360000000 1.0
C      1  0.5011580000000  0.5241700000000  0.5237630000000 1.0
C      1  0.5487060000000  0.4765400000000  0.4114950000000 1.0
C      1  0.4723410000000  0.4819630000000  0.4453170000000 1.0
C      1  0.4608870000000  0.4977850000000  0.5234830000000 1.0
C      1  0.4418020000000  0.5441200000000  0.4364330000000 1.0
C      1  0.4307280000000  0.4947020000000  0.4441970000000 1.0
C      1  0.5260380000000  0.4955100000000  0.4426640000000 1.0
C      1  0.4722430000000  0.5746690000000  0.4616340000000 1.0
C      1  0.4988820000000  0.4306380000000  0.5795450000000 1.0
C      1  0.5234370000000  0.3917850000000  0.4833920000000 1.0
C      1  0.4731010000000  0.4692310000000  0.4983940000000 1.0
C      1  0.5732500000000  0.4231580000000  0.5247890000000 1.0
C      1  0.5571910000000  0.5715580000000  0.5344090000000 1.0
C      1  0.5745020000000  0.5269710000000  0.5206270000000 1.0
C      1  0.5558140000000  0.5481760000000  0.4274750000000 1.0
C      1  0.5116660000000  0.5403850000000  0.6054590000000 1.0
C      1  0.4160950000000  0.5526530000000  0.4579810000000 1.0
C      1  0.4473760000000  0.5607820000000  0.4811080000000 1.0
C      1  0.5034080000000  0.5717030000000  0.4655670000000 1.0
C      1  0.3717320000000  0.4389000000000  0.5106070000000 1.0
C      1  0.3888600000000  0.4582960000000  0.5057950000000 1.0
C      1  0.4680670000000  0.4281000000000  0.4536340000000 1.0
C      1  0.4643060000000  0.4573060000000  0.4265840000000 1.0
C      1  0.5409930000000  0.4482750000000  0.4239490000000 1.0
C      1  0.5649770000000  0.4382540000000  0.4383100000000 1.0
C      1  0.5125270000000  0.5771230000000  0.4332380000000 1.0
C      1  0.4507020000000  0.4624900000000  0.4636990000000 1.0
C      1  0.5494180000000  0.4224880000000  0.5470470000000 1.0
C      1  0.5672720000000  0.5865490000000  0.4782000000000 1.0
C      1  0.4833780000000  0.4111800000000  0.5561100000000 1.0
C      1  0.5955950000000  0.5449640000000  0.5287670000000 1.0
C      1  0.5824920000000  0.6395210000000  0.4735730000000 1.0
C      1  0.5106980000000  0.5423830000000  0.4525290000000 1.0
C      1  0.4510770000000  0.4202490000000  0.5578740000000 1.0
C      1  0.5833880000000  0.4894850000000  0.4866020000000 1.0
C      1  0.3941150000000  0.5230140000000  0.5036150000000 1.0
C      1  0.4611610000000  0.4547060000000  0.5745820000000 1.0
C      1  0.4903740000000  0.5231710000000  0.4115940000000 1.0
C      1  0.4638090000000  0.5949940000000  0.5070630000000 1.0
C      1  0.4225560000000  0.5540660000000  0.5388350000000 1.0
C      1  0.5840110000000  0.4711780000000  0.5457550000000 1.0
C      1  0.4768500000000  0.5427560000000  0.5585980000000 1.0
C      1  0.4949770000000  0.3928520000000  0.4991170000000 1.0
C      1  0.6222480000000  0.5367870000000  0.4820100000000 1.0
C      1  0.5133390000000  0.5095760000000  0.3938380000000 1.0
C      1  0.5860270000000  0.5514470000000  0.4741950000000 1.0
C      1  0.4243670000000  0.4872910000000  0.4833110000000 1.0
C      1  0.5582140000000  0.5224080000000  0.5745710000000 1.0
C      1  0.5487760000000  0.4526530000000  0.5351230000000 1.0
C      1  0.5184070000000  0.4799720000000  0.4067300000000 1.0
C      1  0.4317380000000  0.5687460000000  0.5095190000000 1.0
C      1  0.4782550000000  0.4443290000000  0.5990200000000 1.0
C      1  0.5564380000000  0.4670060000000  0.5649010000000 1.0
C      1  0.5733510000000  0.5207700000000  0.4218280000000 1.0
C      1  0.5272700000000  0.4530370000000  0.5115310000000 1.0
C      1  0.4063210000000  0.5233870000000  0.4133730000000 1.0
C      1  0.5340670000000  0.4734620000000  0.4540360000000 1.0
C      1  0.5017170000000  0.5569300000000  0.5007620000000 1.0
C      1  0.4877980000000  0.4557890000000  0.4093360000000 1.0
C      1  0.4400730000000  0.4408600000000  0.4393750000000 1.0
C      1  0.5432810000000  0.5106690000000  0.4100290000000 1.0
C      1  0.4685970000000  0.5640340000000  0.4297360000000 1.0
C      1  0.5059350000000  0.5767180000000  0.5269150000000 1.0
C      1  0.4728980000000  0.5879540000000  0.5582420000000 1.0
C      1  0.5760490000000  0.4897630000000  0.4194180000000 1.0
C      1  0.5779320000000  0.4977570000000  0.5252630000000 1.0
C      1  0.4097700000000  0.5219840000000  0.4445060000000 1.0
C      1  0.5297580000000  0.5405410000000  0.5016240000000 1.0
C      1  0.4023940000000  0.5097810000000  0.5286410000000 1.0
C      1  0.5855860000000  0.4535310000000  0.4523230000000 1.0
C      1  0.5324500000000  0.4250350000000  0.5766620000000 1.0
C      1  0.4999670000000  0.5031800000000  0.4719110000000 1.0
C      1  0.5805360000000  0.5272640000000  0.4507970000000 1.0
C      1  0.4575620000000  0.5990710000000  0.4799420000000 1.0
C      1  0.4581340000000  0.4061970000000  0.4768660000000 1.0
C      1  0.4185860000000  0.4626870000000  0.5576520000000 1.0
C      1  0.4969140000000  0.4951260000000  0.4299770000000 1.0
C      1  0.4777270000000  0.5197000000000  0.6011020000000 1.0
C      1  0.5283960000000  0.5573760000000  0.4131490000000 1.0
C      1  0.4784380000000  0.4383340000000  0.4908750000000 1.0
C      1  0.4520870000000  0.4118490000000  0.5066150000000 1.0
C      1  0.4510010000000  0.5726880000000  0.5376080000000 1.0
C      1  0.5340620000000  0.5877250000000  0.5314450000000 1.0
C      1  0.5623570000000  0.4382220000000  0.4807900000000 1.0
C      1  0.5737440000000  0.5703170000000  0.5071750000000 1.0
C      1  0.4879080000000  0.4856140000000  0.3925280000000 1.0
C      1  0.5907340000000  0.4554710000000  0.4861070000000 1.0
C      1  0.4767470000000  0.5487950000000  0.5888360000000 1.0
C      1  0.4920500000000  0.5747180000000  0.5766950000000 1.0
C      1  0.4746610000000  0.3960480000000  0.5266640000000 1.0
C      1  0.5288030000000  0.5124580000000  0.4842390000000 1.0
C      1  0.5354730000000  0.5803770000000  0.4579590000000 1.0
C      1  0.4947940000000  0.5523650000000  0.4172890000000 1.0
C      1  0.4391390000000  0.5154350000000  0.4184890000000 1.0
C      1  0.5055560000000  0.5009370000000  0.6067470000000 1.0
END
