TITL C-2778426-5645-370 -0.00154755952413086 125000 -398.638601443384 0 0 69 (C1) n - 1
REM
REM in /home/nfs/bkarasulu/CARBON/AIRSS/Generating-Clusters/REBO/Only-C1/SD-CG/HFTN-CG
REM
REM
REM
REM
REM
REM ./C.cell (11c1c37f851c82e70ff6c80c92926a4b)
REM
REM compiler GCC version 9.2.1 20190827 (Red Hat 9.2.1-1)
REM options -cpp -mtune=generic -march=x86-64 -g -O0 -fpre-include=/usr/include/finclude/math-vector-fortran.h
REM seed -29771435 1952992163 660887101 -1602767811 -335974245 1948773165 1472100977 2143813635 202894317 1021754092 299332642 -1047174216 962615964 -56205552 1553043969 1444272217 -804599236 1587542921 258613725 -296546733 -64351535 -1608648003 500107612 -1081992358 1450552249 851609764 788639353 1906682105 -1465681525 411827189 -25491294 -268849118 -842368883
REM
CELL 1.54180   50.00000   50.00000   50.00000   90.00000   90.00000   90.00000
LATT -1
SFAC C  
C      1  0.5611070000000  0.5031170000000  0.5354160000000 1.0
C      1  0.4409510000000  0.4934950000000  0.4871590000000 1.0
C      1  0.5258450000000  0.5548930000000  0.5472150000000 1.0
C      1  0.5158200000000  0.4346530000000  0.5411130000000 1.0
C      1  0.5290190000000  0.5687220000000  0.4675000000000 1.0
C      1  0.5014730000000  0.4943510000000  0.4128280000000 1.0
C      1  0.4573620000000  0.5075310000000  0.5091300000000 1.0
C      1  0.5703640000000  0.5109770000000  0.4725910000000 1.0
C      1  0.5545890000000  0.4638150000000  0.5361110000000 1.0
C      1  0.4625610000000  0.5240980000000  0.5633840000000 1.0
C      1  0.4978930000000  0.5699290000000  0.4701080000000 1.0
C      1  0.4736590000000  0.4645410000000  0.4977620000000 1.0
C      1  0.5083730000000  0.4673490000000  0.4572730000000 1.0
C      1  0.4325670000000  0.5387840000000  0.5417100000000 1.0
C      1  0.4970930000000  0.4599960000000  0.5469320000000 1.0
C      1  0.5089560000000  0.4276600000000  0.4583740000000 1.0
C      1  0.4836210000000  0.4332520000000  0.5302620000000 1.0
C      1  0.5462780000000  0.5600850000000  0.4866850000000 1.0
C      1  0.4545560000000  0.4867710000000  0.4629790000000 1.0
C      1  0.4765990000000  0.4813730000000  0.5601320000000 1.0
C      1  0.5615930000000  0.4636240000000  0.4653690000000 1.0
C      1  0.4286430000000  0.5459440000000  0.4907320000000 1.0
C      1  0.5372390000000  0.4438690000000  0.5247240000000 1.0
C      1  0.4467640000000  0.5103230000000  0.5392540000000 1.0
C      1  0.4910320000000  0.4762370000000  0.4780340000000 1.0
C      1  0.5085080000000  0.4295910000000  0.4888530000000 1.0
C      1  0.4917950000000  0.5258360000000  0.5673830000000 1.0
C      1  0.4994270000000  0.5514720000000  0.5549770000000 1.0
C      1  0.4867290000000  0.5059600000000  0.4765430000000 1.0
C      1  0.4885130000000  0.5001430000000  0.5098250000000 1.0
C      1  0.4696850000000  0.5594620000000  0.5156180000000 1.0
C      1  0.5288260000000  0.5424030000000  0.4219110000000 1.0
C      1  0.5702490000000  0.5202990000000  0.4461670000000 1.0
C      1  0.5060750000000  0.4736750000000  0.4303050000000 1.0
C      1  0.5309010000000  0.4887620000000  0.5765800000000 1.0
C      1  0.4533300000000  0.4660730000000  0.5598460000000 1.0
C      1  0.5201180000000  0.4886700000000  0.5034610000000 1.0
C      1  0.5345910000000  0.5190220000000  0.5102330000000 1.0
C      1  0.4751580000000  0.5637250000000  0.5439650000000 1.0
C      1  0.4826240000000  0.5195070000000  0.4229200000000 1.0
C      1  0.5399830000000  0.5519500000000  0.5182120000000 1.0
C      1  0.5127530000000  0.5236070000000  0.4088050000000 1.0
C      1  0.5105090000000  0.5067190000000  0.5760850000000 1.0
C      1  0.5612210000000  0.5307720000000  0.4923700000000 1.0
C      1  0.5269280000000  0.5036590000000  0.5397440000000 1.0
C      1  0.4821110000000  0.5486250000000  0.4379290000000 1.0
C      1  0.5532810000000  0.4837670000000  0.5099130000000 1.0
C      1  0.4588620000000  0.5462670000000  0.4571740000000 1.0
C      1  0.4463690000000  0.5389850000000  0.5115160000000 1.0
C      1  0.5004410000000  0.4917720000000  0.5381370000000 1.0
C      1  0.5337700000000  0.4500600000000  0.4661610000000 1.0
C      1  0.5685360000000  0.5336910000000  0.5251540000000 1.0
C      1  0.4506470000000  0.5549030000000  0.5606990000000 1.0
C      1  0.5548330000000  0.5347950000000  0.4291770000000 1.0
C      1  0.5459410000000  0.5297530000000  0.5506150000000 1.0
C      1  0.4255660000000  0.4524680000000  0.5027350000000 1.0
C      1  0.4684920000000  0.5139870000000  0.4519600000000 1.0
C      1  0.4828110000000  0.4258560000000  0.5006790000000 1.0
C      1  0.4548570000000  0.4443170000000  0.5414680000000 1.0
C      1  0.4601950000000  0.4590290000000  0.4593910000000 1.0
C      1  0.5258090000000  0.4554160000000  0.4986040000000 1.0
C      1  0.4187340000000  0.4774180000000  0.4935530000000 1.0
C      1  0.4826190000000  0.5682220000000  0.4926150000000 1.0
C      1  0.4809920000000  0.4338960000000  0.4509590000000 1.0
C      1  0.4524930000000  0.4503580000000  0.5119310000000 1.0
C      1  0.5120210000000  0.5594420000000  0.4406550000000 1.0
C      1  0.4633710000000  0.4310730000000  0.4786320000000 1.0
C      1  0.5485900000000  0.4743750000000  0.5616250000000 1.0
C      1  0.5667770000000  0.4848310000000  0.4821350000000 1.0
END
