TITL C-2778436-5916-386 -0.001623009215744 125000 -122.248351062728 0 0 23 (C1) n - 1
REM
REM in /home/nfs/bkarasulu/CARBON/AIRSS/Generating-Clusters/REBO/Only-C1/SD-CG/HFTN-CG
REM
REM
REM
REM
REM
REM ./C.cell (11c1c37f851c82e70ff6c80c92926a4b)
REM
REM compiler GCC version 9.2.1 20190827 (Red Hat 9.2.1-1)
REM options -cpp -mtune=generic -march=x86-64 -g -O0 -fpre-include=/usr/include/finclude/math-vector-fortran.h
REM seed -1900818908 207967804 -1498192641 -579715000 -218080761 1763858704 1009980256 1154321314 979978607 1363103432 1694109880 1662799313 -994240422 1199763734 -754895230 1852869970 -1582295259 -2015162858 2060773339 -1915984408 -277168742 566661944 -1700345047 -1247480190 -595092931 -1328674147 -1722803400 -339556819 679426589 385990382 1521260123 -1697873370 -1795230393
REM
CELL 1.54180   50.00000   50.00000   50.00000   90.00000   90.00000   90.00000
LATT -1
SFAC C  
C      1  0.4973230000000  0.5666970000000  0.5448110000000 1.0
C      1  0.4822920000000  0.4771270000000  0.5236710000000 1.0
C      1  0.5031600000000  0.5407440000000  0.5526840000000 1.0
C      1  0.4976060000000  0.4891800000000  0.5679220000000 1.0
C      1  0.5024210000000  0.4923840000000  0.5400440000000 1.0
C      1  0.5236960000000  0.4499160000000  0.4707490000000 1.0
C      1  0.4813000000000  0.5604630000000  0.4898340000000 1.0
C      1  0.4864070000000  0.4492740000000  0.5103070000000 1.0
C      1  0.4913800000000  0.5680320000000  0.5175730000000 1.0
C      1  0.4940650000000  0.4376550000000  0.4801030000000 1.0
C      1  0.5050350000000  0.5203430000000  0.4774210000000 1.0
C      1  0.4642320000000  0.4520200000000  0.4846130000000 1.0
C      1  0.5420900000000  0.4722570000000  0.5095600000000 1.0
C      1  0.5326840000000  0.4733050000000  0.4828680000000 1.0
C      1  0.5141140000000  0.4231180000000  0.4570210000000 1.0
C      1  0.4971460000000  0.5345120000000  0.5042790000000 1.0
C      1  0.4941710000000  0.5331610000000  0.4540780000000 1.0
C      1  0.4605800000000  0.4780060000000  0.5015190000000 1.0
C      1  0.5209480000000  0.4977680000000  0.4756210000000 1.0
C      1  0.4972320000000  0.5245120000000  0.4286110000000 1.0
C      1  0.5304510000000  0.4809260000000  0.5323390000000 1.0
C      1  0.5017960000000  0.5219160000000  0.5322830000000 1.0
C      1  0.4798730000000  0.5566820000000  0.4620880000000 1.0
END
