TITL C-2778426-5645-865 -0.000217703055844888 125000 -423.887931470303 0 0 73 (C1) n - 1
REM
REM in /home/nfs/bkarasulu/CARBON/AIRSS/Generating-Clusters/REBO/Only-C1/SD-CG/HFTN-CG
REM
REM
REM
REM
REM
REM ./C.cell (11c1c37f851c82e70ff6c80c92926a4b)
REM
REM compiler GCC version 9.2.1 20190827 (Red Hat 9.2.1-1)
REM options -cpp -mtune=generic -march=x86-64 -g -O0 -fpre-include=/usr/include/finclude/math-vector-fortran.h
REM seed 441319792 -701318346 -70012701 -172463417 1789173039 -2070681847 -1682559617 311587025 1371113977 1834145305 849879680 342347238 1967587695 550059786 715363796 1429658443 -1056941523 1534842348 268746903 2123557310 754218392 -2119497026 -485194853 83419528 -1568529078 160965241 1809163940 308188089 780717334 1774218435 -1545787047 1973903239 -1034181154
REM
CELL 1.54180   50.00000   50.00000   50.00000   90.00000   90.00000   90.00000
LATT -1
SFAC C  
C      1  0.5170760000000  0.4283700000000  0.4792850000000 1.0
C      1  0.4741350000000  0.5463080000000  0.4978510000000 1.0
C      1  0.5374870000000  0.4110740000000  0.4762570000000 1.0
C      1  0.4676110000000  0.4411370000000  0.5583810000000 1.0
C      1  0.5685150000000  0.4208140000000  0.4742430000000 1.0
C      1  0.5616140000000  0.3893930000000  0.4726060000000 1.0
C      1  0.5521380000000  0.4622300000000  0.5684710000000 1.0
C      1  0.4291790000000  0.4430850000000  0.5281440000000 1.0
C      1  0.6105410000000  0.5073610000000  0.4810670000000 1.0
C      1  0.4817710000000  0.5258880000000  0.3996630000000 1.0
C      1  0.4353890000000  0.5553900000000  0.4749720000000 1.0
C      1  0.5383270000000  0.4218270000000  0.5635840000000 1.0
C      1  0.4539970000000  0.5338820000000  0.4818950000000 1.0
C      1  0.5130270000000  0.4810100000000  0.4640540000000 1.0
C      1  0.5184320000000  0.4999700000000  0.4195100000000 1.0
C      1  0.4697180000000  0.5294210000000  0.4251520000000 1.0
C      1  0.5547570000000  0.4880600000000  0.5489810000000 1.0
C      1  0.4567100000000  0.5072360000000  0.4682640000000 1.0
C      1  0.6028650000000  0.4572070000000  0.4743250000000 1.0
C      1  0.5916140000000  0.5272810000000  0.4871820000000 1.0
C      1  0.4570890000000  0.4833390000000  0.4905840000000 1.0
C      1  0.5455260000000  0.5621470000000  0.5109030000000 1.0
C      1  0.4209720000000  0.4742640000000  0.4625410000000 1.0
C      1  0.5162500000000  0.4329990000000  0.5549460000000 1.0
C      1  0.4667840000000  0.4954910000000  0.5933450000000 1.0
C      1  0.4183160000000  0.4991650000000  0.5825390000000 1.0
C      1  0.5562640000000  0.4663820000000  0.4784690000000 1.0
C      1  0.5057580000000  0.5126950000000  0.3975490000000 1.0
C      1  0.5027300000000  0.4978310000000  0.4435280000000 1.0
C      1  0.5692150000000  0.5194240000000  0.5017240000000 1.0
C      1  0.5186850000000  0.5342420000000  0.5793890000000 1.0
C      1  0.5610580000000  0.5022510000000  0.5269300000000 1.0
C      1  0.4456420000000  0.4548920000000  0.5471730000000 1.0
C      1  0.4237110000000  0.4439210000000  0.5006640000000 1.0
C      1  0.5173810000000  0.5070260000000  0.5863480000000 1.0
C      1  0.4730370000000  0.5295080000000  0.5340870000000 1.0
C      1  0.4517320000000  0.4842230000000  0.5431170000000 1.0
C      1  0.5033020000000  0.5643240000000  0.4645860000000 1.0
C      1  0.4733880000000  0.4843140000000  0.5173310000000 1.0
C      1  0.4894120000000  0.5116120000000  0.5187060000000 1.0
C      1  0.4996020000000  0.4543380000000  0.4671210000000 1.0
C      1  0.5194860000000  0.5527410000000  0.5142880000000 1.0
C      1  0.4380980000000  0.5619730000000  0.4472260000000 1.0
C      1  0.4784630000000  0.4488970000000  0.4500530000000 1.0
C      1  0.5358830000000  0.4893970000000  0.5754880000000 1.0
C      1  0.5145780000000  0.5211110000000  0.5106800000000 1.0
C      1  0.4931390000000  0.4978330000000  0.5972320000000 1.0
C      1  0.4862710000000  0.5701710000000  0.4440050000000 1.0
C      1  0.4531200000000  0.5176490000000  0.5477150000000 1.0
C      1  0.6152010000000  0.4812000000000  0.4764600000000 1.0
C      1  0.4927960000000  0.4448670000000  0.5457690000000 1.0
C      1  0.5130310000000  0.5549680000000  0.5632660000000 1.0
C      1  0.4789170000000  0.5771470000000  0.5350400000000 1.0
C      1  0.4353100000000  0.4651760000000  0.4856980000000 1.0
C      1  0.4065210000000  0.4263470000000  0.4889520000000 1.0
C      1  0.5435750000000  0.4897180000000  0.4179340000000 1.0
C      1  0.5012160000000  0.4470990000000  0.4989840000000 1.0
C      1  0.5388080000000  0.5061640000000  0.5015370000000 1.0
C      1  0.4302160000000  0.4992870000000  0.4528570000000 1.0
C      1  0.4773060000000  0.5101150000000  0.4455090000000 1.0
C      1  0.4443090000000  0.4989310000000  0.5728740000000 1.0
C      1  0.5944990000000  0.5532980000000  0.4775220000000 1.0
C      1  0.4623840000000  0.5683530000000  0.5136220000000 1.0
C      1  0.5766090000000  0.4472200000000  0.4754610000000 1.0
C      1  0.4192090000000  0.5152920000000  0.4333860000000 1.0
C      1  0.5355780000000  0.4849800000000  0.4804920000000 1.0
C      1  0.5972100000000  0.5777350000000  0.4684480000000 1.0
C      1  0.4632350000000  0.5563570000000  0.4342870000000 1.0
C      1  0.5007130000000  0.5520020000000  0.4895760000000 1.0
C      1  0.4704290000000  0.5959710000000  0.5527890000000 1.0
C      1  0.5042530000000  0.5639800000000  0.5383330000000 1.0
C      1  0.4911780000000  0.4588530000000  0.5208860000000 1.0
C      1  0.4377000000000  0.5738410000000  0.4981630000000 1.0
END
