TITL C-2778430-5657-1035 6.38948138969058e-08 125000 -102.608004907124 0 0 20 (C1) n - 1
REM
REM in /home/nfs/bkarasulu/CARBON/AIRSS/Generating-Clusters/REBO/Only-C1/SD-CG/HFTN-CG
REM
REM
REM
REM
REM
REM ./C.cell (11c1c37f851c82e70ff6c80c92926a4b)
REM
REM compiler GCC version 9.2.1 20190827 (Red Hat 9.2.1-1)
REM options -cpp -mtune=generic -march=x86-64 -g -O0 -fpre-include=/usr/include/finclude/math-vector-fortran.h
REM seed -1204138116 1447647233 1691602787 -327375967 -319696205 2066291978 620706853 -821829802 88403290 -387239460 -573693434 814350110 328738290 126939792 -1210360140 -718202452 -752179055 1911366712 1323416169 -234734901 2083576615 1632559699 -75582171 -1922514683 -1495604461 -692148934 -1796930458 1543043006 1129837157 -1708381433 96524522 258928758 903574910
REM
CELL 1.54180   50.00000   50.00000   50.00000   90.00000   90.00000   90.00000
LATT -1
SFAC C  
C      1  0.4354410000000  0.4920310000000  0.4749710000000 1.0
C      1  0.4347310000000  0.5199720000000  0.4936420000000 1.0
C      1  0.4497600000000  0.4644330000000  0.5470700000000 1.0
C      1  0.5338040000000  0.5179480000000  0.4701830000000 1.0
C      1  0.4832690000000  0.5177870000000  0.4685030000000 1.0
C      1  0.5066360000000  0.5097130000000  0.4814740000000 1.0
C      1  0.5482490000000  0.4947600000000  0.4618860000000 1.0
C      1  0.5769040000000  0.5022240000000  0.4953540000000 1.0
C      1  0.5056740000000  0.4940520000000  0.5048740000000 1.0
C      1  0.4812570000000  0.4858930000000  0.5161540000000 1.0
C      1  0.5301380000000  0.5361980000000  0.4485340000000 1.0
C      1  0.5300440000000  0.4863120000000  0.5173830000000 1.0
C      1  0.5542330000000  0.4945260000000  0.5060120000000 1.0
C      1  0.5295530000000  0.4711600000000  0.5400390000000 1.0
C      1  0.4339880000000  0.4900400000000  0.5081500000000 1.0
C      1  0.4550390000000  0.4797380000000  0.5243670000000 1.0
C      1  0.4555210000000  0.5174710000000  0.4679200000000 1.0
C      1  0.5618040000000  0.5436530000000  0.5119790000000 1.0
C      1  0.4447990000000  0.4500480000000  0.5684070000000 1.0
C      1  0.5491560000000  0.5320420000000  0.4930990000000 1.0
END
