TITL C-2778431-5191-729 -0.00625829673145527 125000 -823.215166971301 0 0 140 (C1) n - 1
REM
REM in /home/nfs/bkarasulu/CARBON/AIRSS/Generating-Clusters/REBO/Only-C1/SD-CG/HFTN-CG
REM
REM
REM
REM
REM
REM ./C.cell (11c1c37f851c82e70ff6c80c92926a4b)
REM
REM compiler GCC version 9.2.1 20190827 (Red Hat 9.2.1-1)
REM options -cpp -mtune=generic -march=x86-64 -g -O0 -fpre-include=/usr/include/finclude/math-vector-fortran.h
REM seed 354136629 537320799 -545796032 -161638155 48683729 -1540415965 -1456771097 1905182211 -324235600 623355395 733995940 -727124775 -1928678841 -1128889486 1446360517 1634267224 -1276846455 1122897321 -540841156 1662248693 472505461 -2076842166 684657347 1875439878 788739637 -1407746924 763768653 -604290512 1996863840 -1006558955 1111684162 -139856880 1275566308
REM
CELL 1.54180   50.00000   50.00000   50.00000   90.00000   90.00000   90.00000
LATT -1
SFAC C  
C      1  0.4341100000000  0.5369430000000  0.4501960000000 1.0
C      1  0.5209250000000  0.4101990000000  0.4834730000000 1.0
C      1  0.5075810000000  0.4273980000000  0.4348770000000 1.0
C      1  0.3972400000000  0.4695340000000  0.5110710000000 1.0
C      1  0.4574100000000  0.5658960000000  0.5660350000000 1.0
C      1  0.5933980000000  0.5308140000000  0.5045160000000 1.0
C      1  0.5621500000000  0.5216870000000  0.5799580000000 1.0
C      1  0.4162910000000  0.5068970000000  0.5017990000000 1.0
C      1  0.5902240000000  0.5279170000000  0.4701080000000 1.0
C      1  0.4992750000000  0.4258760000000  0.4638290000000 1.0
C      1  0.4552680000000  0.4887440000000  0.5389670000000 1.0
C      1  0.4650740000000  0.4973070000000  0.4227080000000 1.0
C      1  0.5844610000000  0.4454300000000  0.5616380000000 1.0
C      1  0.5294010000000  0.5173570000000  0.4697530000000 1.0
C      1  0.5514000000000  0.4243170000000  0.5294020000000 1.0
C      1  0.4654270000000  0.5190210000000  0.5833520000000 1.0
C      1  0.4715270000000  0.5122080000000  0.4506200000000 1.0
C      1  0.4964050000000  0.5249550000000  0.4905210000000 1.0
C      1  0.4168910000000  0.5643710000000  0.4734600000000 1.0
C      1  0.4453980000000  0.5380990000000  0.5638820000000 1.0
C      1  0.4268010000000  0.4996560000000  0.4340800000000 1.0
C      1  0.5516610000000  0.5372730000000  0.4156950000000 1.0
C      1  0.4714540000000  0.4445910000000  0.5094580000000 1.0
C      1  0.5282740000000  0.5543850000000  0.4175530000000 1.0
C      1  0.5244680000000  0.5101980000000  0.4387010000000 1.0
C      1  0.5634040000000  0.5352720000000  0.4986800000000 1.0
C      1  0.5030120000000  0.5183810000000  0.5698590000000 1.0
C      1  0.5410320000000  0.5080910000000  0.4086860000000 1.0
C      1  0.5502940000000  0.5610390000000  0.4569180000000 1.0
C      1  0.5940070000000  0.4748380000000  0.4827010000000 1.0
C      1  0.4767880000000  0.5696740000000  0.4217910000000 1.0
C      1  0.5254120000000  0.5767570000000  0.4501930000000 1.0
C      1  0.4511710000000  0.5104640000000  0.4746430000000 1.0
C      1  0.4888410000000  0.4834880000000  0.4958540000000 1.0
C      1  0.5564480000000  0.4978420000000  0.6032260000000 1.0
C      1  0.4264800000000  0.5512930000000  0.5200730000000 1.0
C      1  0.5401550000000  0.4676860000000  0.4367980000000 1.0
C      1  0.4459570000000  0.5255290000000  0.4231060000000 1.0
C      1  0.5483990000000  0.4146840000000  0.4812040000000 1.0
C      1  0.5473800000000  0.5012790000000  0.5339090000000 1.0
C      1  0.4381520000000  0.5822630000000  0.4691690000000 1.0
C      1  0.4870440000000  0.4207120000000  0.5262280000000 1.0
C      1  0.5087890000000  0.5793670000000  0.4785920000000 1.0
C      1  0.4832260000000  0.5856160000000  0.4918470000000 1.0
C      1  0.5697720000000  0.5362570000000  0.4441450000000 1.0
C      1  0.4819970000000  0.4444240000000  0.5797610000000 1.0
C      1  0.4902500000000  0.4736100000000  0.5905710000000 1.0
C      1  0.4904640000000  0.5226210000000  0.5403240000000 1.0
C      1  0.4291280000000  0.4502140000000  0.4550910000000 1.0
C      1  0.4674780000000  0.5572980000000  0.4585770000000 1.0
C      1  0.4889410000000  0.4757100000000  0.5561700000000 1.0
C      1  0.5105540000000  0.4509540000000  0.5647700000000 1.0
C      1  0.4867600000000  0.4518450000000  0.4824650000000 1.0
C      1  0.4414850000000  0.5758420000000  0.5183630000000 1.0
C      1  0.5460120000000  0.4925560000000  0.5728370000000 1.0
C      1  0.4770090000000  0.5498880000000  0.5847380000000 1.0
C      1  0.4795210000000  0.5655810000000  0.5141730000000 1.0
C      1  0.4137470000000  0.5372530000000  0.4944330000000 1.0
C      1  0.4396770000000  0.4520060000000  0.4863980000000 1.0
C      1  0.5110620000000  0.5163540000000  0.5160260000000 1.0
C      1  0.5738590000000  0.5037600000000  0.5464450000000 1.0
C      1  0.4504970000000  0.5425450000000  0.4796500000000 1.0
C      1  0.4647600000000  0.4661340000000  0.5259370000000 1.0
C      1  0.5726800000000  0.5023780000000  0.4447610000000 1.0
C      1  0.5155470000000  0.4485410000000  0.4977260000000 1.0
C      1  0.5341990000000  0.4579080000000  0.5419550000000 1.0
C      1  0.5364020000000  0.4329820000000  0.5730860000000 1.0
C      1  0.4848500000000  0.4654560000000  0.4090730000000 1.0
C      1  0.5407240000000  0.5450110000000  0.5810120000000 1.0
C      1  0.4871980000000  0.4978590000000  0.3987520000000 1.0
C      1  0.5637780000000  0.4373440000000  0.4670230000000 1.0
C      1  0.4285940000000  0.4539200000000  0.5782690000000 1.0
C      1  0.4824190000000  0.4011770000000  0.4792580000000 1.0
C      1  0.5030090000000  0.4981160000000  0.4702180000000 1.0
C      1  0.5090760000000  0.4051840000000  0.4204660000000 1.0
C      1  0.5157200000000  0.5344030000000  0.5877380000000 1.0
C      1  0.5667800000000  0.4256510000000  0.5048140000000 1.0
C      1  0.5587680000000  0.4681460000000  0.5600050000000 1.0
C      1  0.4012400000000  0.4842990000000  0.4817600000000 1.0
C      1  0.6076090000000  0.5066200000000  0.5526590000000 1.0
C      1  0.5188300000000  0.4327990000000  0.5246550000000 1.0
C      1  0.4302830000000  0.5322690000000  0.5412550000000 1.0
C      1  0.5559330000000  0.4884240000000  0.4270790000000 1.0
C      1  0.4608990000000  0.4348580000000  0.5648760000000 1.0
C      1  0.4847650000000  0.5288910000000  0.3934490000000 1.0
C      1  0.5868910000000  0.4461090000000  0.4860930000000 1.0
C      1  0.5437430000000  0.5687130000000  0.5532020000000 1.0
C      1  0.5461500000000  0.4603590000000  0.4637880000000 1.0
C      1  0.4570530000000  0.5817630000000  0.4437830000000 1.0
C      1  0.5532730000000  0.5604900000000  0.4855920000000 1.0
C      1  0.5126500000000  0.5467850000000  0.4730060000000 1.0
C      1  0.5709230000000  0.4928180000000  0.4715540000000 1.0
C      1  0.4655150000000  0.5790310000000  0.5408050000000 1.0
C      1  0.5910250000000  0.4788790000000  0.5622310000000 1.0
C      1  0.4610210000000  0.4903420000000  0.5693780000000 1.0
C      1  0.4217180000000  0.4685540000000  0.5309400000000 1.0
C      1  0.5172220000000  0.4857080000000  0.4086220000000 1.0
C      1  0.4538320000000  0.4208620000000  0.5356930000000 1.0
C      1  0.4972380000000  0.5912670000000  0.5389080000000 1.0
C      1  0.4554190000000  0.4021580000000  0.4839930000000 1.0
C      1  0.5306490000000  0.5703300000000  0.4998070000000 1.0
C      1  0.4708910000000  0.5384120000000  0.5030100000000 1.0
C      1  0.5580020000000  0.4283550000000  0.5566380000000 1.0
C      1  0.5057830000000  0.5753310000000  0.4253480000000 1.0
C      1  0.4607590000000  0.4963770000000  0.5000740000000 1.0
C      1  0.4250330000000  0.5004560000000  0.4635930000000 1.0
C      1  0.5909450000000  0.5308420000000  0.5354990000000 1.0
C      1  0.4636950000000  0.5168640000000  0.5255920000000 1.0
C      1  0.4332680000000  0.4457250000000  0.5474850000000 1.0
C      1  0.5946800000000  0.4531570000000  0.5319440000000 1.0
C      1  0.5001840000000  0.4871390000000  0.4389490000000 1.0
C      1  0.5142720000000  0.4540570000000  0.4219540000000 1.0
C      1  0.4834340000000  0.5378790000000  0.4471860000000 1.0
C      1  0.5040180000000  0.5509890000000  0.5421060000000 1.0
C      1  0.3994560000000  0.4644810000000  0.4575860000000 1.0
C      1  0.4458840000000  0.4248390000000  0.5027440000000 1.0
C      1  0.4972750000000  0.5630110000000  0.5669470000000 1.0
C      1  0.5237040000000  0.5538120000000  0.5220050000000 1.0
C      1  0.5529290000000  0.5098560000000  0.4849080000000 1.0
C      1  0.4269300000000  0.5025580000000  0.5320730000000 1.0
C      1  0.4684280000000  0.5441240000000  0.4100910000000 1.0
C      1  0.5359900000000  0.4668870000000  0.4903120000000 1.0
C      1  0.5492130000000  0.4750710000000  0.5168270000000 1.0
C      1  0.5013010000000  0.4863650000000  0.5275210000000 1.0
C      1  0.4050300000000  0.5372750000000  0.4613480000000 1.0
C      1  0.5003090000000  0.4009010000000  0.5046310000000 1.0
C      1  0.4174340000000  0.4723120000000  0.4318540000000 1.0
C      1  0.4426680000000  0.4728610000000  0.5869430000000 1.0
C      1  0.5408430000000  0.5271110000000  0.5187800000000 1.0
C      1  0.5211550000000  0.4986010000000  0.5527590000000 1.0
C      1  0.4613890000000  0.4561080000000  0.4612210000000 1.0
C      1  0.6055260000000  0.5038220000000  0.4876740000000 1.0
C      1  0.5129860000000  0.5392220000000  0.4407530000000 1.0
C      1  0.4351180000000  0.4777010000000  0.5018730000000 1.0
C      1  0.5791290000000  0.4675310000000  0.5188100000000 1.0
C      1  0.4527520000000  0.5868550000000  0.4934300000000 1.0
C      1  0.4825870000000  0.4972990000000  0.6022130000000 1.0
C      1  0.5667910000000  0.5437770000000  0.5552790000000 1.0
C      1  0.4717620000000  0.4697080000000  0.4386960000000 1.0
C      1  0.5233470000000  0.5857280000000  0.5460540000000 1.0
END
