TITL C-2778434-4341-205 0.00399344012745541 125000 -485.917366599514 0 0 84 (C1) n - 1
REM
REM in /home/nfs/bkarasulu/CARBON/AIRSS/Generating-Clusters/REBO/Only-C1/SD-CG/HFTN-CG
REM
REM
REM
REM
REM
REM ./C.cell (11c1c37f851c82e70ff6c80c92926a4b)
REM
REM compiler GCC version 9.2.1 20190827 (Red Hat 9.2.1-1)
REM options -cpp -mtune=generic -march=x86-64 -g -O0 -fpre-include=/usr/include/finclude/math-vector-fortran.h
REM seed -431257347 725926392 99287287 -1543181910 -236516931 -982179104 -538773359 -1437907721 650725285 -1099441418 -1785948262 -1588870169 898630744 940445272 -1962797312 366462420 -1170196292 -1752466418 271098515 1237586914 -100992277 -3543461 1465619647 -421933938 959396423 1701356036 1958681647 -505960746 -194800092 1022761620 1801566862 1268561865 1537209124
REM
CELL 1.54180   50.00000   50.00000   50.00000   90.00000   90.00000   90.00000
LATT -1
SFAC C  
C      1  0.5347330000000  0.4356490000000  0.5390380000000 1.0
C      1  0.4897000000000  0.4858400000000  0.5315320000000 1.0
C      1  0.4498140000000  0.5214250000000  0.4378990000000 1.0
C      1  0.5534060000000  0.5417640000000  0.5179800000000 1.0
C      1  0.4258110000000  0.4804860000000  0.5451800000000 1.0
C      1  0.5656100000000  0.5327280000000  0.4598390000000 1.0
C      1  0.5426540000000  0.4659970000000  0.5323160000000 1.0
C      1  0.4402360000000  0.4488450000000  0.5004290000000 1.0
C      1  0.4932870000000  0.5138650000000  0.4903490000000 1.0
C      1  0.4825020000000  0.5604980000000  0.4716170000000 1.0
C      1  0.4932920000000  0.5480070000000  0.5543530000000 1.0
C      1  0.5190890000000  0.5657890000000  0.5076160000000 1.0
C      1  0.5156850000000  0.4862090000000  0.5538530000000 1.0
C      1  0.4444340000000  0.5013930000000  0.5131120000000 1.0
C      1  0.5575600000000  0.5094620000000  0.5629970000000 1.0
C      1  0.4369070000000  0.5291960000000  0.5417500000000 1.0
C      1  0.5162060000000  0.4355390000000  0.5605930000000 1.0
C      1  0.4487580000000  0.4701120000000  0.4394830000000 1.0
C      1  0.5335220000000  0.4420560000000  0.4616700000000 1.0
C      1  0.4644280000000  0.4517710000000  0.4587740000000 1.0
C      1  0.4887810000000  0.4365440000000  0.4448200000000 1.0
C      1  0.5661660000000  0.4645330000000  0.4877130000000 1.0
C      1  0.4672320000000  0.4441010000000  0.5595760000000 1.0
C      1  0.4380910000000  0.4756230000000  0.4804690000000 1.0
C      1  0.5279080000000  0.5372000000000  0.4723140000000 1.0
C      1  0.5210590000000  0.5098270000000  0.5372410000000 1.0
C      1  0.5568550000000  0.4485330000000  0.5086980000000 1.0
C      1  0.5427410000000  0.5505590000000  0.5442080000000 1.0
C      1  0.5554530000000  0.4607380000000  0.4619930000000 1.0
C      1  0.5310250000000  0.4904680000000  0.4912230000000 1.0
C      1  0.4293870000000  0.5236850000000  0.4622820000000 1.0
C      1  0.4652900000000  0.4766590000000  0.5144970000000 1.0
C      1  0.5805580000000  0.5171370000000  0.4783340000000 1.0
C      1  0.5183170000000  0.4765310000000  0.5152680000000 1.0
C      1  0.4799730000000  0.5225660000000  0.5714720000000 1.0
C      1  0.5170650000000  0.4784460000000  0.4624350000000 1.0
C      1  0.5133460000000  0.4526090000000  0.4401110000000 1.0
C      1  0.5007600000000  0.5404230000000  0.4268050000000 1.0
C      1  0.5032230000000  0.5663340000000  0.4421230000000 1.0
C      1  0.5159830000000  0.5659710000000  0.5407330000000 1.0
C      1  0.4255880000000  0.4736070000000  0.5173780000000 1.0
C      1  0.5751280000000  0.5208810000000  0.5100040000000 1.0
C      1  0.5505000000000  0.5363870000000  0.5672160000000 1.0
C      1  0.5141620000000  0.5115110000000  0.4617670000000 1.0
C      1  0.5610040000000  0.5594150000000  0.4704010000000 1.0
C      1  0.4597730000000  0.5462400000000  0.5581680000000 1.0
C      1  0.4898610000000  0.4252500000000  0.4743620000000 1.0
C      1  0.4224510000000  0.5395950000000  0.4846510000000 1.0
C      1  0.4725280000000  0.4952070000000  0.5596030000000 1.0
C      1  0.4840100000000  0.5825200000000  0.4934210000000 1.0
C      1  0.5171190000000  0.4968190000000  0.4108850000000 1.0
C      1  0.5217210000000  0.5631970000000  0.4642490000000 1.0
C      1  0.4462550000000  0.4990430000000  0.4706260000000 1.0
C      1  0.4712740000000  0.5202130000000  0.5143740000000 1.0
C      1  0.5555530000000  0.4858070000000  0.5509260000000 1.0
C      1  0.4424530000000  0.5005920000000  0.5531340000000 1.0
C      1  0.5511600000000  0.4835110000000  0.4424250000000 1.0
C      1  0.4360980000000  0.5518790000000  0.5134140000000 1.0
C      1  0.5486400000000  0.5470560000000  0.5921630000000 1.0
C      1  0.5289530000000  0.4749300000000  0.4244150000000 1.0
C      1  0.4878320000000  0.5730810000000  0.5224290000000 1.0
C      1  0.4747180000000  0.5091010000000  0.4663560000000 1.0
C      1  0.4607370000000  0.4940750000000  0.4323060000000 1.0
C      1  0.5006200000000  0.5315360000000  0.5274360000000 1.0
C      1  0.4969460000000  0.4540490000000  0.5057390000000 1.0
C      1  0.4922420000000  0.4926820000000  0.4433680000000 1.0
C      1  0.5338080000000  0.4271510000000  0.5077240000000 1.0
C      1  0.4758600000000  0.5382160000000  0.4485910000000 1.0
C      1  0.5467490000000  0.5162470000000  0.4436440000000 1.0
C      1  0.4538320000000  0.4490010000000  0.5305380000000 1.0
C      1  0.4597910000000  0.4299110000000  0.4844560000000 1.0
C      1  0.5647740000000  0.4935710000000  0.4946520000000 1.0
C      1  0.4205940000000  0.5227060000000  0.5129700000000 1.0
C      1  0.4905640000000  0.4243870000000  0.5519920000000 1.0
C      1  0.4968930000000  0.5448570000000  0.4960990000000 1.0
C      1  0.5189820000000  0.4274470000000  0.4827520000000 1.0
C      1  0.4656330000000  0.5518110000000  0.5259280000000 1.0
C      1  0.4799660000000  0.4669860000000  0.5717950000000 1.0
C      1  0.5378970000000  0.5228690000000  0.4955470000000 1.0
C      1  0.5099080000000  0.4630070000000  0.5713450000000 1.0
C      1  0.5221390000000  0.5220510000000  0.4240470000000 1.0
C      1  0.5480010000000  0.5637870000000  0.4943320000000 1.0
C      1  0.4839420000000  0.4368020000000  0.5242640000000 1.0
C      1  0.4764940000000  0.4658870000000  0.4854140000000 1.0
END
