TITL C-2778431-5191-1100 -0.00444891495408249 125000 -837.538040310734 0 0 145 (C1) n - 1
REM
REM in /home/nfs/bkarasulu/CARBON/AIRSS/Generating-Clusters/REBO/Only-C1/SD-CG/HFTN-CG
REM
REM
REM
REM
REM
REM ./C.cell (11c1c37f851c82e70ff6c80c92926a4b)
REM
REM compiler GCC version 9.2.1 20190827 (Red Hat 9.2.1-1)
REM options -cpp -mtune=generic -march=x86-64 -g -O0 -fpre-include=/usr/include/finclude/math-vector-fortran.h
REM seed 378363326 -1472869334 312983013 780488082 -735383895 -288931098 -551971545 -841791146 -1205486690 2116481408 750676199 657635942 -666743035 -721135697 -1760225680 -1396568031 374100834 -247711227 314478022 1869450173 -261397472 1504221798 -546984472 2351620 1325480956 -620373619 25417749 1747741185 620653036 1625202979 455137627 787155530 -1195035939
REM
CELL 1.54180   50.00000   50.00000   50.00000   90.00000   90.00000   90.00000
LATT -1
SFAC C  
C      1  0.4520260000000  0.5165590000000  0.5899800000000 1.0
C      1  0.4575950000000  0.4903240000000  0.4883690000000 1.0
C      1  0.5491670000000  0.5069160000000  0.4278020000000 1.0
C      1  0.5449770000000  0.4323880000000  0.4773130000000 1.0
C      1  0.4627690000000  0.4609280000000  0.3982620000000 1.0
C      1  0.4740240000000  0.4737840000000  0.4635120000000 1.0
C      1  0.5544330000000  0.5269130000000  0.5328470000000 1.0
C      1  0.5493290000000  0.4658920000000  0.4379120000000 1.0
C      1  0.5181510000000  0.5216590000000  0.5170140000000 1.0
C      1  0.5410250000000  0.4904540000000  0.5267410000000 1.0
C      1  0.5292340000000  0.4982600000000  0.5564760000000 1.0
C      1  0.5010160000000  0.4289060000000  0.4481590000000 1.0
C      1  0.5178310000000  0.5562990000000  0.4822470000000 1.0
C      1  0.4580570000000  0.5161470000000  0.5364420000000 1.0
C      1  0.5948830000000  0.4939080000000  0.5009860000000 1.0
C      1  0.4529630000000  0.4518130000000  0.4797600000000 1.0
C      1  0.4087350000000  0.4310650000000  0.4747190000000 1.0
C      1  0.5831140000000  0.5366680000000  0.4374100000000 1.0
C      1  0.5572590000000  0.4601580000000  0.5069650000000 1.0
C      1  0.5251550000000  0.4640670000000  0.5122380000000 1.0
C      1  0.4326160000000  0.4914440000000  0.5052120000000 1.0
C      1  0.4752630000000  0.4648500000000  0.5023890000000 1.0
C      1  0.4684400000000  0.5737830000000  0.5022980000000 1.0
C      1  0.5267020000000  0.4340720000000  0.5828180000000 1.0
C      1  0.5164380000000  0.4121910000000  0.5306480000000 1.0
C      1  0.4153930000000  0.4697500000000  0.5062030000000 1.0
C      1  0.5061070000000  0.5856710000000  0.4961900000000 1.0
C      1  0.4201860000000  0.5442970000000  0.5009260000000 1.0
C      1  0.5043220000000  0.5012870000000  0.4312690000000 1.0
C      1  0.5715680000000  0.5512240000000  0.4615140000000 1.0
C      1  0.4135200000000  0.4944390000000  0.4356400000000 1.0
C      1  0.5678520000000  0.4855830000000  0.5450670000000 1.0
C      1  0.5043460000000  0.5808820000000  0.4529180000000 1.0
C      1  0.5235780000000  0.4847580000000  0.5934280000000 1.0
C      1  0.5679020000000  0.4470980000000  0.5343970000000 1.0
C      1  0.3987480000000  0.5251120000000  0.5180930000000 1.0
C      1  0.4627120000000  0.4463340000000  0.4273500000000 1.0
C      1  0.4858660000000  0.5512970000000  0.4937150000000 1.0
C      1  0.5185390000000  0.5607490000000  0.5848380000000 1.0
C      1  0.5473000000000  0.4560280000000  0.5797810000000 1.0
C      1  0.4428560000000  0.5415590000000  0.5804830000000 1.0
C      1  0.4600570000000  0.4849680000000  0.5808260000000 1.0
C      1  0.4264460000000  0.4429240000000  0.4934180000000 1.0
C      1  0.5668510000000  0.4763370000000  0.5760540000000 1.0
C      1  0.5218090000000  0.5744370000000  0.5310670000000 1.0
C      1  0.5870080000000  0.5817990000000  0.4616350000000 1.0
C      1  0.4761400000000  0.5828430000000  0.4507570000000 1.0
C      1  0.5513190000000  0.5513130000000  0.5129340000000 1.0
C      1  0.4188520000000  0.5508620000000  0.5344720000000 1.0
C      1  0.5221480000000  0.3933760000000  0.5081990000000 1.0
C      1  0.4600870000000  0.5463510000000  0.5446560000000 1.0
C      1  0.5417600000000  0.4646360000000  0.4707920000000 1.0
C      1  0.5380140000000  0.5777990000000  0.4560950000000 1.0
C      1  0.4239230000000  0.4702680000000  0.4410980000000 1.0
C      1  0.5817120000000  0.5650770000000  0.4909090000000 1.0
C      1  0.5762290000000  0.4528140000000  0.4546300000000 1.0
C      1  0.4202270000000  0.5404000000000  0.5638410000000 1.0
C      1  0.5526360000000  0.5803070000000  0.4813680000000 1.0
C      1  0.4700670000000  0.5350730000000  0.4466700000000 1.0
C      1  0.4574990000000  0.5362580000000  0.4157600000000 1.0
C      1  0.5375030000000  0.5086180000000  0.4522780000000 1.0
C      1  0.4303870000000  0.5606560000000  0.4659960000000 1.0
C      1  0.5236410000000  0.5341430000000  0.5993210000000 1.0
C      1  0.4904220000000  0.5760260000000  0.5731200000000 1.0
C      1  0.4647590000000  0.5636190000000  0.4320560000000 1.0
C      1  0.5114780000000  0.5500650000000  0.5136000000000 1.0
C      1  0.5657420000000  0.4834890000000  0.4863610000000 1.0
C      1  0.4275540000000  0.4259880000000  0.5205440000000 1.0
C      1  0.5016040000000  0.4270950000000  0.4822290000000 1.0
C      1  0.4587180000000  0.5073010000000  0.4132970000000 1.0
C      1  0.4665760000000  0.4518180000000  0.5796400000000 1.0
C      1  0.4155190000000  0.5466500000000  0.4415550000000 1.0
C      1  0.5429040000000  0.5112180000000  0.5830870000000 1.0
C      1  0.5642410000000  0.4212090000000  0.5038070000000 1.0
C      1  0.5889640000000  0.5107830000000  0.5448670000000 1.0
C      1  0.5563460000000  0.4156570000000  0.5367220000000 1.0
C      1  0.4020540000000  0.4664400000000  0.5315860000000 1.0
C      1  0.4880540000000  0.5324350000000  0.5571630000000 1.0
C      1  0.5551030000000  0.5735230000000  0.3793530000000 1.0
C      1  0.5502970000000  0.4330580000000  0.4443650000000 1.0
C      1  0.4546680000000  0.4873120000000  0.3939560000000 1.0
C      1  0.5407530000000  0.4022320000000  0.4900350000000 1.0
C      1  0.5282900000000  0.4930740000000  0.4740980000000 1.0
C      1  0.4963910000000  0.5880350000000  0.5476190000000 1.0
C      1  0.5806550000000  0.4463930000000  0.4875710000000 1.0
C      1  0.5953520000000  0.5213900000000  0.5186260000000 1.0
C      1  0.4334010000000  0.5075420000000  0.5274250000000 1.0
C      1  0.5219090000000  0.4688380000000  0.5636670000000 1.0
C      1  0.4352700000000  0.4677250000000  0.5682180000000 1.0
C      1  0.5479370000000  0.5132390000000  0.5023580000000 1.0
C      1  0.5277160000000  0.4190350000000  0.4304780000000 1.0
C      1  0.5317710000000  0.4122460000000  0.5603680000000 1.0
C      1  0.4725050000000  0.4246220000000  0.5601090000000 1.0
C      1  0.5021110000000  0.3988500000000  0.4742840000000 1.0
C      1  0.4294170000000  0.5762890000000  0.4956620000000 1.0
C      1  0.4974400000000  0.4134010000000  0.5568840000000 1.0
C      1  0.5006200000000  0.5290380000000  0.4476420000000 1.0
C      1  0.5165280000000  0.5172170000000  0.4071760000000 1.0
C      1  0.5109870000000  0.4286530000000  0.4051440000000 1.0
C      1  0.5338030000000  0.4406650000000  0.5323130000000 1.0
C      1  0.4446470000000  0.4522970000000  0.4474760000000 1.0
C      1  0.4301090000000  0.5274690000000  0.4734020000000 1.0
C      1  0.4792080000000  0.4987830000000  0.5375800000000 1.0
C      1  0.4934000000000  0.5250080000000  0.4773740000000 1.0
C      1  0.3899930000000  0.5079450000000  0.4951300000000 1.0
C      1  0.5694800000000  0.5627150000000  0.5396780000000 1.0
C      1  0.5194260000000  0.5532040000000  0.4410630000000 1.0
C      1  0.4852580000000  0.4388230000000  0.4049010000000 1.0
C      1  0.4286110000000  0.4392290000000  0.5579450000000 1.0
C      1  0.5032910000000  0.4571960000000  0.4927060000000 1.0
C      1  0.5360700000000  0.5867420000000  0.5030370000000 1.0
C      1  0.4553560000000  0.5824090000000  0.4740190000000 1.0
C      1  0.5725170000000  0.5186990000000  0.4202990000000 1.0
C      1  0.4040730000000  0.4377830000000  0.5391270000000 1.0
C      1  0.5412790000000  0.5585010000000  0.3957860000000 1.0
C      1  0.5444210000000  0.5628800000000  0.5628780000000 1.0
C      1  0.4462420000000  0.5647600000000  0.5231080000000 1.0
C      1  0.4509000000000  0.4249290000000  0.5417360000000 1.0
C      1  0.5749940000000  0.5095320000000  0.5760720000000 1.0
C      1  0.4878910000000  0.5925070000000  0.5187930000000 1.0
C      1  0.4660330000000  0.5613990000000  0.5737260000000 1.0
C      1  0.5061100000000  0.5090380000000  0.5981570000000 1.0
C      1  0.4721390000000  0.4960750000000  0.4393370000000 1.0
C      1  0.5103170000000  0.5064230000000  0.4907690000000 1.0
C      1  0.4133490000000  0.4834710000000  0.5527430000000 1.0
C      1  0.4093990000000  0.5144620000000  0.5476100000000 1.0
C      1  0.5018850000000  0.4591110000000  0.4586850000000 1.0
C      1  0.4040030000000  0.5091100000000  0.4739290000000 1.0
C      1  0.4822570000000  0.5109810000000  0.5804380000000 1.0
C      1  0.5901750000000  0.4715340000000  0.5259420000000 1.0
C      1  0.5473440000000  0.5407590000000  0.4818950000000 1.0
C      1  0.5189160000000  0.4757200000000  0.4394080000000 1.0
C      1  0.5647830000000  0.5369250000000  0.5618100000000 1.0
C      1  0.5139470000000  0.5506980000000  0.5534370000000 1.0
C      1  0.5175080000000  0.5052170000000  0.3823010000000 1.0
C      1  0.4988480000000  0.4434530000000  0.5831020000000 1.0
C      1  0.5956700000000  0.4736730000000  0.4734900000000 1.0
C      1  0.4798220000000  0.4709950000000  0.5326630000000 1.0
C      1  0.5072490000000  0.5117500000000  0.5414340000000 1.0
C      1  0.5266830000000  0.5426420000000  0.4131350000000 1.0
C      1  0.4946370000000  0.4569290000000  0.5521300000000 1.0
C      1  0.4559490000000  0.5125490000000  0.4648030000000 1.0
C      1  0.4108420000000  0.5211430000000  0.4344910000000 1.0
C      1  0.5102290000000  0.3952660000000  0.4464200000000 1.0
C      1  0.5905730000000  0.5503240000000  0.5159460000000 1.0
END
