TITL C-2778424-3986-395 0.0126526215131455 125000 -1042.27495812188 0 0 182 (C1) n - 1
REM
REM in /home/nfs/bkarasulu/CARBON/AIRSS/Generating-Clusters/REBO/Only-C1/SD-CG/HFTN-CG
REM
REM
REM
REM
REM
REM ./C.cell (11c1c37f851c82e70ff6c80c92926a4b)
REM
REM compiler GCC version 9.2.1 20190827 (Red Hat 9.2.1-1)
REM options -cpp -mtune=generic -march=x86-64 -g -O0 -fpre-include=/usr/include/finclude/math-vector-fortran.h
REM seed 1031412942 -2099667010 -2141498734 -208278359 -1849977993 -515689958 784711861 -208879841 1524054788 -152489137 -1264373658 1466912966 -1332193540 1182763037 987353276 -898381528 -1218703340 -1846062962 -1646622252 -546714675 -294561516 -1457299408 -1985056856 -1363565113 803018084 -1653446021 213770525 21531031 -1519971286 -1953704645 299817320 -1698689929 1641140344
REM
CELL 1.54180   50.00000   50.00000   50.00000   90.00000   90.00000   90.00000
LATT -1
SFAC C  
C      1  0.5597420000000  0.4535130000000  0.5178410000000 1.0
C      1  0.5812270000000  0.5714850000000  0.5324520000000 1.0
C      1  0.4884980000000  0.4065060000000  0.4501320000000 1.0
C      1  0.4378370000000  0.4356970000000  0.5734500000000 1.0
C      1  0.5499160000000  0.5731280000000  0.5379230000000 1.0
C      1  0.5839850000000  0.4736590000000  0.4358450000000 1.0
C      1  0.4862840000000  0.5794360000000  0.4403670000000 1.0
C      1  0.4433730000000  0.4102400000000  0.5080570000000 1.0
C      1  0.4465530000000  0.5263040000000  0.4122280000000 1.0
C      1  0.4535180000000  0.4705880000000  0.4120370000000 1.0
C      1  0.5438530000000  0.4841140000000  0.5954150000000 1.0
C      1  0.4258690000000  0.4620820000000  0.4104770000000 1.0
C      1  0.4096330000000  0.4642420000000  0.5459090000000 1.0
C      1  0.5336740000000  0.4850680000000  0.4046450000000 1.0
C      1  0.5411330000000  0.4110930000000  0.4801740000000 1.0
C      1  0.4835300000000  0.4817080000000  0.6198040000000 1.0
C      1  0.5089030000000  0.4256090000000  0.4982200000000 1.0
C      1  0.4635630000000  0.5504590000000  0.4248340000000 1.0
C      1  0.5286910000000  0.4531360000000  0.5037710000000 1.0
C      1  0.5222830000000  0.5526220000000  0.4014670000000 1.0
C      1  0.6071370000000  0.5297290000000  0.5191270000000 1.0
C      1  0.4538640000000  0.4398080000000  0.4281650000000 1.0
C      1  0.5217150000000  0.4593730000000  0.4000040000000 1.0
C      1  0.4138530000000  0.4901460000000  0.5664770000000 1.0
C      1  0.4721610000000  0.4490030000000  0.5020870000000 1.0
C      1  0.5448380000000  0.5105060000000  0.4003380000000 1.0
C      1  0.5134930000000  0.5888430000000  0.4508310000000 1.0
C      1  0.6031570000000  0.5305860000000  0.4881950000000 1.0
C      1  0.3962180000000  0.5439520000000  0.4836750000000 1.0
C      1  0.4809830000000  0.5184620000000  0.5880550000000 1.0
C      1  0.6001540000000  0.5302120000000  0.4599830000000 1.0
C      1  0.4560880000000  0.4960170000000  0.4504260000000 1.0
C      1  0.5082880000000  0.4830790000000  0.4298420000000 1.0
C      1  0.4344760000000  0.4579920000000  0.5910240000000 1.0
C      1  0.4568350000000  0.5449120000000  0.5748240000000 1.0
C      1  0.4389680000000  0.5690110000000  0.4631000000000 1.0
C      1  0.4935320000000  0.5585750000000  0.4164480000000 1.0
C      1  0.4450150000000  0.4886750000000  0.5807920000000 1.0
C      1  0.4352600000000  0.5369150000000  0.4628790000000 1.0
C      1  0.5394390000000  0.4330820000000  0.5871170000000 1.0
C      1  0.4792520000000  0.5081480000000  0.5227720000000 1.0
C      1  0.4481180000000  0.4203150000000  0.4770280000000 1.0
C      1  0.5375590000000  0.4557600000000  0.5426110000000 1.0
C      1  0.6075530000000  0.4948520000000  0.5547270000000 1.0
C      1  0.5352800000000  0.4099270000000  0.5136480000000 1.0
C      1  0.5245460000000  0.5271670000000  0.3883750000000 1.0
C      1  0.5753640000000  0.5037100000000  0.4764240000000 1.0
C      1  0.4702230000000  0.4533650000000  0.5461520000000 1.0
C      1  0.5659470000000  0.5210950000000  0.4237030000000 1.0
C      1  0.4630390000000  0.5261900000000  0.4486410000000 1.0
C      1  0.4848840000000  0.4342600000000  0.5903880000000 1.0
C      1  0.5305550000000  0.5786520000000  0.5158420000000 1.0
C      1  0.4167910000000  0.5214790000000  0.5151930000000 1.0
C      1  0.4980700000000  0.4821330000000  0.5644430000000 1.0
C      1  0.4698800000000  0.5975420000000  0.5581930000000 1.0
C      1  0.4606690000000  0.5804830000000  0.5152930000000 1.0
C      1  0.4228110000000  0.4373590000000  0.5488140000000 1.0
C      1  0.4965540000000  0.5546940000000  0.5938330000000 1.0
C      1  0.5502870000000  0.5802020000000  0.4888560000000 1.0
C      1  0.4389730000000  0.4575990000000  0.5067010000000 1.0
C      1  0.4936470000000  0.4607080000000  0.4000920000000 1.0
C      1  0.5718250000000  0.5272680000000  0.5008260000000 1.0
C      1  0.5516950000000  0.4646060000000  0.4338210000000 1.0
C      1  0.5490210000000  0.5418240000000  0.5475690000000 1.0
C      1  0.4985340000000  0.3780160000000  0.5021280000000 1.0
C      1  0.5509560000000  0.4172830000000  0.4095800000000 1.0
C      1  0.4626460000000  0.4982780000000  0.4943890000000 1.0
C      1  0.4657220000000  0.5669440000000  0.5450860000000 1.0
C      1  0.5322410000000  0.5859280000000  0.4257580000000 1.0
C      1  0.5936450000000  0.5464010000000  0.5392210000000 1.0
C      1  0.5339060000000  0.4399380000000  0.4205240000000 1.0
C      1  0.4600000000000  0.4159750000000  0.4480160000000 1.0
C      1  0.5018190000000  0.5059430000000  0.5484020000000 1.0
C      1  0.4139730000000  0.5506550000000  0.5328260000000 1.0
C      1  0.5043580000000  0.4875090000000  0.5114210000000 1.0
C      1  0.5245500000000  0.5543280000000  0.5765890000000 1.0
C      1  0.5126840000000  0.4590480000000  0.5578080000000 1.0
C      1  0.5586500000000  0.4265320000000  0.5662770000000 1.0
C      1  0.5805610000000  0.5154230000000  0.5839760000000 1.0
C      1  0.5653970000000  0.5202590000000  0.5283520000000 1.0
C      1  0.4842510000000  0.5978470000000  0.5012830000000 1.0
C      1  0.5303260000000  0.4591810000000  0.6023010000000 1.0
C      1  0.4998070000000  0.5107420000000  0.3850930000000 1.0
C      1  0.4325320000000  0.5093640000000  0.4946500000000 1.0
C      1  0.5197300000000  0.4109580000000  0.4626140000000 1.0
C      1  0.4606300000000  0.5337630000000  0.5369860000000 1.0
C      1  0.5247750000000  0.6139490000000  0.4815390000000 1.0
C      1  0.4895640000000  0.5612490000000  0.4670790000000 1.0
C      1  0.5719950000000  0.5398420000000  0.4515190000000 1.0
C      1  0.4748610000000  0.4195420000000  0.5447550000000 1.0
C      1  0.4114870000000  0.5271310000000  0.4453170000000 1.0
C      1  0.4640960000000  0.4251160000000  0.5736870000000 1.0
C      1  0.5479670000000  0.5567030000000  0.4219820000000 1.0
C      1  0.4658830000000  0.4811130000000  0.5408340000000 1.0
C      1  0.5372370000000  0.4945080000000  0.4419740000000 1.0
C      1  0.4367170000000  0.4861440000000  0.5417590000000 1.0
C      1  0.4793780000000  0.4207920000000  0.4862900000000 1.0
C      1  0.4309900000000  0.4314020000000  0.5222010000000 1.0
C      1  0.5002220000000  0.4579820000000  0.6075870000000 1.0
C      1  0.4988910000000  0.4574700000000  0.5191960000000 1.0
C      1  0.4619620000000  0.5504150000000  0.4802500000000 1.0
C      1  0.4817210000000  0.4748350000000  0.4497330000000 1.0
C      1  0.4008640000000  0.5020690000000  0.5371200000000 1.0
C      1  0.5849450000000  0.5030740000000  0.4446220000000 1.0
C      1  0.4906410000000  0.3907260000000  0.4797500000000 1.0
C      1  0.4635770000000  0.5982310000000  0.4517640000000 1.0
C      1  0.6075590000000  0.5013960000000  0.5254740000000 1.0
C      1  0.4731580000000  0.5733830000000  0.5788300000000 1.0
C      1  0.5090770000000  0.3934450000000  0.5218250000000 1.0
C      1  0.4198440000000  0.5273920000000  0.4179520000000 1.0
C      1  0.5708130000000  0.4937370000000  0.5980810000000 1.0
C      1  0.4312470000000  0.5307920000000  0.5769000000000 1.0
C      1  0.4311290000000  0.5126260000000  0.6005180000000 1.0
C      1  0.4637540000000  0.5092660000000  0.5598650000000 1.0
C      1  0.4174380000000  0.5553660000000  0.4935270000000 1.0
C      1  0.5045800000000  0.5316130000000  0.4302970000000 1.0
C      1  0.4200860000000  0.4430540000000  0.4313980000000 1.0
C      1  0.4145660000000  0.5279880000000  0.5544010000000 1.0
C      1  0.4931830000000  0.5074780000000  0.4175040000000 1.0
C      1  0.6091520000000  0.4632480000000  0.4878570000000 1.0
C      1  0.4273490000000  0.5862960000000  0.4133010000000 1.0
C      1  0.4357450000000  0.5833550000000  0.4927580000000 1.0
C      1  0.4423700000000  0.5520700000000  0.5165110000000 1.0
C      1  0.5221850000000  0.5228160000000  0.5058380000000 1.0
C      1  0.5889700000000  0.4490550000000  0.5329150000000 1.0
C      1  0.4623590000000  0.5012150000000  0.4086710000000 1.0
C      1  0.5631820000000  0.4684210000000  0.5563070000000 1.0
C      1  0.5089050000000  0.4303030000000  0.4368500000000 1.0
C      1  0.5292850000000  0.5321420000000  0.4778590000000 1.0
C      1  0.4772120000000  0.4787030000000  0.5872420000000 1.0
C      1  0.5630880000000  0.5831860000000  0.4372080000000 1.0
C      1  0.5791610000000  0.5732780000000  0.4926040000000 1.0
C      1  0.4113470000000  0.4517060000000  0.4592370000000 1.0
C      1  0.5101580000000  0.5532640000000  0.5059010000000 1.0
C      1  0.4380540000000  0.4496900000000  0.4755420000000 1.0
C      1  0.5303600000000  0.5021080000000  0.5769070000000 1.0
C      1  0.5763380000000  0.4338280000000  0.4983180000000 1.0
C      1  0.5432550000000  0.5022920000000  0.5490580000000 1.0
C      1  0.5785300000000  0.5338770000000  0.5631010000000 1.0
C      1  0.4331420000000  0.4928580000000  0.4683130000000 1.0
C      1  0.4162800000000  0.4796020000000  0.5159680000000 1.0
C      1  0.5026110000000  0.4256890000000  0.5316480000000 1.0
C      1  0.4888840000000  0.5404120000000  0.5634300000000 1.0
C      1  0.5410040000000  0.5750470000000  0.5683500000000 1.0
C      1  0.5555260000000  0.5381590000000  0.4746910000000 1.0
C      1  0.5278760000000  0.4713780000000  0.4784380000000 1.0
C      1  0.6107860000000  0.4504990000000  0.5169450000000 1.0
C      1  0.3978420000000  0.5725950000000  0.5352860000000 1.0
C      1  0.5613350000000  0.4298490000000  0.4754460000000 1.0
C      1  0.5109940000000  0.4365860000000  0.5757200000000 1.0
C      1  0.5613350000000  0.4887870000000  0.5031400000000 1.0
C      1  0.5924750000000  0.4846530000000  0.5071160000000 1.0
C      1  0.4617130000000  0.5995040000000  0.4803340000000 1.0
C      1  0.3745560000000  0.5327990000000  0.4740240000000 1.0
C      1  0.4740810000000  0.5090690000000  0.6160820000000 1.0
C      1  0.5455330000000  0.4228070000000  0.5385610000000 1.0
C      1  0.5057470000000  0.5350810000000  0.4607120000000 1.0
C      1  0.4476240000000  0.5160110000000  0.6232190000000 1.0
C      1  0.5511560000000  0.4581960000000  0.4638390000000 1.0
C      1  0.5355510000000  0.5278330000000  0.4350980000000 1.0
C      1  0.6041580000000  0.5697150000000  0.4963310000000 1.0
C      1  0.4471270000000  0.5756560000000  0.4334170000000 1.0
C      1  0.4079280000000  0.4819250000000  0.4600860000000 1.0
C      1  0.4823230000000  0.4835250000000  0.3876900000000 1.0
C      1  0.4616490000000  0.3989130000000  0.5251670000000 1.0
C      1  0.4839410000000  0.5147750000000  0.4732540000000 1.0
C      1  0.4650190000000  0.4703790000000  0.4791780000000 1.0
C      1  0.4841390000000  0.5353210000000  0.5013090000000 1.0
C      1  0.5067740000000  0.4902280000000  0.4794140000000 1.0
C      1  0.5181240000000  0.5331220000000  0.5507750000000 1.0
C      1  0.6038360000000  0.4580060000000  0.4546320000000 1.0
C      1  0.5787560000000  0.4657900000000  0.4746070000000 1.0
C      1  0.5197480000000  0.5709010000000  0.4784600000000 1.0
C      1  0.3897810000000  0.4371170000000  0.4697330000000 1.0
C      1  0.3939560000000  0.5054680000000  0.4522090000000 1.0
C      1  0.5826850000000  0.4448640000000  0.5625170000000 1.0
C      1  0.5345860000000  0.4971320000000  0.5184860000000 1.0
C      1  0.5141960000000  0.5248180000000  0.5895730000000 1.0
C      1  0.5450690000000  0.5967330000000  0.4616360000000 1.0
C      1  0.5115650000000  0.6016580000000  0.5025270000000 1.0
C      1  0.4843080000000  0.4508520000000  0.4280070000000 1.0
C      1  0.5760620000000  0.4957890000000  0.5494560000000 1.0
END
