TITL C-2778429-3646-765 0.0645207063971235 125000 -721.839264256755 0 0 125 (C1) n - 1
REM
REM in /home/nfs/bkarasulu/CARBON/AIRSS/Generating-Clusters/REBO/Only-C1/SD-CG/HFTN-CG
REM
REM
REM
REM
REM
REM ./C.cell (11c1c37f851c82e70ff6c80c92926a4b)
REM
REM compiler GCC version 9.2.1 20190827 (Red Hat 9.2.1-1)
REM options -cpp -mtune=generic -march=x86-64 -g -O0 -fpre-include=/usr/include/finclude/math-vector-fortran.h
REM seed 1780599695 -1357541084 2057092551 1672903000 -1754941563 1051628490 1738367278 1955077445 1006383036 -1431776981 -770770077 120995706 1688706746 -1790601523 -399854994 -925340356 -1532614974 1328422525 1401417087 -650730336 290929639 -767663244 -1326410546 -511396266 182783558 1425874668 790961948 89062631 -1503813080 -1541505656 2070903708 650844786 177429051
REM
CELL 1.54180   50.00000   50.00000   50.00000   90.00000   90.00000   90.00000
LATT -1
SFAC C  
C      1  0.5888320000000  0.4610240000000  0.4625620000000 1.0
C      1  0.4088940000000  0.4812860000000  0.4937760000000 1.0
C      1  0.5340380000000  0.5336680000000  0.5748180000000 1.0
C      1  0.5456630000000  0.4237560000000  0.4974200000000 1.0
C      1  0.4362020000000  0.5214030000000  0.5158910000000 1.0
C      1  0.4544060000000  0.5148250000000  0.4362900000000 1.0
C      1  0.4675360000000  0.5444830000000  0.5067080000000 1.0
C      1  0.4654100000000  0.4154010000000  0.4944990000000 1.0
C      1  0.4570480000000  0.4988890000000  0.5024640000000 1.0
C      1  0.5379750000000  0.5607940000000  0.5564530000000 1.0
C      1  0.4458230000000  0.5901730000000  0.4805390000000 1.0
C      1  0.4935040000000  0.5320730000000  0.4617340000000 1.0
C      1  0.5586280000000  0.5172850000000  0.5787070000000 1.0
C      1  0.5345020000000  0.4729820000000  0.5080150000000 1.0
C      1  0.4515010000000  0.5386440000000  0.4832690000000 1.0
C      1  0.5655760000000  0.4472370000000  0.4449950000000 1.0
C      1  0.4195850000000  0.4887940000000  0.4671530000000 1.0
C      1  0.4264260000000  0.5687330000000  0.5193750000000 1.0
C      1  0.5812890000000  0.4892680000000  0.5048950000000 1.0
C      1  0.5190770000000  0.4523410000000  0.4891970000000 1.0
C      1  0.4576520000000  0.5080570000000  0.4695410000000 1.0
C      1  0.4790960000000  0.4507970000000  0.4610870000000 1.0
C      1  0.5654810000000  0.5563420000000  0.5377040000000 1.0
C      1  0.4702420000000  0.4093790000000  0.5218820000000 1.0
C      1  0.4561890000000  0.4933230000000  0.4159000000000 1.0
C      1  0.4746700000000  0.5022160000000  0.3946820000000 1.0
C      1  0.4826730000000  0.5315810000000  0.5346640000000 1.0
C      1  0.4533840000000  0.4256260000000  0.5390810000000 1.0
C      1  0.4910180000000  0.5980870000000  0.5064620000000 1.0
C      1  0.4609300000000  0.4234460000000  0.4518400000000 1.0
C      1  0.5456000000000  0.5490270000000  0.4575710000000 1.0
C      1  0.4632060000000  0.5414880000000  0.4184130000000 1.0
C      1  0.5182910000000  0.5285570000000  0.5007290000000 1.0
C      1  0.4788600000000  0.5136990000000  0.5821880000000 1.0
C      1  0.5019080000000  0.4900220000000  0.3962630000000 1.0
C      1  0.5851510000000  0.5832690000000  0.4928810000000 1.0
C      1  0.4737030000000  0.5312320000000  0.3939060000000 1.0
C      1  0.5326090000000  0.5035660000000  0.4824450000000 1.0
C      1  0.5296170000000  0.4890830000000  0.4117150000000 1.0
C      1  0.5497690000000  0.4240960000000  0.4632510000000 1.0
C      1  0.3948850000000  0.4576260000000  0.5007650000000 1.0
C      1  0.5371830000000  0.5361770000000  0.5350420000000 1.0
C      1  0.4184110000000  0.5438170000000  0.5079140000000 1.0
C      1  0.4534310000000  0.5708180000000  0.5220830000000 1.0
C      1  0.4768280000000  0.4799370000000  0.4727570000000 1.0
C      1  0.5101050000000  0.4839990000000  0.5664540000000 1.0
C      1  0.5593490000000  0.4740440000000  0.4860750000000 1.0
C      1  0.5035800000000  0.4318470000000  0.4358220000000 1.0
C      1  0.4814430000000  0.4595560000000  0.4997050000000 1.0
C      1  0.4530610000000  0.4593630000000  0.5764680000000 1.0
C      1  0.4120320000000  0.5422510000000  0.4784290000000 1.0
C      1  0.5801010000000  0.4804800000000  0.5330610000000 1.0
C      1  0.5454460000000  0.4675880000000  0.4331940000000 1.0
C      1  0.5145220000000  0.5898450000000  0.5214070000000 1.0
C      1  0.5097330000000  0.5148140000000  0.5815790000000 1.0
C      1  0.5273270000000  0.5665740000000  0.4795070000000 1.0
C      1  0.4835090000000  0.5661660000000  0.5354770000000 1.0
C      1  0.4731100000000  0.4759350000000  0.5461920000000 1.0
C      1  0.4930700000000  0.4522470000000  0.5481090000000 1.0
C      1  0.5222310000000  0.4757640000000  0.4687010000000 1.0
C      1  0.5611580000000  0.4590040000000  0.5659360000000 1.0
C      1  0.5930680000000  0.5286260000000  0.4995860000000 1.0
C      1  0.4898540000000  0.5133570000000  0.4894760000000 1.0
C      1  0.4888720000000  0.4884950000000  0.5117670000000 1.0
C      1  0.4510690000000  0.5235270000000  0.5448190000000 1.0
C      1  0.5753600000000  0.5265830000000  0.5283840000000 1.0
C      1  0.5436000000000  0.4441520000000  0.5208570000000 1.0
C      1  0.4384030000000  0.4459930000000  0.5206910000000 1.0
C      1  0.4310880000000  0.4768820000000  0.5657300000000 1.0
C      1  0.4072220000000  0.4433650000000  0.5208290000000 1.0
C      1  0.4775940000000  0.5601220000000  0.5670710000000 1.0
C      1  0.4769510000000  0.5900300000000  0.4772190000000 1.0
C      1  0.4192930000000  0.5169000000000  0.4626500000000 1.0
C      1  0.4923890000000  0.5014040000000  0.4515750000000 1.0
C      1  0.5141670000000  0.4605740000000  0.4393090000000 1.0
C      1  0.4341840000000  0.4674110000000  0.4518310000000 1.0
C      1  0.5542380000000  0.4665230000000  0.5930160000000 1.0
C      1  0.5688150000000  0.4498900000000  0.5371430000000 1.0
C      1  0.4767270000000  0.4515980000000  0.4284820000000 1.0
C      1  0.5488570000000  0.5436470000000  0.5039800000000 1.0
C      1  0.4992480000000  0.4114280000000  0.5286650000000 1.0
C      1  0.5340040000000  0.5806370000000  0.5022180000000 1.0
C      1  0.5478320000000  0.4826780000000  0.5451400000000 1.0
C      1  0.5542450000000  0.4967250000000  0.5986040000000 1.0
C      1  0.4445170000000  0.4346610000000  0.4924510000000 1.0
C      1  0.5556850000000  0.5208010000000  0.4642300000000 1.0
C      1  0.5105550000000  0.4080570000000  0.5546840000000 1.0
C      1  0.4790690000000  0.5814480000000  0.4456540000000 1.0
C      1  0.5198760000000  0.4437930000000  0.5397350000000 1.0
C      1  0.4582110000000  0.5649270000000  0.4365180000000 1.0
C      1  0.5953880000000  0.4862120000000  0.4740080000000 1.0
C      1  0.4299540000000  0.4968360000000  0.5461910000000 1.0
C      1  0.5536920000000  0.5055380000000  0.4293270000000 1.0
C      1  0.5861830000000  0.5158690000000  0.4756920000000 1.0
C      1  0.5159380000000  0.4873510000000  0.5330060000000 1.0
C      1  0.5051210000000  0.5736810000000  0.4368300000000 1.0
C      1  0.5572950000000  0.5115360000000  0.5030150000000 1.0
C      1  0.4504920000000  0.4689190000000  0.4275720000000 1.0
C      1  0.4200320000000  0.4934290000000  0.5165810000000 1.0
C      1  0.4997790000000  0.5553380000000  0.5076010000000 1.0
C      1  0.5116290000000  0.5194370000000  0.5327160000000 1.0
C      1  0.4655360000000  0.5353170000000  0.5705050000000 1.0
C      1  0.4977510000000  0.4347320000000  0.5078750000000 1.0
C      1  0.5207480000000  0.4325890000000  0.5692210000000 1.0
C      1  0.4682840000000  0.4881930000000  0.5750830000000 1.0
C      1  0.5225010000000  0.4580590000000  0.5849720000000 1.0
C      1  0.4323760000000  0.5670800000000  0.4787320000000 1.0
C      1  0.5710220000000  0.5666320000000  0.5065520000000 1.0
C      1  0.4401900000000  0.4426460000000  0.4655350000000 1.0
C      1  0.5235500000000  0.4990880000000  0.4438330000000 1.0
C      1  0.4539200000000  0.4737860000000  0.5240930000000 1.0
C      1  0.4672040000000  0.4391580000000  0.5604710000000 1.0
C      1  0.5695080000000  0.4428330000000  0.4838450000000 1.0
C      1  0.4952980000000  0.5625210000000  0.4767650000000 1.0
C      1  0.5647850000000  0.5645090000000  0.4439770000000 1.0
C      1  0.4932540000000  0.4804720000000  0.4257120000000 1.0
C      1  0.5180340000000  0.5826630000000  0.5495600000000 1.0
C      1  0.4885380000000  0.4199260000000  0.4718650000000 1.0
C      1  0.4416990000000  0.5400940000000  0.4517070000000 1.0
C      1  0.5185560000000  0.4212050000000  0.4766620000000 1.0
C      1  0.5589480000000  0.4871140000000  0.4577210000000 1.0
C      1  0.5223040000000  0.4894180000000  0.5983800000000 1.0
C      1  0.5704190000000  0.5068250000000  0.5522730000000 1.0
C      1  0.4967960000000  0.5833430000000  0.5688680000000 1.0
C      1  0.5158050000000  0.5496120000000  0.4452980000000 1.0
END
