TITL C-2778431-5191-123 -0.00116769314775216 125000 -172.33072253156 0 0 32 (C1) n - 1
REM
REM in /home/nfs/bkarasulu/CARBON/AIRSS/Generating-Clusters/REBO/Only-C1/SD-CG/HFTN-CG
REM
REM
REM
REM
REM
REM ./C.cell (11c1c37f851c82e70ff6c80c92926a4b)
REM
REM compiler GCC version 9.2.1 20190827 (Red Hat 9.2.1-1)
REM options -cpp -mtune=generic -march=x86-64 -g -O0 -fpre-include=/usr/include/finclude/math-vector-fortran.h
REM seed 775882220 276640566 843172520 793982052 -1617437368 -1721792376 -1204092325 788672421 2072790723 728988119 70907151 645072170 1725968429 1954856039 -306448074 -770235047 -1840927913 -944122691 736485866 830877410 314268850 7220539 -1121736584 -1292721032 -1250170966 1866188450 -520889112 -1368543782 324386131 -1371372784 -1338366631 1979770895 85137531
REM
CELL 1.54180   50.00000   50.00000   50.00000   90.00000   90.00000   90.00000
LATT -1
SFAC C  
C      1  0.4629850000000  0.4864880000000  0.4287700000000 1.0
C      1  0.4707610000000  0.5084560000000  0.4147300000000 1.0
C      1  0.5001120000000  0.5405820000000  0.4452900000000 1.0
C      1  0.4925900000000  0.5622020000000  0.4669130000000 1.0
C      1  0.5166570000000  0.3897790000000  0.4823240000000 1.0
C      1  0.4880780000000  0.5354550000000  0.4208250000000 1.0
C      1  0.5408880000000  0.4759640000000  0.4784030000000 1.0
C      1  0.5075000000000  0.5408790000000  0.4844330000000 1.0
C      1  0.5164240000000  0.4939480000000  0.6048040000000 1.0
C      1  0.4551650000000  0.5926460000000  0.5844460000000 1.0
C      1  0.5021590000000  0.5279390000000  0.5618640000000 1.0
C      1  0.4977410000000  0.5449120000000  0.5333450000000 1.0
C      1  0.5046420000000  0.4392300000000  0.4963370000000 1.0
C      1  0.4759560000000  0.4504850000000  0.4984240000000 1.0
C      1  0.5324630000000  0.4981300000000  0.4649940000000 1.0
C      1  0.5267500000000  0.5103420000000  0.5183280000000 1.0
C      1  0.4731980000000  0.5314290000000  0.3921800000000 1.0
C      1  0.4826620000000  0.4745710000000  0.5214630000000 1.0
C      1  0.5527320000000  0.5101850000000  0.5084320000000 1.0
C      1  0.5113870000000  0.4814710000000  0.5211690000000 1.0
C      1  0.5097170000000  0.5344200000000  0.5112300000000 1.0
C      1  0.5106920000000  0.4143320000000  0.4892810000000 1.0
C      1  0.5574400000000  0.4558270000000  0.4961440000000 1.0
C      1  0.5180100000000  0.5213420000000  0.4621670000000 1.0
C      1  0.4627570000000  0.4563940000000  0.4718950000000 1.0
C      1  0.4696790000000  0.5745250000000  0.5722880000000 1.0
C      1  0.5245960000000  0.4609120000000  0.5035510000000 1.0
C      1  0.4845860000000  0.5559140000000  0.5598020000000 1.0
C      1  0.4577830000000  0.4554530000000  0.5268210000000 1.0
C      1  0.5140450000000  0.5041400000000  0.5814390000000 1.0
C      1  0.5199530000000  0.5027070000000  0.5492150000000 1.0
C      1  0.4598940000000  0.4689410000000  0.4486940000000 1.0
END
