TITL C-2778434-4341-1063 0.147614412843796 125000 -702.353449563901 0 0 120 (C1) n - 1
REM
REM in /home/nfs/bkarasulu/CARBON/AIRSS/Generating-Clusters/REBO/Only-C1/SD-CG/HFTN-CG
REM
REM
REM
REM
REM
REM ./C.cell (11c1c37f851c82e70ff6c80c92926a4b)
REM
REM compiler GCC version 9.2.1 20190827 (Red Hat 9.2.1-1)
REM options -cpp -mtune=generic -march=x86-64 -g -O0 -fpre-include=/usr/include/finclude/math-vector-fortran.h
REM seed 689836979 1925621457 -271810321 1303980007 -1567285712 935651067 -1227972120 -2020913587 -513796321 1407588017 173315065 862150737 -264946427 -1436824136 -1670484679 1294333737 120779311 802136230 1453628690 -526121226 691514837 469236500 1793406490 -757439584 166501448 1634908102 382753264 -1197090721 -933058127 526535747 1535169192 -761524565 -1968367172
REM
CELL 1.54180   50.00000   50.00000   50.00000   90.00000   90.00000   90.00000
LATT -1
SFAC C  
C      1  0.4288820000000  0.4589660000000  0.4740590000000 1.0
C      1  0.5071030000000  0.4827520000000  0.4611810000000 1.0
C      1  0.5514380000000  0.4962470000000  0.5095780000000 1.0
C      1  0.4894640000000  0.4310650000000  0.4167790000000 1.0
C      1  0.4365220000000  0.4931680000000  0.4497720000000 1.0
C      1  0.4973070000000  0.5123270000000  0.4926860000000 1.0
C      1  0.5678630000000  0.5346860000000  0.5456320000000 1.0
C      1  0.4697820000000  0.4784040000000  0.5116760000000 1.0
C      1  0.5311450000000  0.5522170000000  0.5068640000000 1.0
C      1  0.5244270000000  0.5021730000000  0.4423480000000 1.0
C      1  0.4194400000000  0.5190900000000  0.4630790000000 1.0
C      1  0.5019510000000  0.5471120000000  0.5115080000000 1.0
C      1  0.4707390000000  0.5282730000000  0.4775570000000 1.0
C      1  0.5667500000000  0.4960070000000  0.4292200000000 1.0
C      1  0.5585550000000  0.4205140000000  0.4916090000000 1.0
C      1  0.5105480000000  0.4333950000000  0.4866800000000 1.0
C      1  0.5830100000000  0.4685410000000  0.5068020000000 1.0
C      1  0.4782330000000  0.5587290000000  0.5628820000000 1.0
C      1  0.5208850000000  0.5642490000000  0.4268410000000 1.0
C      1  0.5899410000000  0.5377300000000  0.5233170000000 1.0
C      1  0.5730100000000  0.5632170000000  0.5184230000000 1.0
C      1  0.4589350000000  0.4180820000000  0.4746100000000 1.0
C      1  0.5025430000000  0.5719960000000  0.5598140000000 1.0
C      1  0.5565600000000  0.4659280000000  0.5638760000000 1.0
C      1  0.5142180000000  0.5807680000000  0.5291190000000 1.0
C      1  0.5158450000000  0.4041030000000  0.5003580000000 1.0
C      1  0.4370230000000  0.5673760000000  0.4659080000000 1.0
C      1  0.5153060000000  0.5383240000000  0.4567780000000 1.0
C      1  0.5656930000000  0.5474600000000  0.4671370000000 1.0
C      1  0.5025990000000  0.5653240000000  0.4680180000000 1.0
C      1  0.5465060000000  0.4321700000000  0.4684240000000 1.0
C      1  0.5476360000000  0.4480180000000  0.4428640000000 1.0
C      1  0.5722030000000  0.4383550000000  0.5084720000000 1.0
C      1  0.5714170000000  0.5254390000000  0.4910450000000 1.0
C      1  0.4380480000000  0.5383650000000  0.4808380000000 1.0
C      1  0.4757020000000  0.5520570000000  0.5010370000000 1.0
C      1  0.5388710000000  0.5147220000000  0.5917310000000 1.0
C      1  0.4830370000000  0.5933390000000  0.5235190000000 1.0
C      1  0.5308100000000  0.4710740000000  0.5198550000000 1.0
C      1  0.4489070000000  0.5037930000000  0.4243990000000 1.0
C      1  0.4938210000000  0.5626160000000  0.4291100000000 1.0
C      1  0.4418910000000  0.4931540000000  0.5077940000000 1.0
C      1  0.5261500000000  0.4590710000000  0.4743800000000 1.0
C      1  0.5109230000000  0.4639840000000  0.4106300000000 1.0
C      1  0.5598110000000  0.4607260000000  0.5304440000000 1.0
C      1  0.5550790000000  0.4752420000000  0.4519910000000 1.0
C      1  0.5415610000000  0.4878240000000  0.4806100000000 1.0
C      1  0.4532220000000  0.4457610000000  0.4243740000000 1.0
C      1  0.5066390000000  0.4570690000000  0.5090550000000 1.0
C      1  0.3968630000000  0.5035930000000  0.5302470000000 1.0
C      1  0.4363260000000  0.4819170000000  0.5397320000000 1.0
C      1  0.4753500000000  0.5914930000000  0.4948350000000 1.0
C      1  0.4074460000000  0.4809890000000  0.5426850000000 1.0
C      1  0.5439560000000  0.5645660000000  0.5340030000000 1.0
C      1  0.5664170000000  0.4950820000000  0.5497590000000 1.0
C      1  0.5169660000000  0.4694510000000  0.5572110000000 1.0
C      1  0.4167660000000  0.4881740000000  0.4772020000000 1.0
C      1  0.5699700000000  0.5706340000000  0.4911680000000 1.0
C      1  0.5216400000000  0.5590960000000  0.5794950000000 1.0
C      1  0.5076480000000  0.4710650000000  0.5899450000000 1.0
C      1  0.5180930000000  0.5182600000000  0.5489920000000 1.0
C      1  0.4911200000000  0.4174090000000  0.4661180000000 1.0
C      1  0.5199800000000  0.4200260000000  0.5518560000000 1.0
C      1  0.4141500000000  0.5098280000000  0.5022800000000 1.0
C      1  0.4861570000000  0.4313980000000  0.5186350000000 1.0
C      1  0.4619850000000  0.4499070000000  0.5123380000000 1.0
C      1  0.5399030000000  0.4810680000000  0.5875880000000 1.0
C      1  0.4940320000000  0.4811020000000  0.4928670000000 1.0
C      1  0.5500880000000  0.5188530000000  0.4573900000000 1.0
C      1  0.4281710000000  0.5454170000000  0.4432650000000 1.0
C      1  0.5025480000000  0.5237470000000  0.4304280000000 1.0
C      1  0.5315770000000  0.5450680000000  0.5551910000000 1.0
C      1  0.4469640000000  0.4224080000000  0.4460230000000 1.0
C      1  0.4843260000000  0.4816030000000  0.5592810000000 1.0
C      1  0.5340270000000  0.4425370000000  0.5548870000000 1.0
C      1  0.4763230000000  0.4835400000000  0.4573820000000 1.0
C      1  0.4809000000000  0.4544070000000  0.5797060000000 1.0
C      1  0.5390560000000  0.5599330000000  0.4525790000000 1.0
C      1  0.5116430000000  0.5351210000000  0.5976850000000 1.0
C      1  0.5236010000000  0.5167530000000  0.4791180000000 1.0
C      1  0.4748440000000  0.4295630000000  0.5679300000000 1.0
C      1  0.5597130000000  0.5204680000000  0.5704950000000 1.0
C      1  0.5866510000000  0.4955340000000  0.4908420000000 1.0
C      1  0.4804140000000  0.5771130000000  0.4524500000000 1.0
C      1  0.4509770000000  0.5323620000000  0.4298770000000 1.0
C      1  0.4522090000000  0.5167100000000  0.5765770000000 1.0
C      1  0.4563980000000  0.4971610000000  0.4772330000000 1.0
C      1  0.5089180000000  0.5830260000000  0.4953540000000 1.0
C      1  0.4689820000000  0.4919030000000  0.4088510000000 1.0
C      1  0.5388040000000  0.5729190000000  0.4821140000000 1.0
C      1  0.4922530000000  0.4217070000000  0.5463730000000 1.0
C      1  0.5515420000000  0.5296120000000  0.5161360000000 1.0
C      1  0.5194000000000  0.4935360000000  0.4104660000000 1.0
C      1  0.4807720000000  0.5335930000000  0.5823330000000 1.0
C      1  0.4956120000000  0.4180480000000  0.4367250000000 1.0
C      1  0.4983180000000  0.5084900000000  0.5714290000000 1.0
C      1  0.4533160000000  0.4145940000000  0.5751060000000 1.0
C      1  0.5424000000000  0.3996700000000  0.5028800000000 1.0
C      1  0.5341630000000  0.4931740000000  0.5453510000000 1.0
C      1  0.4920560000000  0.5087400000000  0.4044020000000 1.0
C      1  0.5094450000000  0.5013090000000  0.6022300000000 1.0
C      1  0.5764440000000  0.4987500000000  0.4619360000000 1.0
C      1  0.4539880000000  0.5552750000000  0.5191220000000 1.0
C      1  0.4598920000000  0.5840400000000  0.4710200000000 1.0
C      1  0.4340010000000  0.5386330000000  0.5616870000000 1.0
C      1  0.4155560000000  0.5283910000000  0.5373090000000 1.0
C      1  0.4821280000000  0.4076750000000  0.4973620000000 1.0
C      1  0.4769650000000  0.5379040000000  0.4454790000000 1.0
C      1  0.4301300000000  0.4497300000000  0.4469030000000 1.0
C      1  0.4742320000000  0.5018540000000  0.5325530000000 1.0
C      1  0.5503770000000  0.5008130000000  0.4078520000000 1.0
C      1  0.4456050000000  0.4423360000000  0.4903430000000 1.0
C      1  0.4520280000000  0.4899280000000  0.5634960000000 1.0
C      1  0.5817840000000  0.5047020000000  0.5233090000000 1.0
C      1  0.4553590000000  0.5575530000000  0.5472550000000 1.0
C      1  0.4283570000000  0.5400650000000  0.5097890000000 1.0
C      1  0.5288790000000  0.4468620000000  0.4217990000000 1.0
C      1  0.4989340000000  0.5193560000000  0.5253660000000 1.0
C      1  0.4770210000000  0.4619430000000  0.4108150000000 1.0
C      1  0.4491880000000  0.5195030000000  0.5368680000000 1.0
END
