TITL C-2778428-5639-923 -0.000292344712010797 125000 -678.165260577244 0 0 116 (C1) n - 1
REM
REM in /home/nfs/bkarasulu/CARBON/AIRSS/Generating-Clusters/REBO/Only-C1/SD-CG/HFTN-CG
REM
REM
REM
REM
REM
REM ./C.cell (11c1c37f851c82e70ff6c80c92926a4b)
REM
REM compiler GCC version 9.2.1 20190827 (Red Hat 9.2.1-1)
REM options -cpp -mtune=generic -march=x86-64 -g -O0 -fpre-include=/usr/include/finclude/math-vector-fortran.h
REM seed 1739112315 1866453768 -69534383 -1648072549 1616743950 -643692801 -1233362503 -1386300728 586760333 -1039253828 -552623551 -806584543 -997505953 -1713415233 -1000375821 1411231510 -771936584 517819057 -660602947 -1027037267 -697182799 -666546223 575179100 347513873 993443708 -140274722 1960380595 -590735130 -888873855 -10550796 -924919103 -471204839 -1546794112
REM
CELL 1.54180   50.00000   50.00000   50.00000   90.00000   90.00000   90.00000
LATT -1
SFAC C  
C      1  0.4547250000000  0.5434770000000  0.4297260000000 1.0
C      1  0.5485330000000  0.4951370000000  0.5003640000000 1.0
C      1  0.5309320000000  0.4184320000000  0.5160590000000 1.0
C      1  0.5716430000000  0.4945610000000  0.4816650000000 1.0
C      1  0.5661090000000  0.5424400000000  0.5020670000000 1.0
C      1  0.4989780000000  0.4444540000000  0.4537800000000 1.0
C      1  0.5086160000000  0.5564520000000  0.5698650000000 1.0
C      1  0.5648430000000  0.4968320000000  0.4544190000000 1.0
C      1  0.4826330000000  0.5156310000000  0.5767920000000 1.0
C      1  0.4405020000000  0.4291960000000  0.5086820000000 1.0
C      1  0.5992710000000  0.5011170000000  0.4949180000000 1.0
C      1  0.5146020000000  0.5634500000000  0.5432130000000 1.0
C      1  0.5817680000000  0.4778070000000  0.5164460000000 1.0
C      1  0.4230350000000  0.4593860000000  0.4736970000000 1.0
C      1  0.4745930000000  0.4757290000000  0.4070890000000 1.0
C      1  0.5137950000000  0.5238420000000  0.5376930000000 1.0
C      1  0.5829470000000  0.5347970000000  0.5230790000000 1.0
C      1  0.4396860000000  0.5687620000000  0.4746150000000 1.0
C      1  0.5004460000000  0.4692260000000  0.3957890000000 1.0
C      1  0.5801820000000  0.5362190000000  0.5545540000000 1.0
C      1  0.4684500000000  0.4755220000000  0.4975940000000 1.0
C      1  0.5022420000000  0.4025050000000  0.5143010000000 1.0
C      1  0.4976140000000  0.5155110000000  0.4220350000000 1.0
C      1  0.4786210000000  0.4623990000000  0.5863710000000 1.0
C      1  0.5521570000000  0.5401650000000  0.5670110000000 1.0
C      1  0.4809620000000  0.4487030000000  0.4947690000000 1.0
C      1  0.5268000000000  0.5566560000000  0.4999070000000 1.0
C      1  0.5205240000000  0.5702130000000  0.4553660000000 1.0
C      1  0.5371100000000  0.4699420000000  0.5459510000000 1.0
C      1  0.5091810000000  0.5004870000000  0.5142400000000 1.0
C      1  0.6001570000000  0.4673770000000  0.4923430000000 1.0
C      1  0.4850440000000  0.4561230000000  0.5281010000000 1.0
C      1  0.4556920000000  0.5041760000000  0.5347300000000 1.0
C      1  0.4313070000000  0.4612010000000  0.5661240000000 1.0
C      1  0.5283540000000  0.4758230000000  0.3992990000000 1.0
C      1  0.5257370000000  0.4752330000000  0.4429700000000 1.0
C      1  0.4826130000000  0.5914210000000  0.5200960000000 1.0
C      1  0.4464600000000  0.4223950000000  0.5359980000000 1.0
C      1  0.4604420000000  0.4607260000000  0.4268180000000 1.0
C      1  0.5014200000000  0.5437790000000  0.5175630000000 1.0
C      1  0.4643760000000  0.5552510000000  0.5529780000000 1.0
C      1  0.5555480000000  0.5136890000000  0.4195800000000 1.0
C      1  0.5138520000000  0.4826930000000  0.4721620000000 1.0
C      1  0.5080710000000  0.4240090000000  0.5400730000000 1.0
C      1  0.4747830000000  0.4297130000000  0.5446950000000 1.0
C      1  0.5250560000000  0.4364330000000  0.4356350000000 1.0
C      1  0.4978890000000  0.5537690000000  0.4493650000000 1.0
C      1  0.4808450000000  0.5556160000000  0.4263450000000 1.0
C      1  0.4248060000000  0.5614200000000  0.5006940000000 1.0
C      1  0.4728070000000  0.5037260000000  0.4128910000000 1.0
C      1  0.4821720000000  0.5493290000000  0.4729420000000 1.0
C      1  0.4182950000000  0.5384940000000  0.5459080000000 1.0
C      1  0.5325230000000  0.4681870000000  0.4961900000000 1.0
C      1  0.3848630000000  0.4848750000000  0.5094010000000 1.0
C      1  0.5585310000000  0.4331030000000  0.5238330000000 1.0
C      1  0.6069480000000  0.5297380000000  0.4894510000000 1.0
C      1  0.5924540000000  0.4442660000000  0.4812360000000 1.0
C      1  0.4996790000000  0.5001270000000  0.5530740000000 1.0
C      1  0.5459530000000  0.5802600000000  0.4739350000000 1.0
C      1  0.5717620000000  0.5054900000000  0.5650190000000 1.0
C      1  0.5682560000000  0.4325290000000  0.4829530000000 1.0
C      1  0.5223060000000  0.4279550000000  0.4661570000000 1.0
C      1  0.4577150000000  0.4762460000000  0.5255000000000 1.0
C      1  0.5426720000000  0.5250700000000  0.5427780000000 1.0
C      1  0.4507960000000  0.5211290000000  0.4130100000000 1.0
C      1  0.4862260000000  0.5008340000000  0.4944020000000 1.0
C      1  0.5443610000000  0.4928080000000  0.5696110000000 1.0
C      1  0.4165490000000  0.4787100000000  0.5483530000000 1.0
C      1  0.5144270000000  0.5215160000000  0.3997240000000 1.0
C      1  0.4827390000000  0.5322210000000  0.4977250000000 1.0
C      1  0.4888980000000  0.4414450000000  0.5702560000000 1.0
C      1  0.4867710000000  0.5926550000000  0.4900560000000 1.0
C      1  0.4805720000000  0.4014230000000  0.4982970000000 1.0
C      1  0.5150880000000  0.5062950000000  0.4466390000000 1.0
C      1  0.5379810000000  0.4362240000000  0.4898320000000 1.0
C      1  0.4029440000000  0.4639140000000  0.5242420000000 1.0
C      1  0.4435340000000  0.4568640000000  0.4549950000000 1.0
C      1  0.4600660000000  0.5788560000000  0.5345690000000 1.0
C      1  0.5424240000000  0.4587570000000  0.4212200000000 1.0
C      1  0.4547270000000  0.5218280000000  0.5072740000000 1.0
C      1  0.4679950000000  0.5745510000000  0.4774650000000 1.0
C      1  0.5125910000000  0.5816380000000  0.5184730000000 1.0
C      1  0.5313810000000  0.5225990000000  0.5018960000000 1.0
C      1  0.5438690000000  0.5214060000000  0.4506630000000 1.0
C      1  0.4825070000000  0.5465980000000  0.5723770000000 1.0
C      1  0.4890410000000  0.5662240000000  0.4027080000000 1.0
C      1  0.3867020000000  0.4425380000000  0.5345220000000 1.0
C      1  0.5277420000000  0.5390580000000  0.5818050000000 1.0
C      1  0.5074460000000  0.4752450000000  0.5351370000000 1.0
C      1  0.4643490000000  0.5124840000000  0.4530050000000 1.0
C      1  0.4339850000000  0.5331380000000  0.4907920000000 1.0
C      1  0.4649720000000  0.4248660000000  0.4926930000000 1.0
C      1  0.4300460000000  0.5655950000000  0.5289530000000 1.0
C      1  0.5247530000000  0.4704400000000  0.5836670000000 1.0
C      1  0.4005090000000  0.4749720000000  0.4658030000000 1.0
C      1  0.4819440000000  0.4923300000000  0.4640330000000 1.0
C      1  0.5368860000000  0.5038800000000  0.3996700000000 1.0
C      1  0.4231520000000  0.4508780000000  0.5014940000000 1.0
C      1  0.4542550000000  0.5030490000000  0.5688460000000 1.0
C      1  0.4538820000000  0.4735150000000  0.5786550000000 1.0
C      1  0.5700530000000  0.5679950000000  0.4826270000000 1.0
C      1  0.4762340000000  0.4625080000000  0.4552260000000 1.0
C      1  0.4435910000000  0.5387600000000  0.4590420000000 1.0
C      1  0.5206750000000  0.4451030000000  0.5619670000000 1.0
C      1  0.3832420000000  0.4881650000000  0.4824520000000 1.0
C      1  0.5165300000000  0.5094450000000  0.5807480000000 1.0
C      1  0.5553470000000  0.4622090000000  0.5216930000000 1.0
C      1  0.5561580000000  0.5058190000000  0.5283350000000 1.0
C      1  0.5651180000000  0.4763410000000  0.4365120000000 1.0
C      1  0.5013270000000  0.4761290000000  0.5972610000000 1.0
C      1  0.5979430000000  0.5544040000000  0.4812560000000 1.0
C      1  0.4224140000000  0.5067150000000  0.5561780000000 1.0
C      1  0.5437010000000  0.5388120000000  0.4759960000000 1.0
C      1  0.5877320000000  0.5028340000000  0.5349280000000 1.0
C      1  0.4486370000000  0.5339210000000  0.5443860000000 1.0
C      1  0.5142940000000  0.5910640000000  0.4796380000000 1.0
END
