TITL C-2778435-5768-1079 0.000586200625283846 125000 -383.522095941155 0 0 66 (C1) n - 1
REM
REM in /home/nfs/bkarasulu/CARBON/AIRSS/Generating-Clusters/REBO/Only-C1/SD-CG/HFTN-CG
REM
REM
REM
REM
REM
REM ./C.cell (11c1c37f851c82e70ff6c80c92926a4b)
REM
REM compiler GCC version 9.2.1 20190827 (Red Hat 9.2.1-1)
REM options -cpp -mtune=generic -march=x86-64 -g -O0 -fpre-include=/usr/include/finclude/math-vector-fortran.h
REM seed 739739698 95656812 1154470289 470684728 -65175949 -512128306 1018935848 801785879 1602699373 439805546 2029855175 -1461698386 2119368398 1806057610 -2023270307 152030441 483631462 38335714 -980777450 -99701519 812752368 -1408779134 -84814432 606717191 -1884776077 -1626064480 -674917617 -789880659 335808900 911951874 -1574033656 -839230002 -1995062194
REM
CELL 1.54180   50.00000   50.00000   50.00000   90.00000   90.00000   90.00000
LATT -1
SFAC C  
C      1  0.5067060000000  0.5663360000000  0.4582220000000 1.0
C      1  0.4577260000000  0.5068400000000  0.4736180000000 1.0
C      1  0.4928510000000  0.5202800000000  0.5829320000000 1.0
C      1  0.5348140000000  0.5761130000000  0.4159940000000 1.0
C      1  0.5466470000000  0.5524030000000  0.5054730000000 1.0
C      1  0.5402620000000  0.5203360000000  0.5494810000000 1.0
C      1  0.5435880000000  0.5411390000000  0.5310100000000 1.0
C      1  0.5424250000000  0.4195990000000  0.5185330000000 1.0
C      1  0.5462600000000  0.4031920000000  0.4936340000000 1.0
C      1  0.4423150000000  0.5131910000000  0.5195530000000 1.0
C      1  0.5102950000000  0.4621760000000  0.5564070000000 1.0
C      1  0.4672930000000  0.5810440000000  0.5364250000000 1.0
C      1  0.5698520000000  0.5454330000000  0.4897750000000 1.0
C      1  0.4686690000000  0.5241280000000  0.5189570000000 1.0
C      1  0.4352790000000  0.4693980000000  0.5030210000000 1.0
C      1  0.5142130000000  0.5295410000000  0.4445690000000 1.0
C      1  0.4754740000000  0.5350430000000  0.5431170000000 1.0
C      1  0.4958600000000  0.5434350000000  0.4970110000000 1.0
C      1  0.5171180000000  0.5137730000000  0.5710850000000 1.0
C      1  0.5136190000000  0.5083290000000  0.4261990000000 1.0
C      1  0.5436210000000  0.5312620000000  0.3932060000000 1.0
C      1  0.5249420000000  0.4576390000000  0.4443780000000 1.0
C      1  0.4841420000000  0.4925150000000  0.4295260000000 1.0
C      1  0.5048880000000  0.4928080000000  0.4916600000000 1.0
C      1  0.5196820000000  0.4230180000000  0.4860130000000 1.0
C      1  0.4617730000000  0.4866670000000  0.4507000000000 1.0
C      1  0.4866330000000  0.4252190000000  0.4950330000000 1.0
C      1  0.5519080000000  0.4694460000000  0.5243690000000 1.0
C      1  0.4383240000000  0.4970200000000  0.4968800000000 1.0
C      1  0.4609320000000  0.5721660000000  0.5118140000000 1.0
C      1  0.4573110000000  0.4595540000000  0.4584080000000 1.0
C      1  0.4331610000000  0.5109040000000  0.5462920000000 1.0
C      1  0.5286750000000  0.4722350000000  0.5031960000000 1.0
C      1  0.4749700000000  0.5000620000000  0.5889070000000 1.0
C      1  0.4499830000000  0.4573000000000  0.5287110000000 1.0
C      1  0.5139520000000  0.4206370000000  0.5966090000000 1.0
C      1  0.4790370000000  0.5479190000000  0.5741680000000 1.0
C      1  0.5103900000000  0.4266410000000  0.5186010000000 1.0
C      1  0.4635220000000  0.5387800000000  0.4705080000000 1.0
C      1  0.4797680000000  0.4530630000000  0.5657840000000 1.0
C      1  0.5075760000000  0.4693330000000  0.4311280000000 1.0
C      1  0.4581260000000  0.4369640000000  0.5046460000000 1.0
C      1  0.5042600000000  0.4387020000000  0.5792700000000 1.0
C      1  0.4845510000000  0.5442710000000  0.4496290000000 1.0
C      1  0.4587910000000  0.5567070000000  0.4899650000000 1.0
C      1  0.5291820000000  0.4512390000000  0.4762680000000 1.0
C      1  0.4579050000000  0.4652850000000  0.5543340000000 1.0
C      1  0.5264920000000  0.4858740000000  0.5636470000000 1.0
C      1  0.5443850000000  0.5579740000000  0.3982700000000 1.0
C      1  0.5501200000000  0.4895260000000  0.5444570000000 1.0
C      1  0.5225690000000  0.5555020000000  0.4857880000000 1.0
C      1  0.4802440000000  0.4492740000000  0.4737200000000 1.0
C      1  0.4513180000000  0.4918840000000  0.5671820000000 1.0
C      1  0.4844960000000  0.5137850000000  0.4933820000000 1.0
C      1  0.5797280000000  0.5234340000000  0.4463090000000 1.0
C      1  0.4409040000000  0.4487840000000  0.4809330000000 1.0
C      1  0.5147030000000  0.4554610000000  0.5277690000000 1.0
C      1  0.5627290000000  0.5349820000000  0.4638850000000 1.0
C      1  0.5013450000000  0.4678620000000  0.4748730000000 1.0
C      1  0.4754170000000  0.5766420000000  0.5619230000000 1.0
C      1  0.5312590000000  0.5096650000000  0.4044960000000 1.0
C      1  0.4536790000000  0.5261890000000  0.5676950000000 1.0
C      1  0.5346690000000  0.5380610000000  0.4608330000000 1.0
C      1  0.5202310000000  0.5790920000000  0.4385880000000 1.0
C      1  0.4777800000000  0.5252830000000  0.4240450000000 1.0
C      1  0.5586620000000  0.4416400000000  0.5271830000000 1.0
END
