TITL C-2778437-8639-1252 -0.00444650488434163 125000 -833.470256162391 0 0 145 (C1) n - 1
REM
REM in /home/nfs/bkarasulu/CARBON/AIRSS/Generating-Clusters/REBO/Only-C1/SD-CG/HFTN-CG
REM
REM
REM
REM
REM
REM ./C.cell (11c1c37f851c82e70ff6c80c92926a4b)
REM
REM compiler GCC version 9.2.1 20190827 (Red Hat 9.2.1-1)
REM options -cpp -mtune=generic -march=x86-64 -g -O0 -fpre-include=/usr/include/finclude/math-vector-fortran.h
REM seed -987029573 -2029710500 1451134597 1179769740 -1841762033 1020561764 -1527383662 -105277349 1261546753 1913225214 -1694463702 1179543532 757649899 -1934715081 1918662737 234496845 -1228481722 814044548 1083844148 -1717701825 -1410830745 -1921744096 99560054 716635416 -1490119127 -489482972 -1068674845 265005660 -434228227 1328797599 -342295737 920626990 455368291
REM
CELL 1.54180   50.00000   50.00000   50.00000   90.00000   90.00000   90.00000
LATT -1
SFAC C  
C      1  0.5223140000000  0.4933380000000  0.4998940000000 1.0
C      1  0.5587180000000  0.5331700000000  0.4204970000000 1.0
C      1  0.5106370000000  0.4295450000000  0.4611830000000 1.0
C      1  0.4887330000000  0.4993020000000  0.4376030000000 1.0
C      1  0.5662240000000  0.5629910000000  0.4826830000000 1.0
C      1  0.5400880000000  0.5933740000000  0.5147250000000 1.0
C      1  0.4275470000000  0.5484990000000  0.4679580000000 1.0
C      1  0.4856940000000  0.5481020000000  0.4944270000000 1.0
C      1  0.4607290000000  0.4954650000000  0.5849240000000 1.0
C      1  0.5745940000000  0.5315350000000  0.4723230000000 1.0
C      1  0.4899640000000  0.5307360000000  0.5478270000000 1.0
C      1  0.4881790000000  0.4992830000000  0.5553190000000 1.0
C      1  0.4135560000000  0.4927760000000  0.5598390000000 1.0
C      1  0.4295290000000  0.4631470000000  0.5654680000000 1.0
C      1  0.5084750000000  0.4118560000000  0.5451140000000 1.0
C      1  0.3902120000000  0.5360140000000  0.4937040000000 1.0
C      1  0.5321600000000  0.5678760000000  0.5557560000000 1.0
C      1  0.4095610000000  0.4775670000000  0.5076650000000 1.0
C      1  0.5323080000000  0.4417850000000  0.4152790000000 1.0
C      1  0.4728040000000  0.5506430000000  0.4455320000000 1.0
C      1  0.5789210000000  0.4468790000000  0.4932730000000 1.0
C      1  0.5314160000000  0.5632550000000  0.4439050000000 1.0
C      1  0.5189120000000  0.4882910000000  0.5597750000000 1.0
C      1  0.5444630000000  0.4167430000000  0.5093780000000 1.0
C      1  0.4319790000000  0.5097040000000  0.5000490000000 1.0
C      1  0.4125510000000  0.4725380000000  0.4749670000000 1.0
C      1  0.4818060000000  0.4080590000000  0.5521370000000 1.0
C      1  0.4536810000000  0.4982710000000  0.4193530000000 1.0
C      1  0.5099370000000  0.4908950000000  0.4699150000000 1.0
C      1  0.5407480000000  0.5774780000000  0.4708000000000 1.0
C      1  0.5822620000000  0.4984370000000  0.4745720000000 1.0
C      1  0.5644930000000  0.5300950000000  0.5049010000000 1.0
C      1  0.5658520000000  0.4357450000000  0.4638830000000 1.0
C      1  0.4543020000000  0.5907100000000  0.4884810000000 1.0
C      1  0.5282890000000  0.5218680000000  0.4108350000000 1.0
C      1  0.5053050000000  0.5656240000000  0.4278150000000 1.0
C      1  0.4656740000000  0.4290600000000  0.5726020000000 1.0
C      1  0.4957160000000  0.4617980000000  0.4961850000000 1.0
C      1  0.4683210000000  0.5952010000000  0.4642680000000 1.0
C      1  0.4600330000000  0.5500430000000  0.4740070000000 1.0
C      1  0.4840390000000  0.5185090000000  0.4777300000000 1.0
C      1  0.5071390000000  0.4960720000000  0.4089610000000 1.0
C      1  0.5393720000000  0.5063690000000  0.4627660000000 1.0
C      1  0.4750520000000  0.4321170000000  0.4791500000000 1.0
C      1  0.5447630000000  0.4733470000000  0.4736380000000 1.0
C      1  0.4267160000000  0.4521160000000  0.5177530000000 1.0
C      1  0.5668990000000  0.5551130000000  0.5409720000000 1.0
C      1  0.5769950000000  0.4459390000000  0.5688810000000 1.0
C      1  0.5060390000000  0.5985930000000  0.5130460000000 1.0
C      1  0.4883020000000  0.4245950000000  0.4423000000000 1.0
C      1  0.5260180000000  0.6026920000000  0.4860640000000 1.0
C      1  0.4791370000000  0.5091070000000  0.5161160000000 1.0
C      1  0.5894050000000  0.4564310000000  0.5500010000000 1.0
C      1  0.4830810000000  0.5791570000000  0.5639060000000 1.0
C      1  0.5177620000000  0.4527140000000  0.4771160000000 1.0
C      1  0.4145600000000  0.5007140000000  0.4632510000000 1.0
C      1  0.5867560000000  0.4949690000000  0.5069350000000 1.0
C      1  0.5853230000000  0.4653140000000  0.5196000000000 1.0
C      1  0.4641280000000  0.4556280000000  0.4626020000000 1.0
C      1  0.5261620000000  0.4737040000000  0.4447830000000 1.0
C      1  0.4620740000000  0.4106090000000  0.5016490000000 1.0
C      1  0.4458340000000  0.5391590000000  0.5022100000000 1.0
C      1  0.4943720000000  0.4075350000000  0.4902490000000 1.0
C      1  0.4651320000000  0.5440950000000  0.5286510000000 1.0
C      1  0.4770690000000  0.4746320000000  0.5356050000000 1.0
C      1  0.4624990000000  0.5737410000000  0.5408860000000 1.0
C      1  0.5104600000000  0.4792330000000  0.5288950000000 1.0
C      1  0.5190560000000  0.4427390000000  0.5876610000000 1.0
C      1  0.5498610000000  0.4119030000000  0.4802080000000 1.0
C      1  0.5839450000000  0.5265970000000  0.5488760000000 1.0
C      1  0.4377970000000  0.4332000000000  0.4931060000000 1.0
C      1  0.5005240000000  0.5404590000000  0.4142010000000 1.0
C      1  0.5577940000000  0.5039620000000  0.5477650000000 1.0
C      1  0.4909830000000  0.4871990000000  0.5876940000000 1.0
C      1  0.4188280000000  0.5375670000000  0.5316020000000 1.0
C      1  0.5552850000000  0.4847870000000  0.5019090000000 1.0
C      1  0.4854100000000  0.5391930000000  0.5789520000000 1.0
C      1  0.4257410000000  0.5245420000000  0.5616570000000 1.0
C      1  0.5455510000000  0.4701260000000  0.5643370000000 1.0
C      1  0.4436330000000  0.4191890000000  0.5507100000000 1.0
C      1  0.4888460000000  0.5864790000000  0.4385610000000 1.0
C      1  0.5680350000000  0.5172400000000  0.5775050000000 1.0
C      1  0.4462730000000  0.4901710000000  0.5556990000000 1.0
C      1  0.4316060000000  0.5743160000000  0.4878170000000 1.0
C      1  0.4628340000000  0.5134900000000  0.4547540000000 1.0
C      1  0.4603000000000  0.4617670000000  0.5802670000000 1.0
C      1  0.5182160000000  0.5338430000000  0.5344690000000 1.0
C      1  0.4362280000000  0.5561060000000  0.5530000000000 1.0
C      1  0.4260510000000  0.4409270000000  0.5453780000000 1.0
C      1  0.4598670000000  0.4032200000000  0.5305850000000 1.0
C      1  0.5073660000000  0.5715080000000  0.5722590000000 1.0
C      1  0.5730670000000  0.5191940000000  0.4418450000000 1.0
C      1  0.5553430000000  0.5602120000000  0.4249930000000 1.0
C      1  0.5581280000000  0.4715140000000  0.4212840000000 1.0
C      1  0.5477720000000  0.5290570000000  0.5326150000000 1.0
C      1  0.4942320000000  0.4552800000000  0.5819450000000 1.0
C      1  0.5282500000000  0.4721640000000  0.4044010000000 1.0
C      1  0.5258030000000  0.5639060000000  0.5231220000000 1.0
C      1  0.4142340000000  0.5039450000000  0.5287060000000 1.0
C      1  0.5323290000000  0.5371210000000  0.4663040000000 1.0
C      1  0.4555870000000  0.5137030000000  0.5375910000000 1.0
C      1  0.5913800000000  0.5494170000000  0.5100150000000 1.0
C      1  0.5174750000000  0.5085580000000  0.5871040000000 1.0
C      1  0.4940610000000  0.5680770000000  0.5153420000000 1.0
C      1  0.4484490000000  0.4873800000000  0.4839590000000 1.0
C      1  0.4788550000000  0.4577750000000  0.4068310000000 1.0
C      1  0.4636180000000  0.5596830000000  0.4229300000000 1.0
C      1  0.5134490000000  0.4166110000000  0.5139680000000 1.0
C      1  0.4403800000000  0.4453640000000  0.4418570000000 1.0
C      1  0.5038240000000  0.4528170000000  0.4294250000000 1.0
C      1  0.5453110000000  0.4392400000000  0.5693110000000 1.0
C      1  0.4141780000000  0.5524410000000  0.5052910000000 1.0
C      1  0.4661160000000  0.4383600000000  0.4265810000000 1.0
C      1  0.4775520000000  0.5226490000000  0.4174030000000 1.0
C      1  0.5765020000000  0.4870210000000  0.4426830000000 1.0
C      1  0.4780890000000  0.4886720000000  0.4930660000000 1.0
C      1  0.4761240000000  0.4856650000000  0.4023860000000 1.0
C      1  0.4986300000000  0.4435330000000  0.5228980000000 1.0
C      1  0.5987330000000  0.5187790000000  0.5218090000000 1.0
C      1  0.5008520000000  0.5407220000000  0.4586600000000 1.0
C      1  0.4873770000000  0.4720830000000  0.4528200000000 1.0
C      1  0.4840620000000  0.4479460000000  0.5512550000000 1.0
C      1  0.4639310000000  0.4526630000000  0.5031710000000 1.0
C      1  0.5005590000000  0.5974770000000  0.4673390000000 1.0
C      1  0.3989770000000  0.5060630000000  0.4918380000000 1.0
C      1  0.4579250000000  0.5247930000000  0.5708700000000 1.0
C      1  0.4721980000000  0.5926420000000  0.5145970000000 1.0
C      1  0.5509220000000  0.5444970000000  0.5693670000000 1.0
C      1  0.5228640000000  0.4046580000000  0.4715050000000 1.0
C      1  0.5565560000000  0.4400970000000  0.4342600000000 1.0
C      1  0.5383660000000  0.5470630000000  0.4964300000000 1.0
C      1  0.5829630000000  0.4652630000000  0.4667300000000 1.0
C      1  0.5193420000000  0.5406810000000  0.5818370000000 1.0
C      1  0.5399050000000  0.4247460000000  0.5426870000000 1.0
C      1  0.5477680000000  0.4948110000000  0.5860020000000 1.0
C      1  0.5056510000000  0.5159760000000  0.5142600000000 1.0
C      1  0.5405670000000  0.4992460000000  0.4304750000000 1.0
C      1  0.5091760000000  0.5672450000000  0.4783320000000 1.0
C      1  0.4323210000000  0.5213280000000  0.4567340000000 1.0
C      1  0.4488270000000  0.4836380000000  0.4499880000000 1.0
C      1  0.5677010000000  0.5737590000000  0.5150120000000 1.0
C      1  0.5448160000000  0.4794260000000  0.5313380000000 1.0
C      1  0.4252680000000  0.4478780000000  0.4679700000000 1.0
C      1  0.5631460000000  0.4394330000000  0.5221990000000 1.0
C      1  0.4486830000000  0.4772900000000  0.5171520000000 1.0
END
