TITL C-2778436-5916-322 0.00865599529925198 125000 -116.393004458207 0 0 23 (C1) n - 1
REM
REM in /home/nfs/bkarasulu/CARBON/AIRSS/Generating-Clusters/REBO/Only-C1/SD-CG/HFTN-CG
REM
REM
REM
REM
REM
REM ./C.cell (11c1c37f851c82e70ff6c80c92926a4b)
REM
REM compiler GCC version 9.2.1 20190827 (Red Hat 9.2.1-1)
REM options -cpp -mtune=generic -march=x86-64 -g -O0 -fpre-include=/usr/include/finclude/math-vector-fortran.h
REM seed -2075167336 655725635 1993181904 -1284142150 163214165 1736876951 -1571699136 1195480093 -27356206 404712715 494080460 1266237635 -289870227 -594802919 1315168256 -1528559682 588621757 1085859885 -2060102368 -1648059589 1637818130 -578643051 672145075 135002227 -1289654317 -1191780858 -293892447 1879275432 1317773187 776334448 -1282807718 643580690 -665896991
REM
CELL 1.54180   50.00000   50.00000   50.00000   90.00000   90.00000   90.00000
LATT -1
SFAC C  
C      1  0.4963410000000  0.5138460000000  0.5243040000000 1.0
C      1  0.4503650000000  0.4437610000000  0.4880620000000 1.0
C      1  0.4802190000000  0.5423540000000  0.5016300000000 1.0
C      1  0.4705680000000  0.4501180000000  0.5215300000000 1.0
C      1  0.5280510000000  0.5220610000000  0.4802860000000 1.0
C      1  0.5435670000000  0.4817500000000  0.5057570000000 1.0
C      1  0.5279820000000  0.5362670000000  0.4514930000000 1.0
C      1  0.5658370000000  0.4955260000000  0.4981950000000 1.0
C      1  0.4187250000000  0.4982880000000  0.5093470000000 1.0
C      1  0.5603190000000  0.5186290000000  0.4826700000000 1.0
C      1  0.5538780000000  0.5422140000000  0.4428110000000 1.0
C      1  0.4641270000000  0.4732190000000  0.4975960000000 1.0
C      1  0.4665610000000  0.5079140000000  0.4784750000000 1.0
C      1  0.5086120000000  0.5349200000000  0.5008560000000 1.0
C      1  0.4645310000000  0.5218670000000  0.5158390000000 1.0
C      1  0.4453970000000  0.4998170000000  0.5038590000000 1.0
C      1  0.5153550000000  0.4935530000000  0.4908170000000 1.0
C      1  0.4573510000000  0.4245730000000  0.5109250000000 1.0
C      1  0.5171940000000  0.4875450000000  0.5242570000000 1.0
C      1  0.5729050000000  0.5326920000000  0.4610720000000 1.0
C      1  0.5001370000000  0.4944850000000  0.5776590000000 1.0
C      1  0.4886540000000  0.4872440000000  0.4801350000000 1.0
C      1  0.5033230000000  0.4973560000000  0.5524250000000 1.0
END
