TITL C-2778432-5617-580 -0.00385990425589696 125000 -420.21092880257 0 0 73 (C1) n - 1
REM
REM in /home/nfs/bkarasulu/CARBON/AIRSS/Generating-Clusters/REBO/Only-C1/SD-CG/HFTN-CG
REM
REM
REM
REM
REM
REM ./C.cell (11c1c37f851c82e70ff6c80c92926a4b)
REM
REM compiler GCC version 9.2.1 20190827 (Red Hat 9.2.1-1)
REM options -cpp -mtune=generic -march=x86-64 -g -O0 -fpre-include=/usr/include/finclude/math-vector-fortran.h
REM seed -975749879 1420277737 1426397439 1555391214 391023496 -812089881 414789465 -774005172 1614794228 -1571881208 -317817542 117225269 -434698659 1503110665 1129852356 1674712149 -1883222042 -572095616 734708927 -1411656352 1535084391 -743695705 1671194956 -1645934609 144094520 688287826 -1367883186 -2007080161 -926833581 118038218 -1534178694 -156751707 2012854205
REM
CELL 1.54180   50.00000   50.00000   50.00000   90.00000   90.00000   90.00000
LATT -1
SFAC C  
C      1  0.4658860000000  0.4692120000000  0.4617430000000 1.0
C      1  0.4650400000000  0.4951840000000  0.5502060000000 1.0
C      1  0.4865820000000  0.4135650000000  0.5147140000000 1.0
C      1  0.4892050000000  0.5356370000000  0.4569280000000 1.0
C      1  0.4807100000000  0.5651210000000  0.4436960000000 1.0
C      1  0.4787740000000  0.5126220000000  0.5003460000000 1.0
C      1  0.5444950000000  0.5682280000000  0.5082960000000 1.0
C      1  0.5312580000000  0.5620610000000  0.4458740000000 1.0
C      1  0.5263530000000  0.4573900000000  0.5384820000000 1.0
C      1  0.5124380000000  0.5056610000000  0.5518480000000 1.0
C      1  0.4871690000000  0.4462000000000  0.5670320000000 1.0
C      1  0.4916610000000  0.5656500000000  0.5489520000000 1.0
C      1  0.4834490000000  0.4136200000000  0.5441600000000 1.0
C      1  0.5098270000000  0.5335730000000  0.5341040000000 1.0
C      1  0.4328830000000  0.4510730000000  0.5140840000000 1.0
C      1  0.5405610000000  0.5311610000000  0.4091770000000 1.0
C      1  0.4741320000000  0.5440170000000  0.5589390000000 1.0
C      1  0.4922120000000  0.4772700000000  0.4817320000000 1.0
C      1  0.4824780000000  0.5356480000000  0.5210200000000 1.0
C      1  0.5160680000000  0.4958670000000  0.4660230000000 1.0
C      1  0.5408480000000  0.5101440000000  0.4524130000000 1.0
C      1  0.4325030000000  0.5111240000000  0.4772670000000 1.0
C      1  0.4539780000000  0.5389830000000  0.5361360000000 1.0
C      1  0.5326120000000  0.4154380000000  0.5644240000000 1.0
C      1  0.4517140000000  0.4950210000000  0.4558310000000 1.0
C      1  0.4530100000000  0.5232440000000  0.4365050000000 1.0
C      1  0.5239070000000  0.5706650000000  0.5264430000000 1.0
C      1  0.5234300000000  0.5564420000000  0.5556090000000 1.0
C      1  0.4056700000000  0.4926510000000  0.4870860000000 1.0
C      1  0.5134680000000  0.4398340000000  0.5623330000000 1.0
C      1  0.4957930000000  0.4885080000000  0.4435150000000 1.0
C      1  0.4340570000000  0.4366110000000  0.4420250000000 1.0
C      1  0.5061820000000  0.4184870000000  0.4974670000000 1.0
C      1  0.4616880000000  0.5597380000000  0.4782820000000 1.0
C      1  0.4653350000000  0.5201280000000  0.4741890000000 1.0
C      1  0.4925810000000  0.4593150000000  0.4456030000000 1.0
C      1  0.5366460000000  0.5339000000000  0.4362390000000 1.0
C      1  0.5136410000000  0.4455150000000  0.4567980000000 1.0
C      1  0.5154360000000  0.5349120000000  0.4743230000000 1.0
C      1  0.5757580000000  0.5153210000000  0.4957860000000 1.0
C      1  0.4948820000000  0.4771390000000  0.5091540000000 1.0
C      1  0.4591700000000  0.4357760000000  0.5515520000000 1.0
C      1  0.5292800000000  0.5152500000000  0.5168800000000 1.0
C      1  0.4952870000000  0.5727780000000  0.5157670000000 1.0
C      1  0.4555560000000  0.4266570000000  0.5190920000000 1.0
C      1  0.4822770000000  0.5114200000000  0.4362380000000 1.0
C      1  0.5376860000000  0.5492660000000  0.4831070000000 1.0
C      1  0.5067610000000  0.5712830000000  0.4602460000000 1.0
C      1  0.5551450000000  0.5761060000000  0.4536710000000 1.0
C      1  0.5092770000000  0.4806430000000  0.5323510000000 1.0
C      1  0.4441330000000  0.4351000000000  0.4894020000000 1.0
C      1  0.4299040000000  0.5015720000000  0.5091760000000 1.0
C      1  0.5627080000000  0.5711510000000  0.4817690000000 1.0
C      1  0.5442370000000  0.4461690000000  0.5117190000000 1.0
C      1  0.5542580000000  0.4843660000000  0.4639880000000 1.0
C      1  0.4527210000000  0.5497700000000  0.4492160000000 1.0
C      1  0.4663300000000  0.4686730000000  0.5563020000000 1.0
C      1  0.4883880000000  0.5696480000000  0.4870530000000 1.0
C      1  0.4157950000000  0.4715490000000  0.5103380000000 1.0
C      1  0.4472050000000  0.4458360000000  0.4645470000000 1.0
C      1  0.5475070000000  0.4916410000000  0.5302560000000 1.0
C      1  0.5096490000000  0.5110180000000  0.4940310000000 1.0
C      1  0.5645430000000  0.5269790000000  0.5449940000000 1.0
C      1  0.5285540000000  0.4381000000000  0.4866880000000 1.0
C      1  0.5359900000000  0.5276100000000  0.5634860000000 1.0
C      1  0.5599870000000  0.5269200000000  0.5163380000000 1.0
C      1  0.5540880000000  0.4992120000000  0.5584610000000 1.0
C      1  0.4832950000000  0.5148030000000  0.5617910000000 1.0
C      1  0.4542120000000  0.5078760000000  0.5235510000000 1.0
C      1  0.5687610000000  0.4884180000000  0.4884940000000 1.0
C      1  0.5401600000000  0.4602450000000  0.4634440000000 1.0
C      1  0.5583070000000  0.4738470000000  0.5109850000000 1.0
C      1  0.5445070000000  0.4284420000000  0.5402840000000 1.0
END
