TITL C-2778429-3646-681 0.285020754540002 125000 -458.710608282318 0 0 80 (C1) n - 1
REM
REM in /home/nfs/bkarasulu/CARBON/AIRSS/Generating-Clusters/REBO/Only-C1/SD-CG/HFTN-CG
REM
REM
REM
REM
REM
REM ./C.cell (11c1c37f851c82e70ff6c80c92926a4b)
REM
REM compiler GCC version 9.2.1 20190827 (Red Hat 9.2.1-1)
REM options -cpp -mtune=generic -march=x86-64 -g -O0 -fpre-include=/usr/include/finclude/math-vector-fortran.h
REM seed -1429900235 -914444770 1704158378 -130772815 -19212019 -911695888 685982290 516732198 -1901195367 1447262413 1185010747 -970660908 -893887826 -1204113641 -1327399289 160654717 -1793915235 1760162651 -627069835 1217870958 -1756784127 -1558165673 -527920519 -1356482321 -176491132 -1796117877 2054450502 822337266 -533376384 674251721 1827766891 -302828747 -1199666823
REM
CELL 1.54180   50.00000   50.00000   50.00000   90.00000   90.00000   90.00000
LATT -1
SFAC C  
C      1  0.5776730000000  0.5263700000000  0.4838320000000 1.0
C      1  0.4735710000000  0.4791020000000  0.5726350000000 1.0
C      1  0.4357720000000  0.4921340000000  0.4712930000000 1.0
C      1  0.5197560000000  0.4632560000000  0.4923890000000 1.0
C      1  0.5483590000000  0.5349830000000  0.5193800000000 1.0
C      1  0.5360210000000  0.5096430000000  0.5070050000000 1.0
C      1  0.5137450000000  0.5408130000000  0.5810820000000 1.0
C      1  0.4940730000000  0.4268290000000  0.4953990000000 1.0
C      1  0.5656130000000  0.5469750000000  0.4701430000000 1.0
C      1  0.5236650000000  0.5300020000000  0.5389550000000 1.0
C      1  0.5489210000000  0.4300920000000  0.4886050000000 1.0
C      1  0.5098210000000  0.5553630000000  0.5538090000000 1.0
C      1  0.4473360000000  0.5326240000000  0.4400290000000 1.0
C      1  0.5155810000000  0.4670560000000  0.4130710000000 1.0
C      1  0.5125380000000  0.5161110000000  0.4885060000000 1.0
C      1  0.4851220000000  0.5205200000000  0.5383030000000 1.0
C      1  0.5092190000000  0.5136410000000  0.5779150000000 1.0
C      1  0.4521770000000  0.5119880000000  0.5037490000000 1.0
C      1  0.4691560000000  0.5493720000000  0.4690700000000 1.0
C      1  0.5341670000000  0.5141730000000  0.4299970000000 1.0
C      1  0.4975650000000  0.5766710000000  0.4758640000000 1.0
C      1  0.4358270000000  0.5505410000000  0.4666380000000 1.0
C      1  0.4685500000000  0.5693880000000  0.5157820000000 1.0
C      1  0.5168520000000  0.4535530000000  0.4427620000000 1.0
C      1  0.5432430000000  0.4668690000000  0.4560060000000 1.0
C      1  0.5567890000000  0.4549570000000  0.4799190000000 1.0
C      1  0.5436630000000  0.5433860000000  0.4554700000000 1.0
C      1  0.4812790000000  0.5068540000000  0.5755300000000 1.0
C      1  0.5604650000000  0.4713310000000  0.5277670000000 1.0
C      1  0.4201930000000  0.4907180000000  0.5167470000000 1.0
C      1  0.4255810000000  0.5189640000000  0.4621610000000 1.0
C      1  0.5128430000000  0.4952260000000  0.4131270000000 1.0
C      1  0.4782870000000  0.4545440000000  0.4526370000000 1.0
C      1  0.5550860000000  0.4417580000000  0.5377620000000 1.0
C      1  0.5541150000000  0.5624850000000  0.5177920000000 1.0
C      1  0.5154190000000  0.4865320000000  0.4517470000000 1.0
C      1  0.5122780000000  0.4795690000000  0.5396980000000 1.0
C      1  0.4627620000000  0.4502860000000  0.5333900000000 1.0
C      1  0.4659910000000  0.4717350000000  0.4349380000000 1.0
C      1  0.5686590000000  0.5000410000000  0.4785520000000 1.0
C      1  0.4334940000000  0.4905940000000  0.5458460000000 1.0
C      1  0.4943930000000  0.5488530000000  0.4119030000000 1.0
C      1  0.5574510000000  0.4926020000000  0.5515650000000 1.0
C      1  0.4293740000000  0.5215280000000  0.5212750000000 1.0
C      1  0.4918490000000  0.4326050000000  0.5278430000000 1.0
C      1  0.4779880000000  0.5591410000000  0.5452100000000 1.0
C      1  0.5774850000000  0.5007240000000  0.5665800000000 1.0
C      1  0.4684020000000  0.4190120000000  0.5455400000000 1.0
C      1  0.5666330000000  0.4763640000000  0.4956710000000 1.0
C      1  0.4853890000000  0.4966530000000  0.4876830000000 1.0
C      1  0.4944290000000  0.4677670000000  0.4798570000000 1.0
C      1  0.5209190000000  0.5455740000000  0.4322170000000 1.0
C      1  0.4899560000000  0.5035870000000  0.4368610000000 1.0
C      1  0.4365190000000  0.5219620000000  0.5517970000000 1.0
C      1  0.4528320000000  0.4565090000000  0.5037280000000 1.0
C      1  0.4846410000000  0.4899750000000  0.5352650000000 1.0
C      1  0.4753790000000  0.5291710000000  0.4914560000000 1.0
C      1  0.5278940000000  0.5022630000000  0.5544850000000 1.0
C      1  0.5241440000000  0.4192070000000  0.5088030000000 1.0
C      1  0.5250430000000  0.4137380000000  0.4750720000000 1.0
C      1  0.5023860000000  0.4325290000000  0.4623890000000 1.0
C      1  0.5243390000000  0.4314280000000  0.5382990000000 1.0
C      1  0.5360570000000  0.5816710000000  0.5257640000000 1.0
C      1  0.4922530000000  0.5811670000000  0.5017690000000 1.0
C      1  0.4537820000000  0.4720830000000  0.5531510000000 1.0
C      1  0.5107060000000  0.4542340000000  0.5555580000000 1.0
C      1  0.4313250000000  0.4774030000000  0.4942220000000 1.0
C      1  0.4946180000000  0.5564060000000  0.4508970000000 1.0
C      1  0.5217240000000  0.5182930000000  0.4612290000000 1.0
C      1  0.5004030000000  0.5333380000000  0.5141200000000 1.0
C      1  0.4505750000000  0.5600250000000  0.4958130000000 1.0
C      1  0.5322750000000  0.4806160000000  0.5156330000000 1.0
C      1  0.4571730000000  0.5006360000000  0.4461600000000 1.0
C      1  0.4776210000000  0.5326030000000  0.4335350000000 1.0
C      1  0.5046230000000  0.5777630000000  0.5307660000000 1.0
C      1  0.5538860000000  0.4969840000000  0.4519010000000 1.0
C      1  0.4664840000000  0.4844860000000  0.5117850000000 1.0
C      1  0.4933140000000  0.4582280000000  0.5763490000000 1.0
C      1  0.4640560000000  0.5314570000000  0.5593520000000 1.0
C      1  0.4704530000000  0.4443670000000  0.4831940000000 1.0
END
