TITL C-2778432-5617-726 0.00170934249664562 125000 -361.079615907416 0 0 62 (C1) n - 1
REM
REM in /home/nfs/bkarasulu/CARBON/AIRSS/Generating-Clusters/REBO/Only-C1/SD-CG/HFTN-CG
REM
REM
REM
REM
REM
REM ./C.cell (11c1c37f851c82e70ff6c80c92926a4b)
REM
REM compiler GCC version 9.2.1 20190827 (Red Hat 9.2.1-1)
REM options -cpp -mtune=generic -march=x86-64 -g -O0 -fpre-include=/usr/include/finclude/math-vector-fortran.h
REM seed -397124069 -824057110 -844111878 1125685608 886478598 530822658 -29729045 117597021 -546436119 1502418842 -1800617715 1790949768 631117411 1178961844 1016690766 1845273955 213719357 -1751660342 1039312431 -2038066710 169761218 957024858 819607192 150715877 746074946 711001357 -135401705 1420054751 -1090494619 734907211 -1261870493 1814960923 -24986216
REM
CELL 1.54180   50.00000   50.00000   50.00000   90.00000   90.00000   90.00000
LATT -1
SFAC C  
C      1  0.5384280000000  0.4528530000000  0.4520910000000 1.0
C      1  0.5054870000000  0.4973010000000  0.4425640000000 1.0
C      1  0.4812630000000  0.5019760000000  0.4641360000000 1.0
C      1  0.5176730000000  0.4325740000000  0.4522990000000 1.0
C      1  0.5045550000000  0.4231160000000  0.4306490000000 1.0
C      1  0.5168620000000  0.5165870000000  0.5686400000000 1.0
C      1  0.4965950000000  0.5724400000000  0.4997600000000 1.0
C      1  0.5126190000000  0.5476580000000  0.4375950000000 1.0
C      1  0.5483690000000  0.4989340000000  0.5008660000000 1.0
C      1  0.5549140000000  0.5257230000000  0.5186320000000 1.0
C      1  0.5281010000000  0.5599810000000  0.5471750000000 1.0
C      1  0.4937460000000  0.5323970000000  0.5620290000000 1.0
C      1  0.4453940000000  0.4900810000000  0.4510590000000 1.0
C      1  0.4597430000000  0.5508240000000  0.5190780000000 1.0
C      1  0.5706900000000  0.4869300000000  0.5444410000000 1.0
C      1  0.4540610000000  0.5263360000000  0.5322430000000 1.0
C      1  0.4392660000000  0.5325880000000  0.4777590000000 1.0
C      1  0.5221140000000  0.4780770000000  0.5378300000000 1.0
C      1  0.5362310000000  0.4301850000000  0.5309160000000 1.0
C      1  0.5489990000000  0.4877050000000  0.5295620000000 1.0
C      1  0.5020260000000  0.5213660000000  0.4796320000000 1.0
C      1  0.5267450000000  0.5631420000000  0.4931880000000 1.0
C      1  0.4634550000000  0.4844510000000  0.5139960000000 1.0
C      1  0.5323370000000  0.4835830000000  0.4522650000000 1.0
C      1  0.5008020000000  0.5244120000000  0.5113840000000 1.0
C      1  0.5528530000000  0.4814310000000  0.4755520000000 1.0
C      1  0.5554640000000  0.4510260000000  0.4792720000000 1.0
C      1  0.5226170000000  0.4470930000000  0.5466200000000 1.0
C      1  0.5419040000000  0.5561410000000  0.5209270000000 1.0
C      1  0.4908390000000  0.4905930000000  0.5320520000000 1.0
C      1  0.4534010000000  0.4569020000000  0.5248410000000 1.0
C      1  0.5136990000000  0.4254080000000  0.4793500000000 1.0
C      1  0.4557770000000  0.5204760000000  0.4542060000000 1.0
C      1  0.4865640000000  0.5505540000000  0.4262080000000 1.0
C      1  0.5427610000000  0.5291340000000  0.5503890000000 1.0
C      1  0.4768070000000  0.5648580000000  0.4737310000000 1.0
C      1  0.4962560000000  0.4585240000000  0.5607050000000 1.0
C      1  0.5070940000000  0.4445930000000  0.5064490000000 1.0
C      1  0.4735910000000  0.5126890000000  0.5513310000000 1.0
C      1  0.4740880000000  0.4462590000000  0.5451970000000 1.0
C      1  0.5466740000000  0.5365110000000  0.4874510000000 1.0
C      1  0.5190280000000  0.4960580000000  0.4901030000000 1.0
C      1  0.4996030000000  0.5569690000000  0.5484140000000 1.0
C      1  0.5165210000000  0.5258640000000  0.5298240000000 1.0
C      1  0.5070190000000  0.5498170000000  0.4689060000000 1.0
C      1  0.4414470000000  0.4692300000000  0.4637280000000 1.0
C      1  0.4428080000000  0.5060120000000  0.5164030000000 1.0
C      1  0.4269830000000  0.5137920000000  0.4946670000000 1.0
C      1  0.4600300000000  0.4990120000000  0.5722400000000 1.0
C      1  0.4746900000000  0.4790800000000  0.4835310000000 1.0
C      1  0.5007180000000  0.4746210000000  0.5035590000000 1.0
C      1  0.4846660000000  0.5642800000000  0.5248070000000 1.0
C      1  0.5390110000000  0.4344950000000  0.4994900000000 1.0
C      1  0.5448710000000  0.5233560000000  0.4640120000000 1.0
C      1  0.4834750000000  0.4310790000000  0.5201160000000 1.0
C      1  0.4672750000000  0.5489370000000  0.4459750000000 1.0
C      1  0.4516100000000  0.4545810000000  0.4904720000000 1.0
C      1  0.4633460000000  0.4264140000000  0.5013360000000 1.0
C      1  0.4531370000000  0.5531220000000  0.4910310000000 1.0
C      1  0.5256600000000  0.5219990000000  0.4435100000000 1.0
C      1  0.5109670000000  0.4887360000000  0.5664560000000 1.0
C      1  0.4962730000000  0.4891350000000  0.4173530000000 1.0
END
