TITL C-2778424-3986-1190 -0.00246508974517912 125000 -387.872894134849 0 0 69 (C1) n - 1
REM
REM in /home/nfs/bkarasulu/CARBON/AIRSS/Generating-Clusters/REBO/Only-C1/SD-CG/HFTN-CG
REM
REM
REM
REM
REM
REM ./C.cell (11c1c37f851c82e70ff6c80c92926a4b)
REM
REM compiler GCC version 9.2.1 20190827 (Red Hat 9.2.1-1)
REM options -cpp -mtune=generic -march=x86-64 -g -O0 -fpre-include=/usr/include/finclude/math-vector-fortran.h
REM seed -1821172515 -879757444 11718652 -124876997 963556849 -1932737285 280960131 1293061237 -289375899 -585237285 -966315844 -1930234306 121221117 -1110612841 1873851635 2040230363 1029930042 1549327439 -1235688863 1686213874 1135711208 975618926 1488594604 418696908 -1032695442 -1560284356 1528714731 -666555278 -960928957 26865143 -1480545247 -299055932 1508238915
REM
CELL 1.54180   50.00000   50.00000   50.00000   90.00000   90.00000   90.00000
LATT -1
SFAC C  
C      1  0.4633360000000  0.5230800000000  0.5119200000000 1.0
C      1  0.4423150000000  0.5368060000000  0.5354660000000 1.0
C      1  0.5052640000000  0.4785550000000  0.4581590000000 1.0
C      1  0.5524780000000  0.5278950000000  0.4365130000000 1.0
C      1  0.4678670000000  0.5585350000000  0.5290670000000 1.0
C      1  0.4613340000000  0.4694420000000  0.5032270000000 1.0
C      1  0.4655050000000  0.5074010000000  0.5594590000000 1.0
C      1  0.5216280000000  0.4354660000000  0.4541780000000 1.0
C      1  0.5227610000000  0.4333010000000  0.5249310000000 1.0
C      1  0.4428040000000  0.4810650000000  0.4570380000000 1.0
C      1  0.5703420000000  0.4415030000000  0.5110030000000 1.0
C      1  0.5105130000000  0.4970310000000  0.5811290000000 1.0
C      1  0.5828530000000  0.5304990000000  0.5110660000000 1.0
C      1  0.4996210000000  0.4531110000000  0.5138120000000 1.0
C      1  0.4702810000000  0.4696030000000  0.5346810000000 1.0
C      1  0.4185540000000  0.5489090000000  0.5425780000000 1.0
C      1  0.5330720000000  0.4711470000000  0.5325010000000 1.0
C      1  0.4515160000000  0.4561200000000  0.4467260000000 1.0
C      1  0.5243490000000  0.5242060000000  0.4313740000000 1.0
C      1  0.5081910000000  0.4972080000000  0.4946320000000 1.0
C      1  0.4594580000000  0.4375770000000  0.5140170000000 1.0
C      1  0.5579600000000  0.5506180000000  0.5031660000000 1.0
C      1  0.5261860000000  0.4421210000000  0.4861220000000 1.0
C      1  0.4695960000000  0.4223130000000  0.4922270000000 1.0
C      1  0.5210570000000  0.4634000000000  0.4137040000000 1.0
C      1  0.5148850000000  0.5042830000000  0.4527130000000 1.0
C      1  0.4839210000000  0.4931820000000  0.5756480000000 1.0
C      1  0.4931030000000  0.5223850000000  0.5120700000000 1.0
C      1  0.5644990000000  0.5407370000000  0.5348020000000 1.0
C      1  0.5062810000000  0.5699090000000  0.4723260000000 1.0
C      1  0.4958990000000  0.5876700000000  0.4916760000000 1.0
C      1  0.4534130000000  0.5586740000000  0.4982320000000 1.0
C      1  0.4501530000000  0.5067820000000  0.4458950000000 1.0
C      1  0.4859590000000  0.5503830000000  0.4533050000000 1.0
C      1  0.4310990000000  0.4900300000000  0.5194130000000 1.0
C      1  0.5004240000000  0.4798570000000  0.5363390000000 1.0
C      1  0.4432050000000  0.5039760000000  0.5405130000000 1.0
C      1  0.5585500000000  0.5115970000000  0.4862160000000 1.0
C      1  0.4790090000000  0.5346620000000  0.5508290000000 1.0
C      1  0.5006460000000  0.5099920000000  0.5408080000000 1.0
C      1  0.4716060000000  0.5212520000000  0.4580140000000 1.0
C      1  0.4460360000000  0.4471180000000  0.4212210000000 1.0
C      1  0.5328000000000  0.4430190000000  0.5510540000000 1.0
C      1  0.4983800000000  0.4260760000000  0.4755860000000 1.0
C      1  0.4212950000000  0.5090000000000  0.4953220000000 1.0
C      1  0.5080450000000  0.5495960000000  0.5064490000000 1.0
C      1  0.4666380000000  0.5659060000000  0.4754070000000 1.0
C      1  0.5155160000000  0.4587640000000  0.4397910000000 1.0
C      1  0.4702320000000  0.4417250000000  0.4644410000000 1.0
C      1  0.4376660000000  0.4816280000000  0.4867160000000 1.0
C      1  0.4941350000000  0.5765620000000  0.5218590000000 1.0
C      1  0.5048880000000  0.5451340000000  0.4282730000000 1.0
C      1  0.4616620000000  0.4424280000000  0.5447960000000 1.0
C      1  0.4878120000000  0.4638070000000  0.4833560000000 1.0
C      1  0.5325710000000  0.5536050000000  0.4861170000000 1.0
C      1  0.5457800000000  0.4282680000000  0.5059500000000 1.0
C      1  0.5624230000000  0.5200270000000  0.4609940000000 1.0
C      1  0.5278890000000  0.5255440000000  0.5314290000000 1.0
C      1  0.5228890000000  0.4716070000000  0.5003570000000 1.0
C      1  0.5352500000000  0.5069640000000  0.5759950000000 1.0
C      1  0.5240250000000  0.5252100000000  0.4713020000000 1.0
C      1  0.4834070000000  0.5061540000000  0.4771480000000 1.0
C      1  0.5317740000000  0.5176100000000  0.5030760000000 1.0
C      1  0.5590180000000  0.4889740000000  0.5348100000000 1.0
C      1  0.4367310000000  0.5328900000000  0.4961920000000 1.0
C      1  0.5779590000000  0.4987790000000  0.5082300000000 1.0
C      1  0.5773550000000  0.4666600000000  0.5168070000000 1.0
C      1  0.5053470000000  0.5496270000000  0.5397500000000 1.0
C      1  0.5509820000000  0.5150320000000  0.5500760000000 1.0
END
