TITL C-2778426-5645-1258 0.0555360845616631 125000 -450.474226746672 0 0 80 (C1) n - 1
REM
REM in /home/nfs/bkarasulu/CARBON/AIRSS/Generating-Clusters/REBO/Only-C1/SD-CG/HFTN-CG
REM
REM
REM
REM
REM
REM ./C.cell (11c1c37f851c82e70ff6c80c92926a4b)
REM
REM compiler GCC version 9.2.1 20190827 (Red Hat 9.2.1-1)
REM options -cpp -mtune=generic -march=x86-64 -g -O0 -fpre-include=/usr/include/finclude/math-vector-fortran.h
REM seed 1062573121 -1710470573 -1103917375 372066702 -2072918912 -1282764739 -575083097 640272294 -1480704324 266508933 -1850616699 -2096899986 451329867 -858887462 1716382481 1998170508 187339773 783265331 507297804 -34887117 658850105 -559005764 -1929118436 -1082903842 1519619821 -15575130 367716039 893223294 1394808415 1811786939 -1905079183 635589904 -854989286
REM
CELL 1.54180   50.00000   50.00000   50.00000   90.00000   90.00000   90.00000
LATT -1
SFAC C  
C      1  0.5161780000000  0.4732840000000  0.4562710000000 1.0
C      1  0.5283140000000  0.5252000000000  0.5145440000000 1.0
C      1  0.5740120000000  0.5081290000000  0.5012970000000 1.0
C      1  0.5213530000000  0.4465970000000  0.5201730000000 1.0
C      1  0.4318290000000  0.4916050000000  0.5255290000000 1.0
C      1  0.4850310000000  0.5719010000000  0.4963520000000 1.0
C      1  0.4555280000000  0.5506140000000  0.5129050000000 1.0
C      1  0.4976370000000  0.4928700000000  0.4352960000000 1.0
C      1  0.4846360000000  0.5180490000000  0.5771500000000 1.0
C      1  0.4535920000000  0.5339740000000  0.4649500000000 1.0
C      1  0.4359160000000  0.4502070000000  0.4845260000000 1.0
C      1  0.5309350000000  0.5354160000000  0.4230670000000 1.0
C      1  0.5779470000000  0.4949060000000  0.4774080000000 1.0
C      1  0.5242330000000  0.5246290000000  0.5543070000000 1.0
C      1  0.4950560000000  0.4431620000000  0.5040310000000 1.0
C      1  0.4243910000000  0.5003680000000  0.4940210000000 1.0
C      1  0.4493710000000  0.4913580000000  0.4442570000000 1.0
C      1  0.5155130000000  0.5575930000000  0.5335550000000 1.0
C      1  0.5211540000000  0.4264080000000  0.4376290000000 1.0
C      1  0.4919380000000  0.5315010000000  0.4153830000000 1.0
C      1  0.4806730000000  0.5073410000000  0.5388540000000 1.0
C      1  0.4575080000000  0.5234370000000  0.5696770000000 1.0
C      1  0.4366960000000  0.4613710000000  0.5510230000000 1.0
C      1  0.5564500000000  0.5265580000000  0.4433130000000 1.0
C      1  0.4680690000000  0.5620160000000  0.4596780000000 1.0
C      1  0.5029190000000  0.5380270000000  0.5677150000000 1.0
C      1  0.4529660000000  0.4258990000000  0.4805830000000 1.0
C      1  0.4887890000000  0.5767950000000  0.5245210000000 1.0
C      1  0.4809640000000  0.4704290000000  0.4906370000000 1.0
C      1  0.5631270000000  0.5336910000000  0.4969720000000 1.0
C      1  0.5284130000000  0.4864960000000  0.5652200000000 1.0
C      1  0.4648970000000  0.5872470000000  0.4639730000000 1.0
C      1  0.5129360000000  0.5084870000000  0.4124720000000 1.0
C      1  0.4880460000000  0.5417240000000  0.4465070000000 1.0
C      1  0.4611680000000  0.5169430000000  0.5162710000000 1.0
C      1  0.5120320000000  0.4777240000000  0.5147030000000 1.0
C      1  0.5764910000000  0.4628350000000  0.5516050000000 1.0
C      1  0.5360430000000  0.4979840000000  0.5083370000000 1.0
C      1  0.5467180000000  0.5075980000000  0.4135640000000 1.0
C      1  0.5185500000000  0.5361000000000  0.4532880000000 1.0
C      1  0.5500860000000  0.5199040000000  0.5620390000000 1.0
C      1  0.4205360000000  0.4678750000000  0.5036830000000 1.0
C      1  0.4705410000000  0.4503750000000  0.4474290000000 1.0
C      1  0.4290810000000  0.5240290000000  0.5256620000000 1.0
C      1  0.5552300000000  0.5386740000000  0.4690130000000 1.0
C      1  0.4917700000000  0.5651480000000  0.5565680000000 1.0
C      1  0.4737280000000  0.4618870000000  0.5216180000000 1.0
C      1  0.5445180000000  0.5533810000000  0.5175490000000 1.0
C      1  0.5225300000000  0.5065670000000  0.4642920000000 1.0
C      1  0.4852240000000  0.4338730000000  0.4743580000000 1.0
C      1  0.4184880000000  0.4549860000000  0.5341730000000 1.0
C      1  0.4737470000000  0.5123740000000  0.4454230000000 1.0
C      1  0.4820450000000  0.5418190000000  0.4933860000000 1.0
C      1  0.5146400000000  0.4374170000000  0.5749230000000 1.0
C      1  0.5334640000000  0.5726130000000  0.4937900000000 1.0
C      1  0.5107350000000  0.4978610000000  0.5398350000000 1.0
C      1  0.4847820000000  0.4640680000000  0.4288740000000 1.0
C      1  0.4976690000000  0.4930870000000  0.5796950000000 1.0
C      1  0.5625400000000  0.4885440000000  0.5243930000000 1.0
C      1  0.5487110000000  0.4602490000000  0.5103550000000 1.0
C      1  0.4472450000000  0.5019410000000  0.4730870000000 1.0
C      1  0.5018620000000  0.4943660000000  0.4867720000000 1.0
C      1  0.4616100000000  0.5648350000000  0.5414600000000 1.0
C      1  0.4336380000000  0.5335360000000  0.4928440000000 1.0
C      1  0.4456480000000  0.5382070000000  0.5496160000000 1.0
C      1  0.5727160000000  0.4503130000000  0.5298370000000 1.0
C      1  0.5522610000000  0.4901690000000  0.4594940000000 1.0
C      1  0.5118490000000  0.4166460000000  0.5922190000000 1.0
C      1  0.5115010000000  0.4641560000000  0.5826040000000 1.0
C      1  0.5211360000000  0.4337090000000  0.5477280000000 1.0
C      1  0.4597460000000  0.4825560000000  0.5393290000000 1.0
C      1  0.5596510000000  0.4896980000000  0.5566270000000 1.0
C      1  0.5091290000000  0.4435020000000  0.4542020000000 1.0
C      1  0.4981450000000  0.5308070000000  0.5210960000000 1.0
C      1  0.4592910000000  0.4640870000000  0.4712620000000 1.0
C      1  0.4751450000000  0.5098860000000  0.4881190000000 1.0
C      1  0.5366860000000  0.4747940000000  0.4834370000000 1.0
C      1  0.5329690000000  0.4096130000000  0.4213460000000 1.0
C      1  0.5330260000000  0.5591630000000  0.4700990000000 1.0
C      1  0.5586600000000  0.4868160000000  0.4302020000000 1.0
END
