TITL C-2778424-3986-1056 0.00151435207178883 125000 -422.113904775263 0 0 75 (C1) n - 1
REM
REM in /home/nfs/bkarasulu/CARBON/AIRSS/Generating-Clusters/REBO/Only-C1/SD-CG/HFTN-CG
REM
REM
REM
REM
REM
REM ./C.cell (11c1c37f851c82e70ff6c80c92926a4b)
REM
REM compiler GCC version 9.2.1 20190827 (Red Hat 9.2.1-1)
REM options -cpp -mtune=generic -march=x86-64 -g -O0 -fpre-include=/usr/include/finclude/math-vector-fortran.h
REM seed 649166229 -1049463383 1222120080 1366224384 1856038102 457782521 51127116 -639808670 1704008346 394246150 716203549 1371488160 1748865872 308519666 -598963561 1144791192 -1755138731 -1904734090 -164764573 -1429666514 -1721607613 1460144500 -451160142 -1738422550 1712480390 -916796793 2136242604 -317524145 -1527319762 635574403 2057056577 1875699707 -1396862782
REM
CELL 1.54180   50.00000   50.00000   50.00000   90.00000   90.00000   90.00000
LATT -1
SFAC C  
C      1  0.5101110000000  0.4318400000000  0.5238260000000 1.0
C      1  0.4526620000000  0.5058090000000  0.5552290000000 1.0
C      1  0.5110170000000  0.4271240000000  0.4746080000000 1.0
C      1  0.4342640000000  0.5166790000000  0.5354130000000 1.0
C      1  0.5063420000000  0.5622800000000  0.5509290000000 1.0
C      1  0.4574570000000  0.4655100000000  0.5177720000000 1.0
C      1  0.4586450000000  0.4635980000000  0.4264960000000 1.0
C      1  0.5219760000000  0.4649770000000  0.4804180000000 1.0
C      1  0.5141290000000  0.5819360000000  0.5319580000000 1.0
C      1  0.5353540000000  0.4892620000000  0.4254170000000 1.0
C      1  0.4880080000000  0.4674360000000  0.4753390000000 1.0
C      1  0.4955870000000  0.5161440000000  0.4758710000000 1.0
C      1  0.5673880000000  0.5265550000000  0.4814440000000 1.0
C      1  0.5399690000000  0.4313720000000  0.4626760000000 1.0
C      1  0.5569970000000  0.4827620000000  0.4467320000000 1.0
C      1  0.4291090000000  0.4664500000000  0.5367800000000 1.0
C      1  0.5302780000000  0.4927180000000  0.4987880000000 1.0
C      1  0.4982880000000  0.5592880000000  0.4581950000000 1.0
C      1  0.5563240000000  0.5590650000000  0.5261280000000 1.0
C      1  0.4614430000000  0.5220130000000  0.4328800000000 1.0
C      1  0.4787170000000  0.5546790000000  0.5511440000000 1.0
C      1  0.5438700000000  0.4953710000000  0.5712190000000 1.0
C      1  0.4996610000000  0.4928310000000  0.5415430000000 1.0
C      1  0.5417380000000  0.4676740000000  0.5552090000000 1.0
C      1  0.5200180000000  0.4988090000000  0.5866130000000 1.0
C      1  0.5495900000000  0.5187150000000  0.5566300000000 1.0
C      1  0.4360550000000  0.5457760000000  0.5266710000000 1.0
C      1  0.5528440000000  0.5169230000000  0.5055520000000 1.0
C      1  0.5259160000000  0.5625150000000  0.4678490000000 1.0
C      1  0.4321800000000  0.5132390000000  0.4819680000000 1.0
C      1  0.5809910000000  0.4357040000000  0.5499450000000 1.0
C      1  0.5421480000000  0.5190050000000  0.4392270000000 1.0
C      1  0.4391120000000  0.5001890000000  0.5117410000000 1.0
C      1  0.4882940000000  0.4277770000000  0.4913640000000 1.0
C      1  0.4977830000000  0.5502450000000  0.4307610000000 1.0
C      1  0.4812310000000  0.4675770000000  0.4164820000000 1.0
C      1  0.4512020000000  0.4375340000000  0.5010220000000 1.0
C      1  0.5611540000000  0.5319630000000  0.5323170000000 1.0
C      1  0.5290510000000  0.4861010000000  0.5313540000000 1.0
C      1  0.4780530000000  0.5227630000000  0.5564750000000 1.0
C      1  0.4498700000000  0.4631890000000  0.4546830000000 1.0
C      1  0.4530710000000  0.4762660000000  0.5556690000000 1.0
C      1  0.4765650000000  0.5244450000000  0.5029370000000 1.0
C      1  0.5507390000000  0.4606700000000  0.4632390000000 1.0
C      1  0.4759590000000  0.5655350000000  0.5009740000000 1.0
C      1  0.4277850000000  0.4622470000000  0.5028530000000 1.0
C      1  0.5262700000000  0.5358920000000  0.5135670000000 1.0
C      1  0.4980400000000  0.5032840000000  0.5713960000000 1.0
C      1  0.5098590000000  0.4578020000000  0.5567220000000 1.0
C      1  0.5276770000000  0.5087470000000  0.4683510000000 1.0
C      1  0.5075860000000  0.4739670000000  0.4312320000000 1.0
C      1  0.4324320000000  0.4800010000000  0.4778990000000 1.0
C      1  0.4641380000000  0.4918400000000  0.4721020000000 1.0
C      1  0.4625550000000  0.5612170000000  0.5277120000000 1.0
C      1  0.4480620000000  0.5369470000000  0.4996340000000 1.0
C      1  0.4750340000000  0.5522900000000  0.4746110000000 1.0
C      1  0.4719490000000  0.4923390000000  0.5155150000000 1.0
C      1  0.5037420000000  0.5037700000000  0.4448890000000 1.0
C      1  0.4653910000000  0.4421600000000  0.4729580000000 1.0
C      1  0.4976480000000  0.4633690000000  0.5252140000000 1.0
C      1  0.5580790000000  0.5528550000000  0.4730910000000 1.0
C      1  0.5306190000000  0.5674340000000  0.5053750000000 1.0
C      1  0.4585530000000  0.5244720000000  0.4639160000000 1.0
C      1  0.4959410000000  0.4905730000000  0.4961800000000 1.0
C      1  0.4961470000000  0.5279750000000  0.5273680000000 1.0
C      1  0.5240230000000  0.5355480000000  0.5466950000000 1.0
C      1  0.5355860000000  0.4269860000000  0.5305710000000 1.0
C      1  0.4767660000000  0.4525420000000  0.5497790000000 1.0
C      1  0.5450230000000  0.5498660000000  0.4439660000000 1.0
C      1  0.4998730000000  0.5813380000000  0.5037960000000 1.0
C      1  0.5546940000000  0.4421820000000  0.5451470000000 1.0
C      1  0.5142260000000  0.4513350000000  0.4501140000000 1.0
C      1  0.4759510000000  0.4305210000000  0.5232940000000 1.0
C      1  0.4885020000000  0.5236550000000  0.4268430000000 1.0
C      1  0.5666930000000  0.5085370000000  0.4597250000000 1.0
END
