TITL C-2778431-5191-671 0.000142766977652806 125000 -1033.52368229667 0 0 176 (C1) n - 1
REM
REM in /home/nfs/bkarasulu/CARBON/AIRSS/Generating-Clusters/REBO/Only-C1/SD-CG/HFTN-CG
REM
REM
REM
REM
REM
REM ./C.cell (11c1c37f851c82e70ff6c80c92926a4b)
REM
REM compiler GCC version 9.2.1 20190827 (Red Hat 9.2.1-1)
REM options -cpp -mtune=generic -march=x86-64 -g -O0 -fpre-include=/usr/include/finclude/math-vector-fortran.h
REM seed -84084434 -1126180655 -1696337204 20850519 -772882882 2040453926 -609237949 1975091302 -99711834 -609800062 -1447352555 -1040555196 2030347320 -118743353 -1122507917 1886884600 -962878892 980931352 179768483 544155242 -927510960 2024638192 1961527313 1298302920 1266883556 -173782757 -571003715 788687534 267523905 674808283 1691495049 1664458532 -1402328255
REM
CELL 1.54180   50.00000   50.00000   50.00000   90.00000   90.00000   90.00000
LATT -1
SFAC C  
C      1  0.3975130000000  0.5190530000000  0.4952060000000 1.0
C      1  0.5961230000000  0.4928720000000  0.4615990000000 1.0
C      1  0.4604040000000  0.5848440000000  0.5141820000000 1.0
C      1  0.5479030000000  0.5394090000000  0.4167840000000 1.0
C      1  0.5305330000000  0.4793080000000  0.4478270000000 1.0
C      1  0.4631480000000  0.4852370000000  0.3957620000000 1.0
C      1  0.5058190000000  0.4544990000000  0.5516010000000 1.0
C      1  0.5334580000000  0.5352950000000  0.5151210000000 1.0
C      1  0.4750360000000  0.4001340000000  0.5403650000000 1.0
C      1  0.4010830000000  0.4810920000000  0.5068820000000 1.0
C      1  0.5081230000000  0.5782750000000  0.4918840000000 1.0
C      1  0.5186860000000  0.3823170000000  0.5234410000000 1.0
C      1  0.4368740000000  0.4609160000000  0.5693160000000 1.0
C      1  0.5747170000000  0.4489270000000  0.4360550000000 1.0
C      1  0.5176670000000  0.4128320000000  0.4806320000000 1.0
C      1  0.5549320000000  0.4598700000000  0.5111500000000 1.0
C      1  0.4760260000000  0.5059770000000  0.5117940000000 1.0
C      1  0.5103540000000  0.5249190000000  0.6021730000000 1.0
C      1  0.5997410000000  0.4890240000000  0.5366770000000 1.0
C      1  0.4322880000000  0.5708480000000  0.5431580000000 1.0
C      1  0.4921210000000  0.5830860000000  0.4352440000000 1.0
C      1  0.5377090000000  0.4793480000000  0.4157660000000 1.0
C      1  0.5987040000000  0.5660820000000  0.4772370000000 1.0
C      1  0.4891630000000  0.5202230000000  0.5399040000000 1.0
C      1  0.5669480000000  0.5736980000000  0.4837450000000 1.0
C      1  0.4565520000000  0.5112870000000  0.6045640000000 1.0
C      1  0.4428210000000  0.5927110000000  0.4440610000000 1.0
C      1  0.4957190000000  0.5730160000000  0.5890060000000 1.0
C      1  0.4100930000000  0.4497380000000  0.5106340000000 1.0
C      1  0.4596300000000  0.4475420000000  0.5134750000000 1.0
C      1  0.4957650000000  0.4276740000000  0.4187370000000 1.0
C      1  0.4812580000000  0.4721470000000  0.4413080000000 1.0
C      1  0.4392450000000  0.4364560000000  0.5548340000000 1.0
C      1  0.5318400000000  0.4638560000000  0.4882990000000 1.0
C      1  0.4710380000000  0.5427260000000  0.5558960000000 1.0
C      1  0.4767840000000  0.5957970000000  0.5398840000000 1.0
C      1  0.4596500000000  0.3971570000000  0.5109650000000 1.0
C      1  0.4742340000000  0.5568070000000  0.4111380000000 1.0
C      1  0.5130280000000  0.4817910000000  0.3942360000000 1.0
C      1  0.4760120000000  0.4724000000000  0.5189090000000 1.0
C      1  0.4556440000000  0.5444000000000  0.5966420000000 1.0
C      1  0.5182430000000  0.5284760000000  0.5424360000000 1.0
C      1  0.4770880000000  0.5873360000000  0.4863250000000 1.0
C      1  0.5287670000000  0.6047820000000  0.4670420000000 1.0
C      1  0.4282550000000  0.5313810000000  0.5852450000000 1.0
C      1  0.4197320000000  0.5760750000000  0.4884150000000 1.0
C      1  0.4678230000000  0.4258620000000  0.4957720000000 1.0
C      1  0.5606890000000  0.4743410000000  0.4630070000000 1.0
C      1  0.5469050000000  0.4295290000000  0.5554350000000 1.0
C      1  0.5674350000000  0.4917000000000  0.5486420000000 1.0
C      1  0.4410280000000  0.3972860000000  0.4880650000000 1.0
C      1  0.5607260000000  0.5054410000000  0.4490170000000 1.0
C      1  0.5208270000000  0.4107810000000  0.5665590000000 1.0
C      1  0.5228760000000  0.5524090000000  0.4346380000000 1.0
C      1  0.5949660000000  0.4692870000000  0.4434960000000 1.0
C      1  0.4455590000000  0.5099360000000  0.5254280000000 1.0
C      1  0.4287200000000  0.4985730000000  0.5780600000000 1.0
C      1  0.5014550000000  0.5290800000000  0.4446390000000 1.0
C      1  0.5346740000000  0.5062990000000  0.5871410000000 1.0
C      1  0.5081990000000  0.4429540000000  0.4802330000000 1.0
C      1  0.4438660000000  0.4745060000000  0.4125200000000 1.0
C      1  0.4673660000000  0.5711770000000  0.5836890000000 1.0
C      1  0.5366420000000  0.5821460000000  0.5443080000000 1.0
C      1  0.5189790000000  0.5559690000000  0.4684640000000 1.0
C      1  0.4719800000000  0.4330390000000  0.4643950000000 1.0
C      1  0.4471740000000  0.4726720000000  0.4851910000000 1.0
C      1  0.5891020000000  0.5396790000000  0.5202360000000 1.0
C      1  0.4045620000000  0.5036790000000  0.5311520000000 1.0
C      1  0.5541940000000  0.4253740000000  0.4910000000000 1.0
C      1  0.5060540000000  0.4665480000000  0.5215140000000 1.0
C      1  0.5509840000000  0.5577820000000  0.5165300000000 1.0
C      1  0.5226520000000  0.5130120000000  0.4008700000000 1.0
C      1  0.4012710000000  0.4912400000000  0.4754750000000 1.0
C      1  0.5115720000000  0.5387070000000  0.4948470000000 1.0
C      1  0.5768600000000  0.5264310000000  0.5660350000000 1.0
C      1  0.4786870000000  0.4607490000000  0.4795390000000 1.0
C      1  0.5377320000000  0.5034650000000  0.5386450000000 1.0
C      1  0.5582800000000  0.5502160000000  0.4645980000000 1.0
C      1  0.4334600000000  0.4556530000000  0.4356130000000 1.0
C      1  0.4616120000000  0.4887900000000  0.4515630000000 1.0
C      1  0.6258800000000  0.4923020000000  0.4913830000000 1.0
C      1  0.5168390000000  0.4487800000000  0.4015000000000 1.0
C      1  0.4845500000000  0.5643560000000  0.5385470000000 1.0
C      1  0.4459980000000  0.5816920000000  0.4734310000000 1.0
C      1  0.4205240000000  0.5610140000000  0.5165480000000 1.0
C      1  0.5295320000000  0.4090830000000  0.4543720000000 1.0
C      1  0.5784090000000  0.4441770000000  0.5280050000000 1.0
C      1  0.5464150000000  0.4478170000000  0.4189720000000 1.0
C      1  0.4234860000000  0.5217080000000  0.4263870000000 1.0
C      1  0.5663170000000  0.4874410000000  0.5157390000000 1.0
C      1  0.4368440000000  0.5330760000000  0.5068050000000 1.0
C      1  0.5477760000000  0.4814940000000  0.5730070000000 1.0
C      1  0.4974070000000  0.4081770000000  0.5156750000000 1.0
C      1  0.5903940000000  0.5217260000000  0.4520790000000 1.0
C      1  0.5626900000000  0.5554820000000  0.4367910000000 1.0
C      1  0.5754190000000  0.5368200000000  0.4891890000000 1.0
C      1  0.5404940000000  0.4971030000000  0.4878140000000 1.0
C      1  0.5221750000000  0.4909040000000  0.5155930000000 1.0
C      1  0.5846550000000  0.4638030000000  0.4852300000000 1.0
C      1  0.4184400000000  0.5210220000000  0.5545240000000 1.0
C      1  0.4716390000000  0.5317610000000  0.4330590000000 1.0
C      1  0.5160000000000  0.5070200000000  0.4579900000000 1.0
C      1  0.5611450000000  0.5866030000000  0.5209170000000 1.0
C      1  0.5328640000000  0.5515060000000  0.5590120000000 1.0
C      1  0.5626490000000  0.5198690000000  0.5206800000000 1.0
C      1  0.4349680000000  0.4207990000000  0.4729870000000 1.0
C      1  0.5224140000000  0.5951710000000  0.5175510000000 1.0
C      1  0.3959160000000  0.5224680000000  0.4621720000000 1.0
C      1  0.5242680000000  0.4295070000000  0.4353670000000 1.0
C      1  0.5497610000000  0.5083050000000  0.4210930000000 1.0
C      1  0.4634040000000  0.5546520000000  0.4679450000000 1.0
C      1  0.5053320000000  0.5554870000000  0.6096410000000 1.0
C      1  0.5918800000000  0.4604110000000  0.5490710000000 1.0
C      1  0.5558380000000  0.4406120000000  0.4620280000000 1.0
C      1  0.6020660000000  0.5456190000000  0.4598020000000 1.0
C      1  0.5097900000000  0.4925070000000  0.6061000000000 1.0
C      1  0.4415910000000  0.5451160000000  0.5575650000000 1.0
C      1  0.5884230000000  0.5692930000000  0.5095660000000 1.0
C      1  0.4632910000000  0.4880920000000  0.5451130000000 1.0
C      1  0.5195340000000  0.4662970000000  0.6185990000000 1.0
C      1  0.5243170000000  0.5462830000000  0.3951730000000 1.0
C      1  0.5432110000000  0.4258650000000  0.5237680000000 1.0
C      1  0.4791470000000  0.4657060000000  0.5657290000000 1.0
C      1  0.5427560000000  0.5232460000000  0.4689790000000 1.0
C      1  0.5978840000000  0.4251020000000  0.5136730000000 1.0
C      1  0.5014680000000  0.6116650000000  0.5302610000000 1.0
C      1  0.5675700000000  0.4549040000000  0.5649700000000 1.0
C      1  0.4798140000000  0.3933660000000  0.4574900000000 1.0
C      1  0.5096220000000  0.4559030000000  0.4495680000000 1.0
C      1  0.4591600000000  0.5542030000000  0.4992650000000 1.0
C      1  0.4882230000000  0.4020170000000  0.4834800000000 1.0
C      1  0.4861740000000  0.4991680000000  0.3936370000000 1.0
C      1  0.5065040000000  0.3918890000000  0.5506250000000 1.0
C      1  0.6034550000000  0.4810880000000  0.5037000000000 1.0
C      1  0.4560240000000  0.5822900000000  0.5600630000000 1.0
C      1  0.4936970000000  0.5315520000000  0.3991560000000 1.0
C      1  0.5050030000000  0.4255530000000  0.5853550000000 1.0
C      1  0.4455650000000  0.4296130000000  0.4441410000000 1.0
C      1  0.5036230000000  0.5100180000000  0.4958930000000 1.0
C      1  0.5349560000000  0.4012150000000  0.5040020000000 1.0
C      1  0.5941220000000  0.5210030000000  0.5452240000000 1.0
C      1  0.4875150000000  0.4594230000000  0.4152070000000 1.0
C      1  0.5119850000000  0.4342330000000  0.5246910000000 1.0
C      1  0.3981970000000  0.5712610000000  0.4720750000000 1.0
C      1  0.4619240000000  0.4199500000000  0.5599150000000 1.0
C      1  0.5144080000000  0.5772980000000  0.5689020000000 1.0
C      1  0.5116960000000  0.6026130000000  0.4494670000000 1.0
C      1  0.5058640000000  0.5680240000000  0.4100580000000 1.0
C      1  0.3878040000000  0.5514560000000  0.4561580000000 1.0
C      1  0.4614000000000  0.5033090000000  0.4811740000000 1.0
C      1  0.3997060000000  0.5357440000000  0.5209220000000 1.0
C      1  0.5510080000000  0.5305570000000  0.5740430000000 1.0
C      1  0.5443640000000  0.5951750000000  0.4919150000000 1.0
C      1  0.5838990000000  0.4356700000000  0.4894950000000 1.0
C      1  0.4506790000000  0.4797660000000  0.5932500000000 1.0
C      1  0.5745270000000  0.5032530000000  0.4863940000000 1.0
C      1  0.4333860000000  0.4950200000000  0.4353950000000 1.0
C      1  0.4240650000000  0.4822210000000  0.5484890000000 1.0
C      1  0.4894700000000  0.5595900000000  0.4552030000000 1.0
C      1  0.5046980000000  0.4824940000000  0.4787550000000 1.0
C      1  0.4338040000000  0.4813250000000  0.5156170000000 1.0
C      1  0.4750020000000  0.4148760000000  0.4363080000000 1.0
C      1  0.4346250000000  0.4421510000000  0.5272030000000 1.0
C      1  0.5290620000000  0.4540290000000  0.5711040000000 1.0
C      1  0.5207700000000  0.4456370000000  0.6011230000000 1.0
C      1  0.4408730000000  0.5396410000000  0.4235360000000 1.0
C      1  0.4518510000000  0.5266840000000  0.4597190000000 1.0
C      1  0.4784820000000  0.5054250000000  0.5676130000000 1.0
C      1  0.4840530000000  0.4851800000000  0.5919190000000 1.0
C      1  0.4240150000000  0.4769690000000  0.4605490000000 1.0
C      1  0.4612820000000  0.5849450000000  0.4250600000000 1.0
C      1  0.4886500000000  0.5568050000000  0.5097480000000 1.0
C      1  0.4844940000000  0.5319840000000  0.5849360000000 1.0
C      1  0.4290820000000  0.4436540000000  0.4877480000000 1.0
C      1  0.4264720000000  0.5221980000000  0.4774050000000 1.0
C      1  0.4801970000000  0.4347690000000  0.5750330000000 1.0
END
