TITL C-2778425-5191-869 0.056421126784794 125000 -266.487962958452 0 0 47 (C1) n - 1
REM
REM in /home/nfs/bkarasulu/CARBON/AIRSS/Generating-Clusters/REBO/Only-C1/SD-CG/HFTN-CG
REM
REM
REM
REM
REM
REM ./C.cell (11c1c37f851c82e70ff6c80c92926a4b)
REM
REM compiler GCC version 9.2.1 20190827 (Red Hat 9.2.1-1)
REM options -cpp -mtune=generic -march=x86-64 -g -O0 -fpre-include=/usr/include/finclude/math-vector-fortran.h
REM seed -1985524021 1490157320 -1754122626 1868131294 -1180797325 678665599 1062030758 -2070757337 1384750717 1883528033 -107051332 -1851731167 -472121349 -2056307179 -736520894 -1150416954 -2007708368 -326222796 -1793590783 2059801725 -1932606070 -238548542 -296178447 71539860 362512186 -488708006 -1945032126 1083520236 1663871552 324291779 659756082 315535767 1943099983
REM
CELL 1.54180   50.00000   50.00000   50.00000   90.00000   90.00000   90.00000
LATT -1
SFAC C  
C      1  0.5474790000000  0.5133340000000  0.5039580000000 1.0
C      1  0.5312280000000  0.5330570000000  0.4926720000000 1.0
C      1  0.4519420000000  0.4587680000000  0.4895410000000 1.0
C      1  0.4975120000000  0.5451370000000  0.5734400000000 1.0
C      1  0.5705400000000  0.5322910000000  0.5453460000000 1.0
C      1  0.4894860000000  0.5090790000000  0.5057820000000 1.0
C      1  0.5008490000000  0.5383710000000  0.4558590000000 1.0
C      1  0.4907380000000  0.5322440000000  0.5263020000000 1.0
C      1  0.4938610000000  0.4368080000000  0.4859090000000 1.0
C      1  0.4364550000000  0.5164080000000  0.5412340000000 1.0
C      1  0.4873400000000  0.4908980000000  0.4361890000000 1.0
C      1  0.4537960000000  0.4939650000000  0.5458230000000 1.0
C      1  0.5494680000000  0.4883390000000  0.4890000000000 1.0
C      1  0.4507730000000  0.5021060000000  0.4712500000000 1.0
C      1  0.5537360000000  0.5120410000000  0.5356800000000 1.0
C      1  0.5040570000000  0.4874710000000  0.5677000000000 1.0
C      1  0.4455390000000  0.5228020000000  0.4538550000000 1.0
C      1  0.5191550000000  0.4781870000000  0.5407550000000 1.0
C      1  0.5029910000000  0.4810520000000  0.5156340000000 1.0
C      1  0.5664170000000  0.4826540000000  0.5341290000000 1.0
C      1  0.5050760000000  0.5201710000000  0.4821480000000 1.0
C      1  0.4584330000000  0.5058290000000  0.4999400000000 1.0
C      1  0.4859360000000  0.5575200000000  0.5191730000000 1.0
C      1  0.4976900000000  0.5243010000000  0.5546000000000 1.0
C      1  0.5115170000000  0.4999520000000  0.4581480000000 1.0
C      1  0.4812230000000  0.5823310000000  0.5121750000000 1.0
C      1  0.5287570000000  0.4538860000000  0.4578900000000 1.0
C      1  0.5348740000000  0.5592560000000  0.4818580000000 1.0
C      1  0.5494460000000  0.4417050000000  0.5145200000000 1.0
C      1  0.5048250000000  0.4379040000000  0.4592890000000 1.0
C      1  0.5538500000000  0.5771670000000  0.4889570000000 1.0
C      1  0.4744070000000  0.4613510000000  0.5355000000000 1.0
C      1  0.4405590000000  0.5424990000000  0.4373010000000 1.0
C      1  0.4532330000000  0.4744710000000  0.4652270000000 1.0
C      1  0.5269220000000  0.5080380000000  0.5522520000000 1.0
C      1  0.4841610000000  0.4435420000000  0.4401940000000 1.0
C      1  0.4969860000000  0.5205420000000  0.4327460000000 1.0
C      1  0.4710890000000  0.4688700000000  0.4429850000000 1.0
C      1  0.5026590000000  0.4582500000000  0.5016520000000 1.0
C      1  0.4568570000000  0.4762500000000  0.5166780000000 1.0
C      1  0.4655600000000  0.4337450000000  0.4883680000000 1.0
C      1  0.5159190000000  0.5624350000000  0.4601860000000 1.0
C      1  0.4397970000000  0.5256790000000  0.5153740000000 1.0
C      1  0.4763210000000  0.4986630000000  0.5618840000000 1.0
C      1  0.5440070000000  0.4610880000000  0.5388990000000 1.0
C      1  0.5635870000000  0.4688560000000  0.5053070000000 1.0
C      1  0.5329490000000  0.4806860000000  0.4666940000000 1.0
END
