TITL C-2778423-5760-484 -0.00169244164534865 125000 -1058.59824121281 0 0 182 (C1) n - 1
REM
REM in /home/nfs/bkarasulu/CARBON/AIRSS/Generating-Clusters/REBO/Only-C1/SD-CG/HFTN-CG
REM
REM
REM
REM
REM
REM ./C.cell (11c1c37f851c82e70ff6c80c92926a4b)
REM
REM compiler GCC version 9.2.1 20190827 (Red Hat 9.2.1-1)
REM options -cpp -mtune=generic -march=x86-64 -g -O0 -fpre-include=/usr/include/finclude/math-vector-fortran.h
REM seed -1727695318 -2045032214 -892901995 656164657 -1580794998 -238186161 -1258107543 327788209 -363994228 -195970872 -547818156 2071341965 -799670038 -2116899134 1654285647 1215807949 723380181 -831717233 342937255 2025832957 1746935340 34794648 2117858768 -1903850306 -389514035 1014694444 -164423079 2004992386 -508762242 1753004039 988644881 1755955480 -67166903
REM
CELL 1.54180   50.00000   50.00000   50.00000   90.00000   90.00000   90.00000
LATT -1
SFAC C  
C      1  0.5980570000000  0.5143870000000  0.4590560000000 1.0
C      1  0.4394870000000  0.5855550000000  0.4653970000000 1.0
C      1  0.5022510000000  0.4769760000000  0.4993850000000 1.0
C      1  0.4841560000000  0.5188260000000  0.3810470000000 1.0
C      1  0.5850930000000  0.5736350000000  0.4934960000000 1.0
C      1  0.6024980000000  0.5139330000000  0.5318310000000 1.0
C      1  0.5373310000000  0.5682360000000  0.4736290000000 1.0
C      1  0.5536750000000  0.5205590000000  0.4386320000000 1.0
C      1  0.5195060000000  0.5791150000000  0.4975050000000 1.0
C      1  0.6093270000000  0.5566960000000  0.5027110000000 1.0
C      1  0.5149090000000  0.5843560000000  0.4442780000000 1.0
C      1  0.4991080000000  0.3950510000000  0.4706570000000 1.0
C      1  0.4926510000000  0.4108950000000  0.5066860000000 1.0
C      1  0.4417320000000  0.5833830000000  0.5422450000000 1.0
C      1  0.5264090000000  0.4123470000000  0.5635160000000 1.0
C      1  0.4504650000000  0.4340260000000  0.5856980000000 1.0
C      1  0.4663670000000  0.5101340000000  0.4842140000000 1.0
C      1  0.4116250000000  0.4444750000000  0.4892270000000 1.0
C      1  0.4346220000000  0.5237740000000  0.5884220000000 1.0
C      1  0.5370120000000  0.5190030000000  0.5932540000000 1.0
C      1  0.4683830000000  0.4154140000000  0.4434890000000 1.0
C      1  0.4833330000000  0.5578160000000  0.4711020000000 1.0
C      1  0.4497460000000  0.5139980000000  0.4094480000000 1.0
C      1  0.5168790000000  0.4783940000000  0.6140400000000 1.0
C      1  0.5839650000000  0.4943750000000  0.5024550000000 1.0
C      1  0.4360080000000  0.4266600000000  0.4994330000000 1.0
C      1  0.5486330000000  0.5875800000000  0.4502200000000 1.0
C      1  0.5270830000000  0.4467270000000  0.5179800000000 1.0
C      1  0.4444230000000  0.4979590000000  0.5024860000000 1.0
C      1  0.5352630000000  0.4404600000000  0.4862940000000 1.0
C      1  0.5440530000000  0.4084050000000  0.4789220000000 1.0
C      1  0.5206710000000  0.6190430000000  0.4978080000000 1.0
C      1  0.4108610000000  0.4611780000000  0.4669550000000 1.0
C      1  0.5227360000000  0.3890790000000  0.4843790000000 1.0
C      1  0.5588530000000  0.5538640000000  0.4886360000000 1.0
C      1  0.5759760000000  0.4991030000000  0.4432120000000 1.0
C      1  0.4622320000000  0.4853140000000  0.5933660000000 1.0
C      1  0.3890220000000  0.4688970000000  0.5134360000000 1.0
C      1  0.5137230000000  0.5064860000000  0.4273090000000 1.0
C      1  0.4897880000000  0.4861240000000  0.5300780000000 1.0
C      1  0.5434820000000  0.5348840000000  0.5571020000000 1.0
C      1  0.5831520000000  0.4378610000000  0.5165950000000 1.0
C      1  0.5502960000000  0.5847530000000  0.5487410000000 1.0
C      1  0.4525830000000  0.5807950000000  0.5680680000000 1.0
C      1  0.5125480000000  0.5332620000000  0.4354240000000 1.0
C      1  0.6134140000000  0.4968590000000  0.4746490000000 1.0
C      1  0.5523450000000  0.4289140000000  0.5250600000000 1.0
C      1  0.5117830000000  0.5111200000000  0.6148680000000 1.0
C      1  0.4342200000000  0.4960670000000  0.5932540000000 1.0
C      1  0.4618940000000  0.4715190000000  0.4255290000000 1.0
C      1  0.4811160000000  0.4418250000000  0.4705130000000 1.0
C      1  0.5015100000000  0.5476390000000  0.3868030000000 1.0
C      1  0.4193000000000  0.5213550000000  0.4227670000000 1.0
C      1  0.4741630000000  0.4851460000000  0.5612500000000 1.0
C      1  0.4588990000000  0.4461590000000  0.4942490000000 1.0
C      1  0.5374930000000  0.4590540000000  0.5646430000000 1.0
C      1  0.4597230000000  0.5418200000000  0.5633920000000 1.0
C      1  0.4965790000000  0.4114050000000  0.4468650000000 1.0
C      1  0.4013790000000  0.4878610000000  0.4720500000000 1.0
C      1  0.4857150000000  0.5054870000000  0.5936090000000 1.0
C      1  0.4723050000000  0.6003170000000  0.5073810000000 1.0
C      1  0.5718420000000  0.4390400000000  0.4539600000000 1.0
C      1  0.5479690000000  0.4298070000000  0.5555530000000 1.0
C      1  0.5043820000000  0.4635710000000  0.3943510000000 1.0
C      1  0.4959130000000  0.6160390000000  0.4972980000000 1.0
C      1  0.4581680000000  0.4766850000000  0.5199120000000 1.0
C      1  0.5212200000000  0.3788230000000  0.5111180000000 1.0
C      1  0.4547050000000  0.4046600000000  0.5175780000000 1.0
C      1  0.5333010000000  0.4706120000000  0.3984420000000 1.0
C      1  0.5064400000000  0.5879040000000  0.5237080000000 1.0
C      1  0.5159230000000  0.5294870000000  0.4915660000000 1.0
C      1  0.4865920000000  0.4482510000000  0.5526900000000 1.0
C      1  0.5706740000000  0.4555810000000  0.5591770000000 1.0
C      1  0.5975630000000  0.4699330000000  0.4846840000000 1.0
C      1  0.4614940000000  0.4579330000000  0.6064700000000 1.0
C      1  0.5343650000000  0.5511500000000  0.5921950000000 1.0
C      1  0.5349640000000  0.4836640000000  0.4316000000000 1.0
C      1  0.4625060000000  0.5863200000000  0.4424350000000 1.0
C      1  0.4126300000000  0.4485720000000  0.5231380000000 1.0
C      1  0.4888930000000  0.5351250000000  0.6089630000000 1.0
C      1  0.6232710000000  0.4624280000000  0.5422180000000 1.0
C      1  0.4844210000000  0.4328060000000  0.5892160000000 1.0
C      1  0.5040340000000  0.3936330000000  0.5295680000000 1.0
C      1  0.5454070000000  0.4703680000000  0.4787990000000 1.0
C      1  0.4144570000000  0.5410290000000  0.5056150000000 1.0
C      1  0.5371590000000  0.5683970000000  0.4241080000000 1.0
C      1  0.5030110000000  0.5563190000000  0.5906920000000 1.0
C      1  0.4882010000000  0.5781280000000  0.4515360000000 1.0
C      1  0.4956590000000  0.4518730000000  0.4185440000000 1.0
C      1  0.4503960000000  0.4739590000000  0.4804880000000 1.0
C      1  0.5372580000000  0.4993820000000  0.5267530000000 1.0
C      1  0.4393220000000  0.5588700000000  0.5208270000000 1.0
C      1  0.4543080000000  0.4591870000000  0.5553270000000 1.0
C      1  0.5684960000000  0.4823530000000  0.5735690000000 1.0
C      1  0.5441590000000  0.5233430000000  0.4077970000000 1.0
C      1  0.4829840000000  0.4811600000000  0.4770740000000 1.0
C      1  0.4795710000000  0.5712170000000  0.5241290000000 1.0
C      1  0.5008730000000  0.4628220000000  0.5799390000000 1.0
C      1  0.3874280000000  0.5183240000000  0.5425340000000 1.0
C      1  0.4512230000000  0.4253240000000  0.5529430000000 1.0
C      1  0.6035150000000  0.4831130000000  0.5274130000000 1.0
C      1  0.5770410000000  0.5523980000000  0.5446690000000 1.0
C      1  0.5130400000000  0.5174020000000  0.5386100000000 1.0
C      1  0.5222580000000  0.4302910000000  0.4354570000000 1.0
C      1  0.3965190000000  0.4915760000000  0.4994840000000 1.0
C      1  0.5110760000000  0.5430960000000  0.5609720000000 1.0
C      1  0.4665890000000  0.5438890000000  0.5083960000000 1.0
C      1  0.4980980000000  0.4423360000000  0.5006980000000 1.0
C      1  0.4998470000000  0.5048440000000  0.5638620000000 1.0
C      1  0.4492940000000  0.6067450000000  0.5293650000000 1.0
C      1  0.4274140000000  0.4902350000000  0.4325930000000 1.0
C      1  0.4840990000000  0.5444420000000  0.5439700000000 1.0
C      1  0.4887590000000  0.4715650000000  0.4450740000000 1.0
C      1  0.4703420000000  0.3949020000000  0.4890040000000 1.0
C      1  0.5508740000000  0.5502990000000  0.5276280000000 1.0
C      1  0.5063270000000  0.4464080000000  0.6095810000000 1.0
C      1  0.5297880000000  0.4922990000000  0.4959680000000 1.0
C      1  0.5080960000000  0.5101720000000  0.4676240000000 1.0
C      1  0.4546990000000  0.4863550000000  0.4014700000000 1.0
C      1  0.5448440000000  0.4524600000000  0.4229420000000 1.0
C      1  0.5428650000000  0.5002400000000  0.3937930000000 1.0
C      1  0.4279510000000  0.4208220000000  0.5317230000000 1.0
C      1  0.4763170000000  0.5677720000000  0.5781890000000 1.0
C      1  0.4542090000000  0.4903640000000  0.4516880000000 1.0
C      1  0.4755610000000  0.4495680000000  0.5231270000000 1.0
C      1  0.5232820000000  0.5469190000000  0.4555440000000 1.0
C      1  0.4247380000000  0.5339160000000  0.4732910000000 1.0
C      1  0.4188710000000  0.5080380000000  0.5128630000000 1.0
C      1  0.4985880000000  0.4182450000000  0.5633530000000 1.0
C      1  0.5606920000000  0.5094910000000  0.5718310000000 1.0
C      1  0.4495960000000  0.4760590000000  0.3778330000000 1.0
C      1  0.4318630000000  0.5261500000000  0.5581090000000 1.0
C      1  0.4204320000000  0.5601100000000  0.4552200000000 1.0
C      1  0.5421410000000  0.5098100000000  0.4688300000000 1.0
C      1  0.4374570000000  0.5454130000000  0.4063980000000 1.0
C      1  0.5362210000000  0.4565940000000  0.5963860000000 1.0
C      1  0.6139760000000  0.5356030000000  0.5146810000000 1.0
C      1  0.4678160000000  0.5458510000000  0.3937320000000 1.0
C      1  0.5726730000000  0.4660480000000  0.4354520000000 1.0
C      1  0.5122180000000  0.4449990000000  0.4634420000000 1.0
C      1  0.4760620000000  0.4067030000000  0.5427360000000 1.0
C      1  0.5647790000000  0.5798440000000  0.5182940000000 1.0
C      1  0.5681240000000  0.5031240000000  0.5306660000000 1.0
C      1  0.3883280000000  0.5383740000000  0.5264540000000 1.0
C      1  0.5780970000000  0.5730980000000  0.4599210000000 1.0
C      1  0.4597260000000  0.5376750000000  0.5973960000000 1.0
C      1  0.5920820000000  0.4545840000000  0.5385640000000 1.0
C      1  0.4475870000000  0.5826700000000  0.4976130000000 1.0
C      1  0.5819660000000  0.5251640000000  0.5527590000000 1.0
C      1  0.4309360000000  0.4705110000000  0.5362580000000 1.0
C      1  0.4154960000000  0.4992850000000  0.5462200000000 1.0
C      1  0.5035930000000  0.5540810000000  0.4896000000000 1.0
C      1  0.4985450000000  0.5015330000000  0.4054600000000 1.0
C      1  0.5864120000000  0.4397570000000  0.4826230000000 1.0
C      1  0.5419860000000  0.6029180000000  0.5141700000000 1.0
C      1  0.4847300000000  0.5189880000000  0.5216440000000 1.0
C      1  0.5711750000000  0.4766220000000  0.4671880000000 1.0
C      1  0.4657780000000  0.5340920000000  0.4318620000000 1.0
C      1  0.4444130000000  0.5606540000000  0.4345780000000 1.0
C      1  0.4182170000000  0.4806690000000  0.5752610000000 1.0
C      1  0.5187090000000  0.4789450000000  0.4593180000000 1.0
C      1  0.4290720000000  0.4601670000000  0.4450370000000 1.0
C      1  0.5437600000000  0.5308660000000  0.5032700000000 1.0
C      1  0.4577500000000  0.5400710000000  0.4770780000000 1.0
C      1  0.5205300000000  0.4725660000000  0.5390850000000 1.0
C      1  0.4138930000000  0.5117280000000  0.4551630000000 1.0
C      1  0.4588960000000  0.4450180000000  0.4448490000000 1.0
C      1  0.5661330000000  0.4167910000000  0.4977360000000 1.0
C      1  0.4229280000000  0.4531710000000  0.5790630000000 1.0
C      1  0.5251570000000  0.6007200000000  0.5432030000000 1.0
C      1  0.5603530000000  0.5513650000000  0.4406460000000 1.0
C      1  0.4915880000000  0.5474360000000  0.4188050000000 1.0
C      1  0.5489700000000  0.4239430000000  0.4526020000000 1.0
C      1  0.5690700000000  0.5155450000000  0.4865360000000 1.0
C      1  0.4773890000000  0.5144570000000  0.4535090000000 1.0
C      1  0.4174570000000  0.5704030000000  0.4875370000000 1.0
C      1  0.4884570000000  0.4850230000000  0.3801040000000 1.0
C      1  0.5484030000000  0.5656000000000  0.5689510000000 1.0
C      1  0.5209370000000  0.4905130000000  0.5823280000000 1.0
C      1  0.5849260000000  0.5411170000000  0.4704490000000 1.0
C      1  0.4547540000000  0.3988910000000  0.4613560000000 1.0
C      1  0.5298570000000  0.5480600000000  0.4025860000000 1.0
END
