TITL C-2778426-5645-781 -0.00232649330549273 125000 -722.652643128327 0 0 129 (C1) n - 1
REM
REM in /home/nfs/bkarasulu/CARBON/AIRSS/Generating-Clusters/REBO/Only-C1/SD-CG/HFTN-CG
REM
REM
REM
REM
REM
REM ./C.cell (11c1c37f851c82e70ff6c80c92926a4b)
REM
REM compiler GCC version 9.2.1 20190827 (Red Hat 9.2.1-1)
REM options -cpp -mtune=generic -march=x86-64 -g -O0 -fpre-include=/usr/include/finclude/math-vector-fortran.h
REM seed -1330616546 -1938171781 -1238418546 1742711522 1021617394 1929669511 -657745772 1636861831 -1963251125 -2055213522 1079543255 -706625285 121040902 -560081037 -512491575 637399807 -175320713 -1826640026 -1224390395 -28996737 753957256 863759618 -2112459509 740753015 573552224 1512047261 -1184794706 1294205723 -1559415669 972729024 -1328356591 -144457447 1115082721
REM
CELL 1.54180   50.00000   50.00000   50.00000   90.00000   90.00000   90.00000
LATT -1
SFAC C  
C      1  0.4834660000000  0.5465660000000  0.4701220000000 1.0
C      1  0.4905980000000  0.5639350000000  0.5085530000000 1.0
C      1  0.5181250000000  0.4886980000000  0.5933870000000 1.0
C      1  0.4518850000000  0.3927710000000  0.4963410000000 1.0
C      1  0.5149610000000  0.4616060000000  0.4693680000000 1.0
C      1  0.5739780000000  0.4610300000000  0.5070440000000 1.0
C      1  0.4221240000000  0.5052780000000  0.4518330000000 1.0
C      1  0.5733850000000  0.5391900000000  0.5530110000000 1.0
C      1  0.5332420000000  0.6127280000000  0.4851430000000 1.0
C      1  0.4784080000000  0.5930660000000  0.4953980000000 1.0
C      1  0.5512450000000  0.4282030000000  0.5073860000000 1.0
C      1  0.5697730000000  0.4453370000000  0.4655280000000 1.0
C      1  0.4587930000000  0.5289910000000  0.4176250000000 1.0
C      1  0.5369470000000  0.4850850000000  0.4347350000000 1.0
C      1  0.5207180000000  0.5862010000000  0.4949970000000 1.0
C      1  0.5427810000000  0.5664720000000  0.5036650000000 1.0
C      1  0.5249980000000  0.4352880000000  0.5793080000000 1.0
C      1  0.4760010000000  0.5484360000000  0.5881790000000 1.0
C      1  0.4380960000000  0.5722930000000  0.4703260000000 1.0
C      1  0.4903880000000  0.5247850000000  0.5417190000000 1.0
C      1  0.5028540000000  0.5601210000000  0.3970920000000 1.0
C      1  0.4869910000000  0.4744710000000  0.5938540000000 1.0
C      1  0.5570900000000  0.5182430000000  0.4421010000000 1.0
C      1  0.4952790000000  0.5861320000000  0.5523330000000 1.0
C      1  0.4373790000000  0.4830180000000  0.5552490000000 1.0
C      1  0.5447670000000  0.4222310000000  0.5328030000000 1.0
C      1  0.5691680000000  0.4712260000000  0.4155810000000 1.0
C      1  0.5429710000000  0.4945000000000  0.5284970000000 1.0
C      1  0.4663320000000  0.4310250000000  0.5290800000000 1.0
C      1  0.4648120000000  0.4667480000000  0.4721420000000 1.0
C      1  0.4895120000000  0.5181750000000  0.4876800000000 1.0
C      1  0.4887040000000  0.4599330000000  0.4528470000000 1.0
C      1  0.4949740000000  0.5653270000000  0.5701960000000 1.0
C      1  0.4793070000000  0.5066890000000  0.5855440000000 1.0
C      1  0.5888030000000  0.4859130000000  0.4914360000000 1.0
C      1  0.5380290000000  0.5425290000000  0.4674430000000 1.0
C      1  0.5569880000000  0.4230400000000  0.4783960000000 1.0
C      1  0.5895620000000  0.4854090000000  0.5258290000000 1.0
C      1  0.4867610000000  0.4984860000000  0.5288360000000 1.0
C      1  0.4630210000000  0.4207600000000  0.5000550000000 1.0
C      1  0.5038450000000  0.5346450000000  0.5941780000000 1.0
C      1  0.4647770000000  0.5074610000000  0.4418080000000 1.0
C      1  0.4532800000000  0.5273180000000  0.5781210000000 1.0
C      1  0.5127690000000  0.5454370000000  0.4244610000000 1.0
C      1  0.5196220000000  0.5451990000000  0.5668150000000 1.0
C      1  0.5459550000000  0.4593250000000  0.4941810000000 1.0
C      1  0.4142510000000  0.4490170000000  0.4894250000000 1.0
C      1  0.5746400000000  0.4596680000000  0.5395200000000 1.0
C      1  0.4750160000000  0.5176380000000  0.3936120000000 1.0
C      1  0.5115300000000  0.4072950000000  0.4850580000000 1.0
C      1  0.5206280000000  0.4803840000000  0.4972660000000 1.0
C      1  0.4230870000000  0.4721300000000  0.5321970000000 1.0
C      1  0.5090940000000  0.5429160000000  0.5117440000000 1.0
C      1  0.4624890000000  0.5575730000000  0.4451050000000 1.0
C      1  0.4512140000000  0.4737700000000  0.4105570000000 1.0
C      1  0.4519050000000  0.5630530000000  0.4991280000000 1.0
C      1  0.5307120000000  0.5134790000000  0.4618800000000 1.0
C      1  0.5033490000000  0.4720140000000  0.5203350000000 1.0
C      1  0.4632910000000  0.4568750000000  0.5762930000000 1.0
C      1  0.3966190000000  0.4857740000000  0.5242430000000 1.0
C      1  0.5319370000000  0.5183060000000  0.5835100000000 1.0
C      1  0.5903930000000  0.5353130000000  0.5243030000000 1.0
C      1  0.5465890000000  0.5323980000000  0.5050920000000 1.0
C      1  0.5218050000000  0.5114530000000  0.5427880000000 1.0
C      1  0.5316200000000  0.4148920000000  0.4661760000000 1.0
C      1  0.4231790000000  0.5485390000000  0.4897210000000 1.0
C      1  0.4840000000000  0.4843210000000  0.4306850000000 1.0
C      1  0.4445070000000  0.4439930000000  0.5507540000000 1.0
C      1  0.4211240000000  0.5159350000000  0.4843440000000 1.0
C      1  0.5038400000000  0.4952320000000  0.5647180000000 1.0
C      1  0.5061910000000  0.5088190000000  0.4013620000000 1.0
C      1  0.4280750000000  0.4420090000000  0.5204120000000 1.0
C      1  0.5257440000000  0.5429750000000  0.5375380000000 1.0
C      1  0.4615750000000  0.5328570000000  0.5002940000000 1.0
C      1  0.3924050000000  0.4739580000000  0.4978230000000 1.0
C      1  0.4686890000000  0.4490590000000  0.4089050000000 1.0
C      1  0.4128370000000  0.4790000000000  0.4720270000000 1.0
C      1  0.4700330000000  0.5836120000000  0.4661350000000 1.0
C      1  0.4634250000000  0.5795600000000  0.5229700000000 1.0
C      1  0.5464450000000  0.4695070000000  0.4614230000000 1.0
C      1  0.5713410000000  0.5208580000000  0.4731590000000 1.0
C      1  0.5474630000000  0.4705660000000  0.5487090000000 1.0
C      1  0.5480080000000  0.4822700000000  0.5781330000000 1.0
C      1  0.4517170000000  0.5228990000000  0.5272540000000 1.0
C      1  0.4273430000000  0.5095920000000  0.5706620000000 1.0
C      1  0.5548330000000  0.5520030000000  0.5318190000000 1.0
C      1  0.5421380000000  0.4568930000000  0.5947810000000 1.0
C      1  0.4918640000000  0.4456340000000  0.4247550000000 1.0
C      1  0.4802150000000  0.5531020000000  0.4187120000000 1.0
C      1  0.5544520000000  0.5709630000000  0.4456020000000 1.0
C      1  0.4559150000000  0.5259960000000  0.4682220000000 1.0
C      1  0.5050880000000  0.4392210000000  0.5236840000000 1.0
C      1  0.4513930000000  0.4879390000000  0.5838770000000 1.0
C      1  0.4476940000000  0.4422480000000  0.4857450000000 1.0
C      1  0.5216430000000  0.4417230000000  0.4197050000000 1.0
C      1  0.5862150000000  0.4791510000000  0.4359320000000 1.0
C      1  0.4809750000000  0.4857360000000  0.3989420000000 1.0
C      1  0.5217870000000  0.4359030000000  0.4494470000000 1.0
C      1  0.5282690000000  0.4470800000000  0.5474280000000 1.0
C      1  0.5294380000000  0.5160570000000  0.4221360000000 1.0
C      1  0.4635520000000  0.5395680000000  0.5512210000000 1.0
C      1  0.4439390000000  0.4691190000000  0.5058950000000 1.0
C      1  0.5733990000000  0.5451440000000  0.4490050000000 1.0
C      1  0.4566600000000  0.4937500000000  0.5323820000000 1.0
C      1  0.5625000000000  0.5591460000000  0.4799980000000 1.0
C      1  0.4429670000000  0.4904650000000  0.4821600000000 1.0
C      1  0.4948000000000  0.4680460000000  0.5532370000000 1.0
C      1  0.4589170000000  0.5696710000000  0.5485690000000 1.0
C      1  0.4819580000000  0.4958130000000  0.4687480000000 1.0
C      1  0.5846220000000  0.5085980000000  0.5433170000000 1.0
C      1  0.5863120000000  0.4708500000000  0.4631670000000 1.0
C      1  0.4913200000000  0.4241680000000  0.5488650000000 1.0
C      1  0.5884310000000  0.5332520000000  0.4975310000000 1.0
C      1  0.5191210000000  0.5132860000000  0.4982940000000 1.0
C      1  0.5223580000000  0.5621560000000  0.4478470000000 1.0
C      1  0.4363360000000  0.5350470000000  0.4425850000000 1.0
C      1  0.4943820000000  0.4426690000000  0.5740810000000 1.0
C      1  0.4948540000000  0.4220970000000  0.5005640000000 1.0
C      1  0.4680390000000  0.4641990000000  0.5373230000000 1.0
C      1  0.5403130000000  0.4624400000000  0.4130820000000 1.0
C      1  0.4340280000000  0.4868160000000  0.4267530000000 1.0
C      1  0.5027060000000  0.5734670000000  0.4706670000000 1.0
C      1  0.5616670000000  0.5038550000000  0.5015930000000 1.0
C      1  0.5086590000000  0.4952350000000  0.4490930000000 1.0
C      1  0.5007480000000  0.5934760000000  0.5216290000000 1.0
C      1  0.4109520000000  0.5092670000000  0.5406980000000 1.0
C      1  0.4220860000000  0.5273710000000  0.5163840000000 1.0
C      1  0.5390920000000  0.4111610000000  0.5602380000000 1.0
C      1  0.5617920000000  0.5113900000000  0.5688010000000 1.0
END
