TITL C-2778427-5640-958 -0.00036305624377454 125000 -618.348574372404 0 0 106 (C1) n - 1
REM
REM in /home/nfs/bkarasulu/CARBON/AIRSS/Generating-Clusters/REBO/Only-C1/SD-CG/HFTN-CG
REM
REM
REM
REM
REM
REM ./C.cell (11c1c37f851c82e70ff6c80c92926a4b)
REM
REM compiler GCC version 9.2.1 20190827 (Red Hat 9.2.1-1)
REM options -cpp -mtune=generic -march=x86-64 -g -O0 -fpre-include=/usr/include/finclude/math-vector-fortran.h
REM seed 108162402 17804045 935740231 -2127738508 1973658572 426934354 688236279 732913675 4918169 2013633985 -2020624793 -969233542 -1681195064 1951779187 -440456579 1772083192 -472826934 -1360470920 -405928593 2107193912 908708633 -902202064 -356129558 1097665175 -108189562 105139927 -1769593530 -383721292 -1376907198 1888183080 1280873481 -1938207125 1171427680
REM
CELL 1.54180   50.00000   50.00000   50.00000   90.00000   90.00000   90.00000
LATT -1
SFAC C  
C      1  0.4178910000000  0.5616050000000  0.4572950000000 1.0
C      1  0.4790330000000  0.4230960000000  0.5220240000000 1.0
C      1  0.4086430000000  0.5144200000000  0.4940310000000 1.0
C      1  0.5342410000000  0.4982510000000  0.4289560000000 1.0
C      1  0.5511170000000  0.5593980000000  0.4607080000000 1.0
C      1  0.4865070000000  0.4512020000000  0.5054460000000 1.0
C      1  0.5279040000000  0.5417690000000  0.5523780000000 1.0
C      1  0.4741090000000  0.5741240000000  0.5442590000000 1.0
C      1  0.5015340000000  0.4436100000000  0.4661350000000 1.0
C      1  0.5859690000000  0.5240400000000  0.4751690000000 1.0
C      1  0.5935290000000  0.4799660000000  0.5107620000000 1.0
C      1  0.5128890000000  0.4597930000000  0.4890250000000 1.0
C      1  0.5201560000000  0.4471480000000  0.5947520000000 1.0
C      1  0.5258250000000  0.5682190000000  0.4397430000000 1.0
C      1  0.4772400000000  0.4114140000000  0.4713770000000 1.0
C      1  0.4479560000000  0.4935370000000  0.4501540000000 1.0
C      1  0.5863730000000  0.4481680000000  0.4647000000000 1.0
C      1  0.4292060000000  0.4742770000000  0.5342050000000 1.0
C      1  0.5401470000000  0.5696230000000  0.5023660000000 1.0
C      1  0.4816510000000  0.5881390000000  0.4519300000000 1.0
C      1  0.4414840000000  0.4626710000000  0.5782350000000 1.0
C      1  0.5654890000000  0.5455300000000  0.4829770000000 1.0
C      1  0.5413080000000  0.5011230000000  0.4829740000000 1.0
C      1  0.4206140000000  0.5375030000000  0.5052740000000 1.0
C      1  0.4579670000000  0.4333860000000  0.4665040000000 1.0
C      1  0.5056320000000  0.5750140000000  0.5210780000000 1.0
C      1  0.5539280000000  0.5121250000000  0.5596260000000 1.0
C      1  0.4316350000000  0.5201060000000  0.5517260000000 1.0
C      1  0.4897040000000  0.5164260000000  0.4279410000000 1.0
C      1  0.4157320000000  0.4987540000000  0.4728860000000 1.0
C      1  0.5410980000000  0.4706080000000  0.5239700000000 1.0
C      1  0.5208700000000  0.4768970000000  0.4431980000000 1.0
C      1  0.4844400000000  0.4349720000000  0.4188100000000 1.0
C      1  0.4852870000000  0.4962630000000  0.5784460000000 1.0
C      1  0.5198800000000  0.4488610000000  0.4310540000000 1.0
C      1  0.5117060000000  0.5163840000000  0.4903960000000 1.0
C      1  0.4742750000000  0.4578780000000  0.4533480000000 1.0
C      1  0.4911260000000  0.5105900000000  0.4689850000000 1.0
C      1  0.4353470000000  0.4740290000000  0.4750240000000 1.0
C      1  0.4121680000000  0.5438900000000  0.4402530000000 1.0
C      1  0.5149010000000  0.5151200000000  0.4166970000000 1.0
C      1  0.4881700000000  0.4217390000000  0.4433580000000 1.0
C      1  0.5093040000000  0.5858000000000  0.4829000000000 1.0
C      1  0.4785730000000  0.5286130000000  0.5768980000000 1.0
C      1  0.5259340000000  0.4147640000000  0.4790020000000 1.0
C      1  0.4344220000000  0.5382080000000  0.5301000000000 1.0
C      1  0.4762810000000  0.5861630000000  0.5123150000000 1.0
C      1  0.4886870000000  0.5589880000000  0.4782900000000 1.0
C      1  0.4572120000000  0.5060440000000  0.5061780000000 1.0
C      1  0.4839830000000  0.4302210000000  0.5550400000000 1.0
C      1  0.5564620000000  0.4647530000000  0.4295840000000 1.0
C      1  0.4777820000000  0.5968210000000  0.4800050000000 1.0
C      1  0.5302590000000  0.5220980000000  0.5800320000000 1.0
C      1  0.5481460000000  0.4865200000000  0.5505420000000 1.0
C      1  0.5922970000000  0.4533660000000  0.4908620000000 1.0
C      1  0.5611630000000  0.5042320000000  0.4339160000000 1.0
C      1  0.5243910000000  0.4717430000000  0.5602420000000 1.0
C      1  0.4354680000000  0.5543640000000  0.4832570000000 1.0
C      1  0.4967730000000  0.5662550000000  0.4400930000000 1.0
C      1  0.4614660000000  0.5096930000000  0.4769270000000 1.0
C      1  0.4329360000000  0.4424240000000  0.4727660000000 1.0
C      1  0.5052730000000  0.5672190000000  0.5531310000000 1.0
C      1  0.5748480000000  0.5245940000000  0.5450980000000 1.0
C      1  0.5666370000000  0.5608900000000  0.5117190000000 1.0
C      1  0.4958870000000  0.4132600000000  0.4954950000000 1.0
C      1  0.4628300000000  0.5509680000000  0.5253660000000 1.0
C      1  0.5153980000000  0.5477190000000  0.5030980000000 1.0
C      1  0.4512700000000  0.5161280000000  0.5724660000000 1.0
C      1  0.5223530000000  0.4737700000000  0.6025120000000 1.0
C      1  0.5141850000000  0.4973140000000  0.5918480000000 1.0
C      1  0.4614600000000  0.5628010000000  0.4946790000000 1.0
C      1  0.5956360000000  0.5098100000000  0.4965460000000 1.0
C      1  0.5336760000000  0.5856040000000  0.4645340000000 1.0
C      1  0.5650630000000  0.4641240000000  0.5063980000000 1.0
C      1  0.4533950000000  0.4315340000000  0.5428800000000 1.0
C      1  0.5041180000000  0.5437690000000  0.5763650000000 1.0
C      1  0.5210020000000  0.4875860000000  0.5060130000000 1.0
C      1  0.5812520000000  0.5128300000000  0.4498400000000 1.0
C      1  0.5896520000000  0.5082180000000  0.5278680000000 1.0
C      1  0.4954850000000  0.4557240000000  0.5378450000000 1.0
C      1  0.4540630000000  0.4870740000000  0.5832630000000 1.0
C      1  0.5019720000000  0.4248570000000  0.5789880000000 1.0
C      1  0.4210430000000  0.5132330000000  0.4429420000000 1.0
C      1  0.5256250000000  0.4450140000000  0.5306510000000 1.0
C      1  0.5269960000000  0.5976300000000  0.5094530000000 1.0
C      1  0.5738660000000  0.5516900000000  0.5369630000000 1.0
C      1  0.5610070000000  0.4585550000000  0.4560410000000 1.0
C      1  0.5448380000000  0.4684070000000  0.4806010000000 1.0
C      1  0.4969370000000  0.4852160000000  0.5513430000000 1.0
C      1  0.4465110000000  0.4808930000000  0.5127540000000 1.0
C      1  0.4986800000000  0.5090810000000  0.5315900000000 1.0
C      1  0.5243030000000  0.5264680000000  0.5268800000000 1.0
C      1  0.4409270000000  0.5297030000000  0.4641490000000 1.0
C      1  0.5248420000000  0.4243570000000  0.5095230000000 1.0
C      1  0.4161120000000  0.4967040000000  0.5460960000000 1.0
C      1  0.4599590000000  0.4612840000000  0.4950430000000 1.0
C      1  0.5272410000000  0.4393970000000  0.5626150000000 1.0
C      1  0.4923180000000  0.4643430000000  0.4182820000000 1.0
C      1  0.4877290000000  0.5380580000000  0.4514100000000 1.0
C      1  0.4969200000000  0.4823400000000  0.4574240000000 1.0
C      1  0.4736950000000  0.5213300000000  0.5233590000000 1.0
C      1  0.5267320000000  0.4265110000000  0.4512210000000 1.0
C      1  0.4539420000000  0.4621750000000  0.4269990000000 1.0
C      1  0.4727110000000  0.4908340000000  0.4270000000000 1.0
C      1  0.5484010000000  0.5255540000000  0.5028930000000 1.0
C      1  0.4369870000000  0.4526980000000  0.5516940000000 1.0
END
