TITL C-2778437-8639-314 -0.00582613696347889 125000 -967.000037319203 0 0 167 (C1) n - 1
REM
REM in /home/nfs/bkarasulu/CARBON/AIRSS/Generating-Clusters/REBO/Only-C1/SD-CG/HFTN-CG
REM
REM
REM
REM
REM
REM ./C.cell (11c1c37f851c82e70ff6c80c92926a4b)
REM
REM compiler GCC version 9.2.1 20190827 (Red Hat 9.2.1-1)
REM options -cpp -mtune=generic -march=x86-64 -g -O0 -fpre-include=/usr/include/finclude/math-vector-fortran.h
REM seed -919640549 -1939136777 -1411140689 1351127139 -886731040 -18460831 -1611798330 -2029424091 -1881560260 1743450650 1139461883 -1844597221 -38057664 1217807199 -443918450 -2060141605 1610198768 -1097161746 762243118 748303883 -884406655 -272277627 108453404 647949992 -1063997276 873655095 -1653360353 -405615440 499183113 -137162145 644748649 -1571479410 437152582
REM
CELL 1.54180   50.00000   50.00000   50.00000   90.00000   90.00000   90.00000
LATT -1
SFAC C  
C      1  0.5572120000000  0.4933710000000  0.4707030000000 1.0
C      1  0.5024820000000  0.5214540000000  0.5239500000000 1.0
C      1  0.4761710000000  0.5372290000000  0.5339170000000 1.0
C      1  0.4871880000000  0.4280520000000  0.4511500000000 1.0
C      1  0.4967660000000  0.6224350000000  0.5036660000000 1.0
C      1  0.4492540000000  0.5849580000000  0.4895780000000 1.0
C      1  0.4015950000000  0.5498420000000  0.5343350000000 1.0
C      1  0.4564810000000  0.5878950000000  0.4569920000000 1.0
C      1  0.4346470000000  0.4755130000000  0.4599320000000 1.0
C      1  0.5086690000000  0.5468930000000  0.4536040000000 1.0
C      1  0.5401570000000  0.4310890000000  0.4355700000000 1.0
C      1  0.5155440000000  0.4711410000000  0.4595210000000 1.0
C      1  0.4288160000000  0.5582520000000  0.4912050000000 1.0
C      1  0.4116400000000  0.4982830000000  0.4709380000000 1.0
C      1  0.4516610000000  0.5580050000000  0.5577080000000 1.0
C      1  0.5173710000000  0.4960160000000  0.6026670000000 1.0
C      1  0.5093260000000  0.3952130000000  0.4555060000000 1.0
C      1  0.5077260000000  0.5602610000000  0.5420680000000 1.0
C      1  0.4183590000000  0.4384390000000  0.5332580000000 1.0
C      1  0.4560680000000  0.4543060000000  0.5170300000000 1.0
C      1  0.5846430000000  0.5078510000000  0.4656410000000 1.0
C      1  0.5170020000000  0.4499070000000  0.5782930000000 1.0
C      1  0.4127160000000  0.4874820000000  0.4287600000000 1.0
C      1  0.5069970000000  0.4326410000000  0.4922780000000 1.0
C      1  0.4435400000000  0.5153600000000  0.5904600000000 1.0
C      1  0.4877990000000  0.5668720000000  0.4031960000000 1.0
C      1  0.5822260000000  0.4533080000000  0.4570410000000 1.0
C      1  0.5281540000000  0.4996180000000  0.5705730000000 1.0
C      1  0.5103460000000  0.4995470000000  0.3890710000000 1.0
C      1  0.4886140000000  0.5254010000000  0.5969750000000 1.0
C      1  0.4466230000000  0.4275600000000  0.4450960000000 1.0
C      1  0.4571680000000  0.4374960000000  0.4947410000000 1.0
C      1  0.5261460000000  0.4861370000000  0.5426050000000 1.0
C      1  0.4867620000000  0.4174210000000  0.5467130000000 1.0
C      1  0.5670120000000  0.5058130000000  0.5775410000000 1.0
C      1  0.4212850000000  0.4507410000000  0.5058200000000 1.0
C      1  0.5241350000000  0.5139870000000  0.3691980000000 1.0
C      1  0.4373240000000  0.5311590000000  0.5289550000000 1.0
C      1  0.4834810000000  0.5655820000000  0.4957190000000 1.0
C      1  0.4650300000000  0.5141000000000  0.6094380000000 1.0
C      1  0.4372190000000  0.4856130000000  0.5814120000000 1.0
C      1  0.4572340000000  0.5510980000000  0.5091970000000 1.0
C      1  0.5707680000000  0.4742680000000  0.4344490000000 1.0
C      1  0.5396710000000  0.5004870000000  0.4472140000000 1.0
C      1  0.4767490000000  0.4446070000000  0.5641770000000 1.0
C      1  0.5842040000000  0.5050450000000  0.4353950000000 1.0
C      1  0.4174630000000  0.4397940000000  0.4554170000000 1.0
C      1  0.4342870000000  0.4917690000000  0.5421980000000 1.0
C      1  0.5836560000000  0.5545650000000  0.5129780000000 1.0
C      1  0.5203800000000  0.5315720000000  0.4993460000000 1.0
C      1  0.5284570000000  0.5275170000000  0.5990630000000 1.0
C      1  0.5294010000000  0.5626300000000  0.4389660000000 1.0
C      1  0.4522950000000  0.5006850000000  0.4031850000000 1.0
C      1  0.5119850000000  0.5901810000000  0.5346080000000 1.0
C      1  0.5663700000000  0.5295110000000  0.4204040000000 1.0
C      1  0.5459540000000  0.4272880000000  0.5633710000000 1.0
C      1  0.4850230000000  0.5878660000000  0.4722660000000 1.0
C      1  0.5472330000000  0.4830630000000  0.5921950000000 1.0
C      1  0.4272810000000  0.5099700000000  0.4185400000000 1.0
C      1  0.5378690000000  0.4259250000000  0.5163880000000 1.0
C      1  0.5943770000000  0.5173440000000  0.5645790000000 1.0
C      1  0.5122410000000  0.4182570000000  0.4316340000000 1.0
C      1  0.4848010000000  0.4866720000000  0.6058370000000 1.0
C      1  0.4636960000000  0.5527950000000  0.4207170000000 1.0
C      1  0.4726360000000  0.4909720000000  0.4360930000000 1.0
C      1  0.4828110000000  0.5578910000000  0.5601630000000 1.0
C      1  0.5318660000000  0.6000700000000  0.4700410000000 1.0
C      1  0.4006650000000  0.4696720000000  0.4557390000000 1.0
C      1  0.5539620000000  0.4738520000000  0.5288600000000 1.0
C      1  0.5410830000000  0.5116820000000  0.5272300000000 1.0
C      1  0.4884930000000  0.6025780000000  0.5227960000000 1.0
C      1  0.4609930000000  0.4378590000000  0.4228630000000 1.0
C      1  0.5356090000000  0.4563440000000  0.5070290000000 1.0
C      1  0.4644150000000  0.4661780000000  0.5879300000000 1.0
C      1  0.4636810000000  0.4169740000000  0.4695040000000 1.0
C      1  0.5076570000000  0.5492000000000  0.6062560000000 1.0
C      1  0.4610870000000  0.4107810000000  0.5252510000000 1.0
C      1  0.4476980000000  0.4376110000000  0.5792380000000 1.0
C      1  0.5649990000000  0.5729080000000  0.5347110000000 1.0
C      1  0.4765850000000  0.4633350000000  0.5380240000000 1.0
C      1  0.4343910000000  0.5198530000000  0.4993840000000 1.0
C      1  0.5680590000000  0.4381550000000  0.4931430000000 1.0
C      1  0.4783980000000  0.5108500000000  0.3937350000000 1.0
C      1  0.5605700000000  0.5394510000000  0.4654180000000 1.0
C      1  0.5422250000000  0.5789470000000  0.5803130000000 1.0
C      1  0.5017470000000  0.4593230000000  0.6000200000000 1.0
C      1  0.4442210000000  0.4298180000000  0.5462720000000 1.0
C      1  0.4581650000000  0.5119170000000  0.5459920000000 1.0
C      1  0.5517710000000  0.5849840000000  0.4827580000000 1.0
C      1  0.5607650000000  0.4401700000000  0.5352310000000 1.0
C      1  0.5001350000000  0.4124680000000  0.5170330000000 1.0
C      1  0.4424800000000  0.5758730000000  0.5366840000000 1.0
C      1  0.4402330000000  0.4623750000000  0.5564820000000 1.0
C      1  0.4132990000000  0.5268400000000  0.5526580000000 1.0
C      1  0.5535340000000  0.5556940000000  0.5617730000000 1.0
C      1  0.4757700000000  0.4022140000000  0.4955690000000 1.0
C      1  0.4836800000000  0.4940030000000  0.5460530000000 1.0
C      1  0.5708720000000  0.5266970000000  0.5225310000000 1.0
C      1  0.5094540000000  0.5863530000000  0.4483460000000 1.0
C      1  0.5509480000000  0.4623780000000  0.4799440000000 1.0
C      1  0.4892610000000  0.4293430000000  0.4119930000000 1.0
C      1  0.4916840000000  0.5207030000000  0.4855020000000 1.0
C      1  0.5132700000000  0.4174890000000  0.5680770000000 1.0
C      1  0.5739460000000  0.4850000000000  0.5537020000000 1.0
C      1  0.5041430000000  0.4861860000000  0.4364290000000 1.0
C      1  0.5080470000000  0.5586610000000  0.5104180000000 1.0
C      1  0.5127130000000  0.5221610000000  0.5530830000000 1.0
C      1  0.4690960000000  0.5247770000000  0.4299330000000 1.0
C      1  0.4851420000000  0.4552860000000  0.3967480000000 1.0
C      1  0.5151930000000  0.4738290000000  0.4936340000000 1.0
C      1  0.4150070000000  0.4773260000000  0.4967420000000 1.0
C      1  0.5536020000000  0.4114770000000  0.4827870000000 1.0
C      1  0.5763460000000  0.4529720000000  0.5611160000000 1.0
C      1  0.5564910000000  0.4953490000000  0.5024240000000 1.0
C      1  0.6006190000000  0.4978930000000  0.4922910000000 1.0
C      1  0.5036820000000  0.3888510000000  0.4853290000000 1.0
C      1  0.4969070000000  0.4481660000000  0.4694100000000 1.0
C      1  0.5766220000000  0.5618680000000  0.4826700000000 1.0
C      1  0.5393450000000  0.5952540000000  0.5330150000000 1.0
C      1  0.4994730000000  0.5187770000000  0.4267160000000 1.0
C      1  0.5006220000000  0.4705790000000  0.3809510000000 1.0
C      1  0.5083260000000  0.4626080000000  0.5476340000000 1.0
C      1  0.5292370000000  0.3988380000000  0.5036590000000 1.0
C      1  0.5938530000000  0.4662720000000  0.4812370000000 1.0
C      1  0.4943020000000  0.5375430000000  0.3999970000000 1.0
C      1  0.4284440000000  0.4594910000000  0.4298590000000 1.0
C      1  0.4967080000000  0.4914580000000  0.5157790000000 1.0
C      1  0.4902960000000  0.5691830000000  0.5864750000000 1.0
C      1  0.4910320000000  0.5141630000000  0.5723640000000 1.0
C      1  0.4262290000000  0.4287220000000  0.4830710000000 1.0
C      1  0.4227510000000  0.5365080000000  0.4397100000000 1.0
C      1  0.4100980000000  0.4973650000000  0.5645720000000 1.0
C      1  0.4379560000000  0.5361550000000  0.5705240000000 1.0
C      1  0.4194240000000  0.5660730000000  0.5215390000000 1.0
C      1  0.5652390000000  0.4278600000000  0.4551550000000 1.0
C      1  0.5945010000000  0.5150650000000  0.5373280000000 1.0
C      1  0.5281770000000  0.4939180000000  0.4150640000000 1.0
C      1  0.4247490000000  0.4955690000000  0.5147320000000 1.0
C      1  0.4801870000000  0.5804020000000  0.4335080000000 1.0
C      1  0.5243820000000  0.4192520000000  0.4700680000000 1.0
C      1  0.5440030000000  0.4608020000000  0.4482640000000 1.0
C      1  0.5593100000000  0.4973760000000  0.4130130000000 1.0
C      1  0.5916440000000  0.4492620000000  0.5071050000000 1.0
C      1  0.5916220000000  0.5311670000000  0.4887670000000 1.0
C      1  0.4875730000000  0.4875740000000  0.4837700000000 1.0
C      1  0.4608610000000  0.4704470000000  0.4129140000000 1.0
C      1  0.4553830000000  0.5480110000000  0.4593520000000 1.0
C      1  0.4474390000000  0.5177600000000  0.4517890000000 1.0
C      1  0.4370990000000  0.4045770000000  0.5044800000000 1.0
C      1  0.5217620000000  0.4355190000000  0.5414430000000 1.0
C      1  0.5455700000000  0.5650230000000  0.5076260000000 1.0
C      1  0.4384180000000  0.5667130000000  0.4375480000000 1.0
C      1  0.4627720000000  0.4838280000000  0.4650180000000 1.0
C      1  0.5534670000000  0.5467360000000  0.4389630000000 1.0
C      1  0.5051810000000  0.6110100000000  0.4793010000000 1.0
C      1  0.5508630000000  0.5343570000000  0.4958960000000 1.0
C      1  0.5505760000000  0.4540330000000  0.5831160000000 1.0
C      1  0.4608900000000  0.5903650000000  0.5174470000000 1.0
C      1  0.4826450000000  0.5481330000000  0.4697060000000 1.0
C      1  0.5370370000000  0.5448390000000  0.5339080000000 1.0
C      1  0.6039320000000  0.4928890000000  0.5226970000000 1.0
C      1  0.5930200000000  0.4646730000000  0.5333070000000 1.0
C      1  0.5196700000000  0.5783070000000  0.5950960000000 1.0
C      1  0.4169310000000  0.5318970000000  0.4730510000000 1.0
C      1  0.5190070000000  0.5197120000000  0.4519140000000 1.0
C      1  0.4584430000000  0.5141450000000  0.4815350000000 1.0
C      1  0.5500740000000  0.5310370000000  0.5817180000000 1.0
END
