TITL C-2778427-5640-754 -0.00228269588278389 125000 -674.53147584094 0 0 116 (C1) n - 1
REM
REM in /home/nfs/bkarasulu/CARBON/AIRSS/Generating-Clusters/REBO/Only-C1/SD-CG/HFTN-CG
REM
REM
REM
REM
REM
REM ./C.cell (11c1c37f851c82e70ff6c80c92926a4b)
REM
REM compiler GCC version 9.2.1 20190827 (Red Hat 9.2.1-1)
REM options -cpp -mtune=generic -march=x86-64 -g -O0 -fpre-include=/usr/include/finclude/math-vector-fortran.h
REM seed 63215255 158244879 939492924 -769291548 -1885427533 1232817749 2005651582 -190997592 -947488646 -401095450 1145243641 2062161577 -2142821792 -1226417047 -1423364323 592736604 1930822058 -1130793416 602852193 2029565594 -1225175150 1241815404 924201624 1148567033 1558843499 1302962294 1816472387 1787867062 1630095362 1171249638 1340460672 -881905785 1742625533
REM
CELL 1.54180   50.00000   50.00000   50.00000   90.00000   90.00000   90.00000
LATT -1
SFAC C  
C      1  0.5126480000000  0.5419720000000  0.5064180000000 1.0
C      1  0.4509290000000  0.5176510000000  0.4685970000000 1.0
C      1  0.4578810000000  0.4660660000000  0.4383080000000 1.0
C      1  0.4748220000000  0.4112200000000  0.4755590000000 1.0
C      1  0.5237240000000  0.5641740000000  0.4611910000000 1.0
C      1  0.4708500000000  0.5693490000000  0.5055350000000 1.0
C      1  0.5497190000000  0.4749660000000  0.5779980000000 1.0
C      1  0.5234500000000  0.4468530000000  0.5473340000000 1.0
C      1  0.4832700000000  0.5724480000000  0.5432850000000 1.0
C      1  0.4746150000000  0.4617450000000  0.4742660000000 1.0
C      1  0.4381720000000  0.4897930000000  0.4112850000000 1.0
C      1  0.5061540000000  0.4876950000000  0.4502030000000 1.0
C      1  0.5598810000000  0.4414690000000  0.4794780000000 1.0
C      1  0.4286800000000  0.5248370000000  0.4481820000000 1.0
C      1  0.4269610000000  0.4633970000000  0.4822750000000 1.0
C      1  0.4886770000000  0.4728620000000  0.4249000000000 1.0
C      1  0.5565170000000  0.5149020000000  0.5088870000000 1.0
C      1  0.4566870000000  0.5248280000000  0.5204900000000 1.0
C      1  0.4699200000000  0.5575210000000  0.4769140000000 1.0
C      1  0.5121890000000  0.4729840000000  0.5447140000000 1.0
C      1  0.4486270000000  0.4415890000000  0.5292600000000 1.0
C      1  0.4915560000000  0.5349250000000  0.4838550000000 1.0
C      1  0.5202680000000  0.5180250000000  0.4117110000000 1.0
C      1  0.5315760000000  0.4472520000000  0.4301560000000 1.0
C      1  0.5166100000000  0.5732790000000  0.5118080000000 1.0
C      1  0.5084170000000  0.5195860000000  0.5827590000000 1.0
C      1  0.5062850000000  0.5202390000000  0.4586960000000 1.0
C      1  0.5388210000000  0.5257020000000  0.4626360000000 1.0
C      1  0.4625420000000  0.4362000000000  0.4643350000000 1.0
C      1  0.4927530000000  0.5906250000000  0.5045300000000 1.0
C      1  0.5024510000000  0.4420330000000  0.4304590000000 1.0
C      1  0.5387110000000  0.4707900000000  0.4154450000000 1.0
C      1  0.5410450000000  0.4476390000000  0.4577910000000 1.0
C      1  0.5446870000000  0.5570830000000  0.5509110000000 1.0
C      1  0.5894100000000  0.5196100000000  0.5193610000000 1.0
C      1  0.5634720000000  0.4843630000000  0.4285580000000 1.0
C      1  0.5563110000000  0.5269620000000  0.5401880000000 1.0
C      1  0.4735240000000  0.5483630000000  0.5740180000000 1.0
C      1  0.5110580000000  0.4260490000000  0.5030540000000 1.0
C      1  0.5309950000000  0.5193540000000  0.4927480000000 1.0
C      1  0.5363090000000  0.4488610000000  0.5923240000000 1.0
C      1  0.4857200000000  0.4524490000000  0.5191280000000 1.0
C      1  0.4788260000000  0.5438060000000  0.5273840000000 1.0
C      1  0.5789930000000  0.5050380000000  0.5482840000000 1.0
C      1  0.5894140000000  0.5131390000000  0.4667990000000 1.0
C      1  0.5050880000000  0.4256650000000  0.5615660000000 1.0
C      1  0.4512860000000  0.5718930000000  0.5332500000000 1.0
C      1  0.5688440000000  0.4592870000000  0.5370860000000 1.0
C      1  0.4952530000000  0.5637110000000  0.4564770000000 1.0
C      1  0.4660880000000  0.4581240000000  0.5737890000000 1.0
C      1  0.5820650000000  0.4653830000000  0.4847220000000 1.0
C      1  0.5656910000000  0.5166500000000  0.4345080000000 1.0
C      1  0.5193050000000  0.4688790000000  0.4725990000000 1.0
C      1  0.4913190000000  0.6161020000000  0.4990440000000 1.0
C      1  0.5011530000000  0.4191780000000  0.4553050000000 1.0
C      1  0.4234570000000  0.4709320000000  0.5573160000000 1.0
C      1  0.5362630000000  0.4991530000000  0.4433850000000 1.0
C      1  0.4195940000000  0.4885690000000  0.4977090000000 1.0
C      1  0.4696150000000  0.4856820000000  0.5808480000000 1.0
C      1  0.4340480000000  0.5550040000000  0.5449520000000 1.0
C      1  0.5440210000000  0.4275840000000  0.5038620000000 1.0
C      1  0.4968830000000  0.4944260000000  0.5872820000000 1.0
C      1  0.5601240000000  0.4687870000000  0.5095290000000 1.0
C      1  0.4669330000000  0.4288170000000  0.5032750000000 1.0
C      1  0.4435180000000  0.5048060000000  0.5703100000000 1.0
C      1  0.5724940000000  0.4859760000000  0.4592250000000 1.0
C      1  0.5039780000000  0.4718240000000  0.5041620000000 1.0
C      1  0.5692320000000  0.4795580000000  0.5573290000000 1.0
C      1  0.4230150000000  0.5065980000000  0.4275650000000 1.0
C      1  0.4190280000000  0.5002910000000  0.5464040000000 1.0
C      1  0.4978090000000  0.3960460000000  0.5465250000000 1.0
C      1  0.5062180000000  0.5260690000000  0.5321820000000 1.0
C      1  0.4454410000000  0.5302440000000  0.4947580000000 1.0
C      1  0.4493420000000  0.4909030000000  0.5007360000000 1.0
C      1  0.5838750000000  0.5373950000000  0.4906080000000 1.0
C      1  0.5476770000000  0.4847830000000  0.4819130000000 1.0
C      1  0.4553340000000  0.5502290000000  0.4301260000000 1.0
C      1  0.5379000000000  0.5566640000000  0.4373670000000 1.0
C      1  0.5004180000000  0.5036580000000  0.4943110000000 1.0
C      1  0.4983060000000  0.5692660000000  0.5723870000000 1.0
C      1  0.5265040000000  0.5005150000000  0.5371420000000 1.0
C      1  0.5175250000000  0.4749290000000  0.5892440000000 1.0
C      1  0.4569610000000  0.4966390000000  0.5287120000000 1.0
C      1  0.4695110000000  0.5227900000000  0.5662690000000 1.0
C      1  0.4374850000000  0.4436070000000  0.4991340000000 1.0
C      1  0.4996440000000  0.4421480000000  0.4779850000000 1.0
C      1  0.5422460000000  0.5327190000000  0.4225290000000 1.0
C      1  0.4847840000000  0.4381090000000  0.5802240000000 1.0
C      1  0.4375980000000  0.4662770000000  0.4560210000000 1.0
C      1  0.4287320000000  0.5310250000000  0.5544140000000 1.0
C      1  0.4414810000000  0.5549740000000  0.4583790000000 1.0
C      1  0.4723720000000  0.4866310000000  0.4850170000000 1.0
C      1  0.3779780000000  0.5059070000000  0.5179880000000 1.0
C      1  0.4655850000000  0.4938610000000  0.4106960000000 1.0
C      1  0.5162520000000  0.4884140000000  0.4104880000000 1.0
C      1  0.5471600000000  0.4393790000000  0.5332060000000 1.0
C      1  0.4706470000000  0.5208410000000  0.4221750000000 1.0
C      1  0.5174570000000  0.5728230000000  0.5440450000000 1.0
C      1  0.4879850000000  0.5084340000000  0.5504290000000 1.0
C      1  0.5315280000000  0.4840700000000  0.5115770000000 1.0
C      1  0.4046460000000  0.4988190000000  0.5196420000000 1.0
C      1  0.5638660000000  0.5641310000000  0.5262490000000 1.0
C      1  0.5327930000000  0.5206460000000  0.5614250000000 1.0
C      1  0.5228380000000  0.5496820000000  0.5760600000000 1.0
C      1  0.5682050000000  0.5374100000000  0.4605420000000 1.0
C      1  0.4974340000000  0.5342830000000  0.4118760000000 1.0
C      1  0.4323830000000  0.5571590000000  0.4905390000000 1.0
C      1  0.4857410000000  0.5568930000000  0.4296910000000 1.0
C      1  0.5280440000000  0.4145480000000  0.4759420000000 1.0
C      1  0.4966910000000  0.4234170000000  0.5292150000000 1.0
C      1  0.4801760000000  0.4778110000000  0.5398640000000 1.0
C      1  0.4454310000000  0.4534460000000  0.5540920000000 1.0
C      1  0.5373010000000  0.5666180000000  0.4871000000000 1.0
C      1  0.4747250000000  0.5161750000000  0.4530610000000 1.0
C      1  0.5623790000000  0.5591960000000  0.4991440000000 1.0
C      1  0.5831700000000  0.4978480000000  0.4954520000000 1.0
END
