TITL C-2778429-3646-814 -1.56669308197988e-07 125000 -76.2121977870955 0 0 14 (Cs) n - 1
REM
REM in /home/nfs/bkarasulu/CARBON/AIRSS/Generating-Clusters/REBO/Only-C1/SD-CG/HFTN-CG
REM
REM
REM
REM
REM
REM ./C.cell (11c1c37f851c82e70ff6c80c92926a4b)
REM
REM compiler GCC version 9.2.1 20190827 (Red Hat 9.2.1-1)
REM options -cpp -mtune=generic -march=x86-64 -g -O0 -fpre-include=/usr/include/finclude/math-vector-fortran.h
REM seed 554992668 -774511339 940426493 1115501603 782101825 -2083660007 -787757858 1172835993 -1384282997 19950316 1455109847 -357624935 -16560391 1329024522 1740296791 1219465237 -1024986794 1996481882 -1588688952 -1443881856 -1987121175 474630941 -735911396 1981473972 954117064 1318476926 -1234105678 -111701729 -90934288 -1974218930 1467162423 -401834165 -1346649886
REM
CELL 1.54180   50.00000   50.00000   50.00000   90.00000   90.00000   90.00000
LATT -1
SFAC C  
C      1  0.4039880000000  0.4737080000000  0.4681090000000 1.0
C      1  0.5119960000000  0.5342640000000  0.4973700000000 1.0
C      1  0.5551360000000  0.5571050000000  0.5093450000000 1.0
C      1  0.5014340000000  0.5072470000000  0.4990130000000 1.0
C      1  0.5211910000000  0.4644470000000  0.5158690000000 1.0
C      1  0.5226050000000  0.4909780000000  0.5107560000000 1.0
C      1  0.4281080000000  0.4820100000000  0.4757580000000 1.0
C      1  0.5696340000000  0.4999750000000  0.5272060000000 1.0
C      1  0.4522280000000  0.4903110000000  0.4834080000000 1.0
C      1  0.3802520000000  0.4655380000000  0.4605810000000 1.0
C      1  0.5455830000000  0.5081740000000  0.5160610000000 1.0
C      1  0.5391470000000  0.5353970000000  0.5077340000000 1.0
C      1  0.5923500000000  0.4922310000000  0.5377330000000 1.0
C      1  0.4763480000000  0.4986130000000  0.4910570000000 1.0
END
