TITL C-2778430-5657-577 -0.000137798193818877 125000 -296.651927869578 0 0 53 (C1) n - 1
REM
REM in /home/nfs/bkarasulu/CARBON/AIRSS/Generating-Clusters/REBO/Only-C1/SD-CG/HFTN-CG
REM
REM
REM
REM
REM
REM ./C.cell (11c1c37f851c82e70ff6c80c92926a4b)
REM
REM compiler GCC version 9.2.1 20190827 (Red Hat 9.2.1-1)
REM options -cpp -mtune=generic -march=x86-64 -g -O0 -fpre-include=/usr/include/finclude/math-vector-fortran.h
REM seed 428985464 53368799 -1655689707 -1430704961 287883103 666464335 1843720061 492372834 -2107324444 1845339682 -2078564989 -1992171623 -1312771408 -194725183 1860068231 -240319237 1326752799 455723301 109807991 -1244503330 1747053079 1485754213 99315924 1812147376 1657259797 2073921891 -1256381747 -2008191768 744766955 2062138593 -65574658 1129825345 1700282462
REM
CELL 1.54180   50.00000   50.00000   50.00000   90.00000   90.00000   90.00000
LATT -1
SFAC C  
C      1  0.5683150000000  0.5335840000000  0.5523430000000 1.0
C      1  0.5160480000000  0.5585590000000  0.4757920000000 1.0
C      1  0.5463310000000  0.5273250000000  0.5329300000000 1.0
C      1  0.5389030000000  0.5303200000000  0.4293240000000 1.0
C      1  0.5224640000000  0.4492680000000  0.5351580000000 1.0
C      1  0.4630790000000  0.4361190000000  0.5348090000000 1.0
C      1  0.5457760000000  0.5100710000000  0.4823900000000 1.0
C      1  0.4942090000000  0.4711890000000  0.4309910000000 1.0
C      1  0.4450250000000  0.4970740000000  0.5685890000000 1.0
C      1  0.5425920000000  0.4761020000000  0.4350400000000 1.0
C      1  0.5212140000000  0.4793160000000  0.4873680000000 1.0
C      1  0.4428680000000  0.4832520000000  0.5170790000000 1.0
C      1  0.4718870000000  0.4576600000000  0.4849340000000 1.0
C      1  0.4703470000000  0.5230910000000  0.4619050000000 1.0
C      1  0.4850890000000  0.4607090000000  0.4536210000000 1.0
C      1  0.4998790000000  0.5462330000000  0.5299370000000 1.0
C      1  0.4340290000000  0.4824790000000  0.5486340000000 1.0
C      1  0.5524140000000  0.4522560000000  0.4264530000000 1.0
C      1  0.4261590000000  0.5249810000000  0.5470350000000 1.0
C      1  0.4395730000000  0.4643210000000  0.4163680000000 1.0
C      1  0.4751770000000  0.5054220000000  0.5237560000000 1.0
C      1  0.4407460000000  0.4933860000000  0.4860240000000 1.0
C      1  0.5870230000000  0.5389100000000  0.5688620000000 1.0
C      1  0.4928790000000  0.5255390000000  0.4399380000000 1.0
C      1  0.4543080000000  0.5342400000000  0.5055150000000 1.0
C      1  0.5144600000000  0.5156970000000  0.4247370000000 1.0
C      1  0.5240990000000  0.5020500000000  0.5347800000000 1.0
C      1  0.5009790000000  0.5320480000000  0.4713580000000 1.0
C      1  0.4831240000000  0.5483200000000  0.6070590000000 1.0
C      1  0.4646040000000  0.4609200000000  0.5137400000000 1.0
C      1  0.4608530000000  0.5163360000000  0.5786430000000 1.0
C      1  0.5128850000000  0.5113310000000  0.4901180000000 1.0
C      1  0.5442580000000  0.4485000000000  0.5194770000000 1.0
C      1  0.4898270000000  0.4565860000000  0.5361420000000 1.0
C      1  0.4790240000000  0.5375490000000  0.5823720000000 1.0
C      1  0.4446670000000  0.4685910000000  0.4417190000000 1.0
C      1  0.5164250000000  0.4306190000000  0.4830130000000 1.0
C      1  0.4742510000000  0.5516950000000  0.5118200000000 1.0
C      1  0.4438680000000  0.5154990000000  0.5285050000000 1.0
C      1  0.5536280000000  0.5226750000000  0.4521990000000 1.0
C      1  0.4500080000000  0.4730690000000  0.4683030000000 1.0
C      1  0.4508190000000  0.5199260000000  0.4812620000000 1.0
C      1  0.5172460000000  0.4867160000000  0.4249790000000 1.0
C      1  0.5491620000000  0.5008720000000  0.5128670000000 1.0
C      1  0.5044120000000  0.4555630000000  0.4797870000000 1.0
C      1  0.5502040000000  0.4714430000000  0.4992340000000 1.0
C      1  0.5011110000000  0.5160860000000  0.5192470000000 1.0
C      1  0.5714670000000  0.4665170000000  0.4818260000000 1.0
C      1  0.5294720000000  0.5508670000000  0.5218950000000 1.0
C      1  0.5319480000000  0.5631310000000  0.4976610000000 1.0
C      1  0.5543660000000  0.4912810000000  0.4557010000000 1.0
C      1  0.4928310000000  0.5472960000000  0.5598240000000 1.0
C      1  0.5136710000000  0.4774070000000  0.5469410000000 1.0
END
