TITL C-2778437-8639-371 -0.000551071852163169 125000 -771.957204529691 0 0 132 (C1) n - 1
REM
REM in /home/nfs/bkarasulu/CARBON/AIRSS/Generating-Clusters/REBO/Only-C1/SD-CG/HFTN-CG
REM
REM
REM
REM
REM
REM ./C.cell (11c1c37f851c82e70ff6c80c92926a4b)
REM
REM compiler GCC version 9.2.1 20190827 (Red Hat 9.2.1-1)
REM options -cpp -mtune=generic -march=x86-64 -g -O0 -fpre-include=/usr/include/finclude/math-vector-fortran.h
REM seed -758411747 -2068743042 1646363948 -2134594884 -1179209081 -179866820 31004866 2042430108 2100136060 210663398 31756056 1018215461 -273086859 -2099426573 278471617 1913038476 1766233726 -790311418 -542673642 1688710731 -525413725 -1071994703 -596306615 -1778880601 446259707 -235359843 724065014 -159905868 739292538 2023396438 329145799 -1745286001 1463640541
REM
CELL 1.54180   50.00000   50.00000   50.00000   90.00000   90.00000   90.00000
LATT -1
SFAC C  
C      1  0.4374950000000  0.5031960000000  0.4702030000000 1.0
C      1  0.4525660000000  0.5217480000000  0.4494110000000 1.0
C      1  0.4443090000000  0.4530200000000  0.4556570000000 1.0
C      1  0.5843590000000  0.5549750000000  0.4937060000000 1.0
C      1  0.4710830000000  0.5605980000000  0.5547690000000 1.0
C      1  0.4986220000000  0.5084770000000  0.4258930000000 1.0
C      1  0.4495410000000  0.5648460000000  0.4854370000000 1.0
C      1  0.4601330000000  0.4796390000000  0.5440010000000 1.0
C      1  0.4855030000000  0.4321050000000  0.5609170000000 1.0
C      1  0.4201480000000  0.4544020000000  0.4700360000000 1.0
C      1  0.4467890000000  0.5946270000000  0.4928800000000 1.0
C      1  0.4570810000000  0.4908530000000  0.4244970000000 1.0
C      1  0.6094000000000  0.5039450000000  0.4629590000000 1.0
C      1  0.5637660000000  0.4832860000000  0.4942570000000 1.0
C      1  0.4877200000000  0.4144120000000  0.5400680000000 1.0
C      1  0.4731030000000  0.5001850000000  0.5885660000000 1.0
C      1  0.4206490000000  0.4251580000000  0.5456060000000 1.0
C      1  0.4908820000000  0.4589710000000  0.4437390000000 1.0
C      1  0.5544250000000  0.4347840000000  0.4579080000000 1.0
C      1  0.5014590000000  0.5115820000000  0.5188750000000 1.0
C      1  0.5762570000000  0.4327980000000  0.5229650000000 1.0
C      1  0.5249000000000  0.5098390000000  0.5595360000000 1.0
C      1  0.5113320000000  0.5439370000000  0.4720500000000 1.0
C      1  0.4720510000000  0.5776090000000  0.4492580000000 1.0
C      1  0.5169490000000  0.4596390000000  0.4218650000000 1.0
C      1  0.5264070000000  0.5469540000000  0.5213950000000 1.0
C      1  0.5209360000000  0.5864870000000  0.5227040000000 1.0
C      1  0.4612480000000  0.4689190000000  0.4393320000000 1.0
C      1  0.5925670000000  0.4571970000000  0.5195830000000 1.0
C      1  0.5641840000000  0.5029130000000  0.5604210000000 1.0
C      1  0.5700960000000  0.5259230000000  0.4891040000000 1.0
C      1  0.3973380000000  0.5305560000000  0.5209590000000 1.0
C      1  0.5519460000000  0.5220270000000  0.5414580000000 1.0
C      1  0.5524990000000  0.5044650000000  0.4123650000000 1.0
C      1  0.5230150000000  0.5874230000000  0.4903070000000 1.0
C      1  0.4929130000000  0.5292080000000  0.4922020000000 1.0
C      1  0.5038720000000  0.5536990000000  0.4456580000000 1.0
C      1  0.4108600000000  0.4737720000000  0.5388630000000 1.0
C      1  0.4462180000000  0.4548180000000  0.5046840000000 1.0
C      1  0.5355150000000  0.4261100000000  0.5461290000000 1.0
C      1  0.4024120000000  0.4761810000000  0.4712980000000 1.0
C      1  0.5833960000000  0.4484730000000  0.4698910000000 1.0
C      1  0.5974230000000  0.4620730000000  0.4915440000000 1.0
C      1  0.4629070000000  0.4316920000000  0.4669310000000 1.0
C      1  0.5196420000000  0.5807450000000  0.4417300000000 1.0
C      1  0.5444150000000  0.5231550000000  0.5082600000000 1.0
C      1  0.4506610000000  0.5495700000000  0.5987700000000 1.0
C      1  0.4832320000000  0.6000950000000  0.4640700000000 1.0
C      1  0.5299400000000  0.5058640000000  0.4372390000000 1.0
C      1  0.4627440000000  0.4431950000000  0.5279780000000 1.0
C      1  0.5957480000000  0.4919330000000  0.4407240000000 1.0
C      1  0.6026790000000  0.5266620000000  0.4874980000000 1.0
C      1  0.5937580000000  0.4937110000000  0.4896190000000 1.0
C      1  0.5029820000000  0.5364130000000  0.5905580000000 1.0
C      1  0.5109990000000  0.4538270000000  0.5054640000000 1.0
C      1  0.5357480000000  0.5105640000000  0.4777970000000 1.0
C      1  0.5143880000000  0.4511980000000  0.5362910000000 1.0
C      1  0.5134900000000  0.4121180000000  0.5282570000000 1.0
C      1  0.5120610000000  0.5976760000000  0.4651930000000 1.0
C      1  0.4105060000000  0.4436040000000  0.5274080000000 1.0
C      1  0.5136410000000  0.4864530000000  0.4065180000000 1.0
C      1  0.5270420000000  0.5160400000000  0.3988480000000 1.0
C      1  0.5744660000000  0.5688700000000  0.5204690000000 1.0
C      1  0.4491930000000  0.4166580000000  0.4925050000000 1.0
C      1  0.4485720000000  0.4212830000000  0.5440930000000 1.0
C      1  0.5425940000000  0.4581590000000  0.4381040000000 1.0
C      1  0.4783730000000  0.4781940000000  0.5086400000000 1.0
C      1  0.5191060000000  0.4866490000000  0.5819700000000 1.0
C      1  0.5603460000000  0.5228650000000  0.4574850000000 1.0
C      1  0.5558130000000  0.4518180000000  0.5051850000000 1.0
C      1  0.4789940000000  0.5514600000000  0.5860630000000 1.0
C      1  0.4959930000000  0.5741150000000  0.5429340000000 1.0
C      1  0.4992930000000  0.5082950000000  0.5932380000000 1.0
C      1  0.5041710000000  0.4710350000000  0.4702710000000 1.0
C      1  0.4546500000000  0.4790450000000  0.4841090000000 1.0
C      1  0.4374370000000  0.4804850000000  0.5209770000000 1.0
C      1  0.4018970000000  0.4987950000000  0.4876480000000 1.0
C      1  0.5034780000000  0.4293080000000  0.4205330000000 1.0
C      1  0.5236390000000  0.4967750000000  0.5299700000000 1.0
C      1  0.4772950000000  0.5743600000000  0.4225810000000 1.0
C      1  0.3858030000000  0.5199710000000  0.4983140000000 1.0
C      1  0.4183740000000  0.5296110000000  0.4685680000000 1.0
C      1  0.4834360000000  0.4122140000000  0.4947180000000 1.0
C      1  0.4318460000000  0.4834470000000  0.5639720000000 1.0
C      1  0.4677810000000  0.5212240000000  0.4186510000000 1.0
C      1  0.5713040000000  0.5066000000000  0.4340950000000 1.0
C      1  0.4436040000000  0.5461930000000  0.5692760000000 1.0
C      1  0.5042540000000  0.4566630000000  0.5758220000000 1.0
C      1  0.5329830000000  0.5606140000000  0.4832970000000 1.0
C      1  0.5484090000000  0.4864700000000  0.5236570000000 1.0
C      1  0.4340190000000  0.5178460000000  0.5615530000000 1.0
C      1  0.5274380000000  0.5485730000000  0.5828270000000 1.0
C      1  0.5403020000000  0.4332870000000  0.4877050000000 1.0
C      1  0.4314450000000  0.5303900000000  0.5236630000000 1.0
C      1  0.4888180000000  0.5456860000000  0.4161010000000 1.0
C      1  0.4579710000000  0.5425820000000  0.5289270000000 1.0
C      1  0.5099220000000  0.5361080000000  0.5491070000000 1.0
C      1  0.5488380000000  0.5703470000000  0.5321910000000 1.0
C      1  0.4897400000000  0.4434710000000  0.4842010000000 1.0
C      1  0.4680840000000  0.5488220000000  0.4630430000000 1.0
C      1  0.4657040000000  0.6116090000000  0.4828790000000 1.0
C      1  0.5342450000000  0.4549660000000  0.5631540000000 1.0
C      1  0.5374800000000  0.5601580000000  0.4255180000000 1.0
C      1  0.5521270000000  0.5437780000000  0.5942080000000 1.0
C      1  0.5507510000000  0.4815240000000  0.5706330000000 1.0
C      1  0.5458140000000  0.4856800000000  0.4566360000000 1.0
C      1  0.5317670000000  0.4721580000000  0.4903510000000 1.0
C      1  0.5773260000000  0.4788010000000  0.5315740000000 1.0
C      1  0.4562360000000  0.4758580000000  0.5836030000000 1.0
C      1  0.5636200000000  0.4171260000000  0.5406450000000 1.0
C      1  0.5595460000000  0.5601870000000  0.4717880000000 1.0
C      1  0.5583410000000  0.5513720000000  0.4432470000000 1.0
C      1  0.4809150000000  0.5242030000000  0.5418780000000 1.0
C      1  0.5254760000000  0.5656480000000  0.5564630000000 1.0
C      1  0.4111880000000  0.5077640000000  0.5403880000000 1.0
C      1  0.5161010000000  0.4118430000000  0.4961270000000 1.0
C      1  0.4984800000000  0.5637940000000  0.5111770000000 1.0
C      1  0.4715960000000  0.4533510000000  0.5796880000000 1.0
C      1  0.4215920000000  0.4361530000000  0.4963790000000 1.0
C      1  0.5327990000000  0.4094750000000  0.4662520000000 1.0
C      1  0.5089330000000  0.5011990000000  0.4636550000000 1.0
C      1  0.4223010000000  0.5520650000000  0.4784440000000 1.0
C      1  0.4640560000000  0.5063810000000  0.5590480000000 1.0
C      1  0.5200090000000  0.5420600000000  0.4093210000000 1.0
C      1  0.4857220000000  0.4251390000000  0.4444500000000 1.0
C      1  0.4303280000000  0.5039460000000  0.5036360000000 1.0
C      1  0.4847290000000  0.5200530000000  0.4544540000000 1.0
C      1  0.4714640000000  0.5510960000000  0.5028180000000 1.0
C      1  0.4637110000000  0.4041830000000  0.5205280000000 1.0
C      1  0.4863510000000  0.4629210000000  0.5355010000000 1.0
C      1  0.4782760000000  0.5017480000000  0.4891580000000 1.0
C      1  0.5733850000000  0.4691280000000  0.4478330000000 1.0
END
