TITL C-2778430-5657-636 -0.000703920983945358 125000 -347.092775228967 0 0 61 (C1) n - 1
REM
REM in /home/nfs/bkarasulu/CARBON/AIRSS/Generating-Clusters/REBO/Only-C1/SD-CG/HFTN-CG
REM
REM
REM
REM
REM
REM ./C.cell (11c1c37f851c82e70ff6c80c92926a4b)
REM
REM compiler GCC version 9.2.1 20190827 (Red Hat 9.2.1-1)
REM options -cpp -mtune=generic -march=x86-64 -g -O0 -fpre-include=/usr/include/finclude/math-vector-fortran.h
REM seed 801413761 -930831701 -629425601 -1857015799 -46383637 975195339 403856794 -891887773 887562195 -1071544482 -2076079387 1125673902 700632512 6460166 -757406124 -1958624359 1593158379 -1767541179 882531989 -460414221 7457800 542137490 -482405787 916673578 -1544822946 247324905 1590907875 -994272937 1587569457 -1232005997 -1868236407 293027408 1336320721
REM
CELL 1.54180   50.00000   50.00000   50.00000   90.00000   90.00000   90.00000
LATT -1
SFAC C  
C      1  0.4972510000000  0.4594810000000  0.5132060000000 1.0
C      1  0.5516140000000  0.4477620000000  0.5100500000000 1.0
C      1  0.4499870000000  0.4457470000000  0.5340470000000 1.0
C      1  0.4752880000000  0.5035800000000  0.5000610000000 1.0
C      1  0.4905710000000  0.5715980000000  0.5376930000000 1.0
C      1  0.5241430000000  0.4428120000000  0.5023140000000 1.0
C      1  0.4310280000000  0.4655780000000  0.5341760000000 1.0
C      1  0.5070280000000  0.4525880000000  0.5589370000000 1.0
C      1  0.5053820000000  0.4783790000000  0.5756900000000 1.0
C      1  0.4166290000000  0.4959750000000  0.4850540000000 1.0
C      1  0.4796150000000  0.4727580000000  0.4923440000000 1.0
C      1  0.5239430000000  0.4785160000000  0.5195010000000 1.0
C      1  0.5468800000000  0.4902640000000  0.5493710000000 1.0
C      1  0.4509790000000  0.5580000000000  0.4656020000000 1.0
C      1  0.4511220000000  0.4789360000000  0.4526110000000 1.0
C      1  0.4799980000000  0.4519620000000  0.5397140000000 1.0
C      1  0.5988120000000  0.4415990000000  0.5032870000000 1.0
C      1  0.5346860000000  0.5644480000000  0.4556310000000 1.0
C      1  0.4739470000000  0.5267790000000  0.5449980000000 1.0
C      1  0.5508510000000  0.5327320000000  0.5189520000000 1.0
C      1  0.5678550000000  0.4210260000000  0.4735430000000 1.0
C      1  0.5145030000000  0.5077170000000  0.4460600000000 1.0
C      1  0.4703430000000  0.4963100000000  0.4348990000000 1.0
C      1  0.4531400000000  0.5444400000000  0.5272690000000 1.0
C      1  0.4465100000000  0.5306300000000  0.4576060000000 1.0
C      1  0.4328200000000  0.5057010000000  0.4632760000000 1.0
C      1  0.5288100000000  0.5667970000000  0.4845180000000 1.0
C      1  0.5127700000000  0.4538440000000  0.4533480000000 1.0
C      1  0.5556300000000  0.5476410000000  0.4471390000000 1.0
C      1  0.5392910000000  0.4707030000000  0.4468310000000 1.0
C      1  0.5139750000000  0.4200490000000  0.4488240000000 1.0
C      1  0.5732300000000  0.4365520000000  0.4953060000000 1.0
C      1  0.4501780000000  0.4641370000000  0.4818360000000 1.0
C      1  0.4726260000000  0.4898900000000  0.5296850000000 1.0
C      1  0.5413620000000  0.4994140000000  0.4467770000000 1.0
C      1  0.4629160000000  0.5703810000000  0.5280470000000 1.0
C      1  0.4267770000000  0.4717300000000  0.4949100000000 1.0
C      1  0.5098810000000  0.5714480000000  0.5164520000000 1.0
C      1  0.5010050000000  0.5214490000000  0.5248670000000 1.0
C      1  0.5235840000000  0.4991960000000  0.5669880000000 1.0
C      1  0.5396400000000  0.5576160000000  0.5132950000000 1.0
C      1  0.4779680000000  0.5679020000000  0.4656050000000 1.0
C      1  0.5199450000000  0.4320480000000  0.4773130000000 1.0
C      1  0.4971120000000  0.5305280000000  0.4584450000000 1.0
C      1  0.4486030000000  0.5141220000000  0.5169820000000 1.0
C      1  0.5116620000000  0.5233750000000  0.5576700000000 1.0
C      1  0.4768860000000  0.4780880000000  0.5613940000000 1.0
C      1  0.4832060000000  0.4677770000000  0.4596970000000 1.0
C      1  0.5058310000000  0.5598910000000  0.4500220000000 1.0
C      1  0.4703240000000  0.5229410000000  0.4439590000000 1.0
C      1  0.5584050000000  0.4654100000000  0.5349640000000 1.0
C      1  0.4940550000000  0.5271600000000  0.4921910000000 1.0
C      1  0.5319610000000  0.5099310000000  0.5260680000000 1.0
C      1  0.5599740000000  0.5205610000000  0.4462170000000 1.0
C      1  0.4971860000000  0.5586210000000  0.4889220000000 1.0
C      1  0.4572750000000  0.5034860000000  0.5569180000000 1.0
C      1  0.4333830000000  0.4925470000000  0.5363960000000 1.0
C      1  0.4947980000000  0.5495670000000  0.5561580000000 1.0
C      1  0.4978870000000  0.4868420000000  0.4365580000000 1.0
C      1  0.5288970000000  0.4553340000000  0.5418610000000 1.0
C      1  0.5780380000000  0.5276990000000  0.5179420000000 1.0
END
