TITL C-2778426-5645-599 0.00298171540333748 125000 -253.393192519635 0 0 45 (C1) n - 1
REM
REM in /home/nfs/bkarasulu/CARBON/AIRSS/Generating-Clusters/REBO/Only-C1/SD-CG/HFTN-CG
REM
REM
REM
REM
REM
REM ./C.cell (11c1c37f851c82e70ff6c80c92926a4b)
REM
REM compiler GCC version 9.2.1 20190827 (Red Hat 9.2.1-1)
REM options -cpp -mtune=generic -march=x86-64 -g -O0 -fpre-include=/usr/include/finclude/math-vector-fortran.h
REM seed 1171141726 2026483086 527182113 -602086630 1511799430 184238978 450787617 -959046589 -1964695983 -958999314 -765339712 -1219934756 1075296790 1840763287 -382671237 -531087225 -1113974307 -412842813 1044241590 1428247647 1082195815 846593706 -1828295529 -553033476 902377586 -2115473726 -219726505 135906517 -1108332352 1961966930 -1026606247 -1254976444 1322985646
REM
CELL 1.54180   50.00000   50.00000   50.00000   90.00000   90.00000   90.00000
LATT -1
SFAC C  
C      1  0.4656200000000  0.4791850000000  0.4410250000000 1.0
C      1  0.4370570000000  0.4747850000000  0.4554490000000 1.0
C      1  0.5544610000000  0.5196350000000  0.4835010000000 1.0
C      1  0.4957110000000  0.5052470000000  0.5254670000000 1.0
C      1  0.5059730000000  0.4351540000000  0.5005980000000 1.0
C      1  0.4918200000000  0.4831650000000  0.4291630000000 1.0
C      1  0.4821080000000  0.5328490000000  0.4359440000000 1.0
C      1  0.4433100000000  0.4562800000000  0.5389820000000 1.0
C      1  0.5386860000000  0.4770900000000  0.5279530000000 1.0
C      1  0.4910610000000  0.4549380000000  0.5204810000000 1.0
C      1  0.5276020000000  0.5489990000000  0.5190440000000 1.0
C      1  0.5186390000000  0.4794510000000  0.4502030000000 1.0
C      1  0.5167600000000  0.4606570000000  0.4239190000000 1.0
C      1  0.5129120000000  0.5151060000000  0.5514900000000 1.0
C      1  0.4590750000000  0.4950880000000  0.4678290000000 1.0
C      1  0.4376670000000  0.4774810000000  0.5633210000000 1.0
C      1  0.5199630000000  0.5074330000000  0.4678080000000 1.0
C      1  0.5148990000000  0.4736000000000  0.5070160000000 1.0
C      1  0.5570950000000  0.4904280000000  0.4849480000000 1.0
C      1  0.4790410000000  0.5522590000000  0.5169950000000 1.0
C      1  0.4832800000000  0.5388900000000  0.4639390000000 1.0
C      1  0.5208910000000  0.5443400000000  0.5467910000000 1.0
C      1  0.4876880000000  0.4972020000000  0.5603120000000 1.0
C      1  0.4960990000000  0.4691130000000  0.5673480000000 1.0
C      1  0.5381920000000  0.4989320000000  0.5497070000000 1.0
C      1  0.5594760000000  0.5109520000000  0.5299120000000 1.0
C      1  0.4994060000000  0.5131660000000  0.4242680000000 1.0
C      1  0.5648340000000  0.4842820000000  0.5125880000000 1.0
C      1  0.5410740000000  0.5327340000000  0.4586100000000 1.0
C      1  0.4477810000000  0.5508270000000  0.5208490000000 1.0
C      1  0.5037640000000  0.5569660000000  0.5042800000000 1.0
C      1  0.4193350000000  0.4506610000000  0.5602300000000 1.0
C      1  0.5263300000000  0.5155680000000  0.4350580000000 1.0
C      1  0.5024760000000  0.5570980000000  0.4756350000000 1.0
C      1  0.4646640000000  0.4983650000000  0.5278350000000 1.0
C      1  0.5497590000000  0.5315000000000  0.5099360000000 1.0
C      1  0.4638430000000  0.5231450000000  0.5092280000000 1.0
C      1  0.4555930000000  0.4993630000000  0.5589430000000 1.0
C      1  0.5328090000000  0.4710370000000  0.4774050000000 1.0
C      1  0.4629200000000  0.4676380000000  0.5216420000000 1.0
C      1  0.4982530000000  0.4503980000000  0.5505720000000 1.0
C      1  0.5274980000000  0.5597890000000  0.4623040000000 1.0
C      1  0.5250520000000  0.4413260000000  0.4857070000000 1.0
C      1  0.4755270000000  0.5150310000000  0.4822040000000 1.0
C      1  0.5039920000000  0.5028480000000  0.4935640000000 1.0
END
