TITL C-2778424-3986-1079 -0.00180559909561859 125000 -716.331033026587 0 0 124 (C1) n - 1
REM
REM in /home/nfs/bkarasulu/CARBON/AIRSS/Generating-Clusters/REBO/Only-C1/SD-CG/HFTN-CG
REM
REM
REM
REM
REM
REM ./C.cell (11c1c37f851c82e70ff6c80c92926a4b)
REM
REM compiler GCC version 9.2.1 20190827 (Red Hat 9.2.1-1)
REM options -cpp -mtune=generic -march=x86-64 -g -O0 -fpre-include=/usr/include/finclude/math-vector-fortran.h
REM seed 426996116 -1007597346 1297179845 1977492509 -1146425993 492912380 1123798953 1398983055 -1233222377 -165374554 -610481184 700005087 1655233834 74401472 -1373350955 -64618552 -1385399545 990776846 351348258 -612597995 -561873578 717793398 -436983744 1767655032 1793067811 646230596 1432943922 1391781489 536616523 -1418627328 536819587 -1167666176 1732637442
REM
CELL 1.54180   50.00000   50.00000   50.00000   90.00000   90.00000   90.00000
LATT -1
SFAC C  
C      1  0.4083080000000  0.4919980000000  0.4415280000000 1.0
C      1  0.4632430000000  0.4606970000000  0.5800210000000 1.0
C      1  0.5125670000000  0.5331320000000  0.5004140000000 1.0
C      1  0.5920580000000  0.5211250000000  0.5034200000000 1.0
C      1  0.5783400000000  0.5024520000000  0.5522300000000 1.0
C      1  0.4584570000000  0.5472260000000  0.4343830000000 1.0
C      1  0.5284510000000  0.5777460000000  0.5181460000000 1.0
C      1  0.5226160000000  0.4961400000000  0.4898580000000 1.0
C      1  0.4434350000000  0.5591200000000  0.4626960000000 1.0
C      1  0.5214460000000  0.5281320000000  0.5525010000000 1.0
C      1  0.5384840000000  0.4751410000000  0.4225470000000 1.0
C      1  0.5538720000000  0.5015010000000  0.4905770000000 1.0
C      1  0.4354000000000  0.5433480000000  0.4896210000000 1.0
C      1  0.5403480000000  0.4939380000000  0.5606430000000 1.0
C      1  0.4770250000000  0.4576700000000  0.5118350000000 1.0
C      1  0.4589160000000  0.5074150000000  0.5696420000000 1.0
C      1  0.4292790000000  0.5484950000000  0.5459610000000 1.0
C      1  0.4899790000000  0.5412350000000  0.4795490000000 1.0
C      1  0.5299180000000  0.4881820000000  0.4516910000000 1.0
C      1  0.5182650000000  0.6063640000000  0.4922150000000 1.0
C      1  0.4941650000000  0.4801140000000  0.5400850000000 1.0
C      1  0.5151550000000  0.4115660000000  0.4918390000000 1.0
C      1  0.4985880000000  0.4922430000000  0.5901360000000 1.0
C      1  0.5521400000000  0.4374170000000  0.4649220000000 1.0
C      1  0.4837640000000  0.4371300000000  0.4271540000000 1.0
C      1  0.5822940000000  0.4447870000000  0.4986470000000 1.0
C      1  0.4592200000000  0.5568170000000  0.5600970000000 1.0
C      1  0.4057990000000  0.5207670000000  0.5027070000000 1.0
C      1  0.4179060000000  0.5484230000000  0.5184150000000 1.0
C      1  0.4807280000000  0.4247800000000  0.5452090000000 1.0
C      1  0.4602170000000  0.5686560000000  0.5290850000000 1.0
C      1  0.4914250000000  0.4094090000000  0.5166550000000 1.0
C      1  0.5936780000000  0.4680450000000  0.5158470000000 1.0
C      1  0.4852640000000  0.4942990000000  0.4765130000000 1.0
C      1  0.5401370000000  0.5854980000000  0.4912520000000 1.0
C      1  0.4941160000000  0.4856110000000  0.5064830000000 1.0
C      1  0.4424100000000  0.4430130000000  0.4672890000000 1.0
C      1  0.3994420000000  0.4919230000000  0.4928300000000 1.0
C      1  0.4383690000000  0.4810210000000  0.4500370000000 1.0
C      1  0.5376070000000  0.4857560000000  0.5930360000000 1.0
C      1  0.5094390000000  0.4403330000000  0.5563220000000 1.0
C      1  0.4790980000000  0.4658150000000  0.4107700000000 1.0
C      1  0.4182240000000  0.4665120000000  0.5035220000000 1.0
C      1  0.4886660000000  0.5620030000000  0.4342760000000 1.0
C      1  0.4993140000000  0.4159010000000  0.4659840000000 1.0
C      1  0.5546210000000  0.5251120000000  0.5574540000000 1.0
C      1  0.5291890000000  0.4535310000000  0.4542490000000 1.0
C      1  0.4024760000000  0.4759950000000  0.4669010000000 1.0
C      1  0.5074960000000  0.4982800000000  0.5603620000000 1.0
C      1  0.4183360000000  0.5242240000000  0.5581560000000 1.0
C      1  0.5741610000000  0.4531690000000  0.4726700000000 1.0
C      1  0.5069630000000  0.4329020000000  0.4444330000000 1.0
C      1  0.5615640000000  0.5507340000000  0.5401730000000 1.0
C      1  0.4812690000000  0.5913310000000  0.5273870000000 1.0
C      1  0.4208890000000  0.5021550000000  0.5409140000000 1.0
C      1  0.5500380000000  0.4285500000000  0.5366440000000 1.0
C      1  0.5403580000000  0.5330040000000  0.4885180000000 1.0
C      1  0.5053280000000  0.4462070000000  0.5230080000000 1.0
C      1  0.5197570000000  0.5681110000000  0.4475680000000 1.0
C      1  0.5718680000000  0.4839050000000  0.4676510000000 1.0
C      1  0.4563180000000  0.4289850000000  0.4424210000000 1.0
C      1  0.5164990000000  0.5475700000000  0.5868950000000 1.0
C      1  0.4601900000000  0.5842390000000  0.4701980000000 1.0
C      1  0.4594630000000  0.5442410000000  0.5122570000000 1.0
C      1  0.4651930000000  0.4126460000000  0.4967970000000 1.0
C      1  0.5188130000000  0.5667930000000  0.5650490000000 1.0
C      1  0.5162120000000  0.4644880000000  0.5795980000000 1.0
C      1  0.4163700000000  0.4507770000000  0.4669360000000 1.0
C      1  0.5353780000000  0.4887080000000  0.5268510000000 1.0
C      1  0.4550240000000  0.4244570000000  0.5227010000000 1.0
C      1  0.5735700000000  0.4526040000000  0.5368530000000 1.0
C      1  0.4592290000000  0.4918810000000  0.4179840000000 1.0
C      1  0.5100860000000  0.5104690000000  0.4639530000000 1.0
C      1  0.5233480000000  0.4182930000000  0.5243900000000 1.0
C      1  0.5381970000000  0.5699750000000  0.5436710000000 1.0
C      1  0.4884390000000  0.5742100000000  0.5559040000000 1.0
C      1  0.5352470000000  0.5458850000000  0.4350330000000 1.0
C      1  0.4350960000000  0.5092250000000  0.4882490000000 1.0
C      1  0.5416100000000  0.4506050000000  0.5611570000000 1.0
C      1  0.4628210000000  0.5317590000000  0.4633770000000 1.0
C      1  0.4664770000000  0.4595260000000  0.4812260000000 1.0
C      1  0.5847710000000  0.5584920000000  0.5160770000000 1.0
C      1  0.4606880000000  0.5015510000000  0.5397990000000 1.0
C      1  0.5689560000000  0.5443640000000  0.4631950000000 1.0
C      1  0.4514830000000  0.4603640000000  0.4299470000000 1.0
C      1  0.4967230000000  0.5467060000000  0.5386400000000 1.0
C      1  0.4709670000000  0.4151100000000  0.4695830000000 1.0
C      1  0.4391240000000  0.4797550000000  0.4824500000000 1.0
C      1  0.5176360000000  0.4652360000000  0.4817110000000 1.0
C      1  0.5923350000000  0.4912240000000  0.4909800000000 1.0
C      1  0.4966840000000  0.6053100000000  0.5092440000000 1.0
C      1  0.5144360000000  0.5139690000000  0.5244590000000 1.0
C      1  0.5637000000000  0.4253820000000  0.5080240000000 1.0
C      1  0.5287570000000  0.5086090000000  0.4034130000000 1.0
C      1  0.5418800000000  0.5620660000000  0.4708830000000 1.0
C      1  0.4834540000000  0.5173480000000  0.4000310000000 1.0
C      1  0.5660760000000  0.4897190000000  0.4362870000000 1.0
C      1  0.4970130000000  0.5263380000000  0.5876640000000 1.0
C      1  0.4732790000000  0.4555160000000  0.5516310000000 1.0
C      1  0.4991010000000  0.5340840000000  0.4472750000000 1.0
C      1  0.5619340000000  0.5347740000000  0.5108340000000 1.0
C      1  0.4709650000000  0.5323730000000  0.5760130000000 1.0
C      1  0.4241050000000  0.4717930000000  0.5351560000000 1.0
C      1  0.5885320000000  0.5473980000000  0.4840820000000 1.0
C      1  0.5354730000000  0.5142660000000  0.4300440000000 1.0
C      1  0.4419390000000  0.5167510000000  0.5187370000000 1.0
C      1  0.4810550000000  0.5209890000000  0.5245250000000 1.0
C      1  0.5658120000000  0.4963520000000  0.5204880000000 1.0
C      1  0.4559640000000  0.4724590000000  0.5322890000000 1.0
C      1  0.5993040000000  0.4994010000000  0.5277720000000 1.0
C      1  0.4609920000000  0.5014880000000  0.4571210000000 1.0
C      1  0.5033740000000  0.5620290000000  0.5109830000000 1.0
C      1  0.5643250000000  0.5214860000000  0.4469940000000 1.0
C      1  0.4329280000000  0.4417250000000  0.5216630000000 1.0
C      1  0.5270090000000  0.4636390000000  0.5120980000000 1.0
C      1  0.4680430000000  0.4865080000000  0.5875520000000 1.0
C      1  0.5455410000000  0.4193330000000  0.4866050000000 1.0
C      1  0.5668800000000  0.4725050000000  0.5601800000000 1.0
C      1  0.5051450000000  0.4702470000000  0.4281100000000 1.0
C      1  0.4919230000000  0.5848640000000  0.4577380000000 1.0
C      1  0.4919250000000  0.4666250000000  0.4594610000000 1.0
C      1  0.4855560000000  0.5731480000000  0.4882600000000 1.0
C      1  0.4841470000000  0.5098830000000  0.4335190000000 1.0
C      1  0.4546020000000  0.5253790000000  0.4122970000000 1.0
END
