TITL C-2778423-5760-380 0.00799732013763688 125000 -753.7454529223 0 0 131 (C1) n - 1
REM
REM in /home/nfs/bkarasulu/CARBON/AIRSS/Generating-Clusters/REBO/Only-C1/SD-CG/HFTN-CG
REM
REM
REM
REM
REM
REM ./C.cell (11c1c37f851c82e70ff6c80c92926a4b)
REM
REM compiler GCC version 9.2.1 20190827 (Red Hat 9.2.1-1)
REM options -cpp -mtune=generic -march=x86-64 -g -O0 -fpre-include=/usr/include/finclude/math-vector-fortran.h
REM seed 2142698999 1437316561 -1873583753 -1304400815 28319316 -1305130977 -150091997 1301378419 -1382046529 -1546343940 835581577 -1457392504 2119034976 458884131 -156597051 1436010627 767689612 -956540972 -351533867 67079141 1607782229 -971702333 -474151361 -226029877 -1441225173 1850496233 1913787903 -748171380 -736303248 -1754686597 255655251 -1296479777 -1268093614
REM
CELL 1.54180   50.00000   50.00000   50.00000   90.00000   90.00000   90.00000
LATT -1
SFAC C  
C      1  0.5850260000000  0.4596510000000  0.4506730000000 1.0
C      1  0.4176120000000  0.4876140000000  0.5020230000000 1.0
C      1  0.4703680000000  0.5901710000000  0.4994170000000 1.0
C      1  0.3995590000000  0.4792800000000  0.5744990000000 1.0
C      1  0.5328250000000  0.5185200000000  0.5376080000000 1.0
C      1  0.4546500000000  0.4344180000000  0.5480980000000 1.0
C      1  0.4121950000000  0.4564000000000  0.4987600000000 1.0
C      1  0.4478820000000  0.5639710000000  0.5572020000000 1.0
C      1  0.5918180000000  0.4694770000000  0.4797080000000 1.0
C      1  0.4680260000000  0.5531020000000  0.5127590000000 1.0
C      1  0.4480530000000  0.4441680000000  0.4351040000000 1.0
C      1  0.4971640000000  0.4776520000000  0.4901510000000 1.0
C      1  0.4229590000000  0.5144850000000  0.5424030000000 1.0
C      1  0.5115330000000  0.5964690000000  0.5123620000000 1.0
C      1  0.4198640000000  0.5304590000000  0.5125860000000 1.0
C      1  0.5743350000000  0.4913600000000  0.4513440000000 1.0
C      1  0.5700580000000  0.4278600000000  0.4958420000000 1.0
C      1  0.4325020000000  0.5613620000000  0.4789620000000 1.0
C      1  0.4354720000000  0.5534910000000  0.5062150000000 1.0
C      1  0.4979500000000  0.4149730000000  0.4726750000000 1.0
C      1  0.4489410000000  0.4877410000000  0.5613660000000 1.0
C      1  0.4676090000000  0.5156840000000  0.4211690000000 1.0
C      1  0.5566520000000  0.4556340000000  0.4221170000000 1.0
C      1  0.5251160000000  0.5769940000000  0.5679450000000 1.0
C      1  0.5597080000000  0.5150360000000  0.4396780000000 1.0
C      1  0.5226070000000  0.4246270000000  0.4937380000000 1.0
C      1  0.4397610000000  0.4621340000000  0.4794890000000 1.0
C      1  0.5306890000000  0.5707120000000  0.5148070000000 1.0
C      1  0.4256260000000  0.4513100000000  0.4513240000000 1.0
C      1  0.5850900000000  0.4517370000000  0.5005440000000 1.0
C      1  0.5230830000000  0.5471960000000  0.5808950000000 1.0
C      1  0.4908220000000  0.5097010000000  0.4048110000000 1.0
C      1  0.5466920000000  0.4230830000000  0.5143490000000 1.0
C      1  0.5152340000000  0.4811400000000  0.4298850000000 1.0
C      1  0.5372320000000  0.4681720000000  0.5747530000000 1.0
C      1  0.5622800000000  0.5711570000000  0.5020580000000 1.0
C      1  0.4859340000000  0.5941810000000  0.5301470000000 1.0
C      1  0.4547840000000  0.5803990000000  0.5282050000000 1.0
C      1  0.5628970000000  0.4853760000000  0.4130540000000 1.0
C      1  0.4182310000000  0.4824850000000  0.5540550000000 1.0
C      1  0.5228440000000  0.4572540000000  0.5005490000000 1.0
C      1  0.4627490000000  0.4395970000000  0.4777500000000 1.0
C      1  0.4965830000000  0.5404580000000  0.5372660000000 1.0
C      1  0.5559170000000  0.4332980000000  0.4443830000000 1.0
C      1  0.5540900000000  0.4978150000000  0.5750700000000 1.0
C      1  0.5501650000000  0.4705550000000  0.4961080000000 1.0
C      1  0.4897220000000  0.4684460000000  0.4406580000000 1.0
C      1  0.5493550000000  0.5301450000000  0.4908620000000 1.0
C      1  0.4963620000000  0.5863340000000  0.5611990000000 1.0
C      1  0.4864180000000  0.4504870000000  0.4866600000000 1.0
C      1  0.5018690000000  0.5904040000000  0.4601010000000 1.0
C      1  0.4826120000000  0.5190170000000  0.5680040000000 1.0
C      1  0.4617760000000  0.4680800000000  0.4275330000000 1.0
C      1  0.5756420000000  0.5016660000000  0.5577910000000 1.0
C      1  0.5550510000000  0.5775540000000  0.4518880000000 1.0
C      1  0.4493750000000  0.5175900000000  0.4793870000000 1.0
C      1  0.5641290000000  0.5617380000000  0.5347080000000 1.0
C      1  0.4402760000000  0.4930530000000  0.5228470000000 1.0
C      1  0.5150220000000  0.5606890000000  0.4708750000000 1.0
C      1  0.5430590000000  0.5432930000000  0.5538130000000 1.0
C      1  0.5080200000000  0.5332020000000  0.4890870000000 1.0
C      1  0.5058540000000  0.4271490000000  0.5406330000000 1.0
C      1  0.5360270000000  0.5581900000000  0.4468130000000 1.0
C      1  0.4849790000000  0.4884660000000  0.4632630000000 1.0
C      1  0.4583680000000  0.4167630000000  0.5102790000000 1.0
C      1  0.5426430000000  0.5092350000000  0.4124290000000 1.0
C      1  0.4310040000000  0.5366350000000  0.4371870000000 1.0
C      1  0.5821030000000  0.4954180000000  0.5312360000000 1.0
C      1  0.4315430000000  0.4345900000000  0.5154670000000 1.0
C      1  0.5101670000000  0.4840890000000  0.5273450000000 1.0
C      1  0.5290930000000  0.4500010000000  0.4508020000000 1.0
C      1  0.4487590000000  0.4946270000000  0.4274690000000 1.0
C      1  0.4709040000000  0.5378640000000  0.4376100000000 1.0
C      1  0.4309840000000  0.5412210000000  0.5576960000000 1.0
C      1  0.4724790000000  0.4471720000000  0.5814920000000 1.0
C      1  0.4778900000000  0.4945310000000  0.5105490000000 1.0
C      1  0.5486690000000  0.5826980000000  0.5543740000000 1.0
C      1  0.5724000000000  0.4686670000000  0.5223920000000 1.0
C      1  0.5672050000000  0.4213250000000  0.4677260000000 1.0
C      1  0.4300650000000  0.4313760000000  0.5563930000000 1.0
C      1  0.4814310000000  0.4224680000000  0.5631940000000 1.0
C      1  0.5605300000000  0.4542470000000  0.5460900000000 1.0
C      1  0.4792400000000  0.4075470000000  0.5326410000000 1.0
C      1  0.4546440000000  0.4911040000000  0.4692110000000 1.0
C      1  0.4627610000000  0.5112000000000  0.5412340000000 1.0
C      1  0.4624100000000  0.5229060000000  0.5087230000000 1.0
C      1  0.4768420000000  0.5737130000000  0.4736280000000 1.0
C      1  0.5383680000000  0.5392180000000  0.5143850000000 1.0
C      1  0.5396340000000  0.4794730000000  0.5426070000000 1.0
C      1  0.5285870000000  0.5041640000000  0.4493430000000 1.0
C      1  0.4885160000000  0.5663030000000  0.4414580000000 1.0
C      1  0.4990630000000  0.4530200000000  0.5245060000000 1.0
C      1  0.5172100000000  0.4910350000000  0.5879770000000 1.0
C      1  0.4985080000000  0.5149810000000  0.4550900000000 1.0
C      1  0.4211170000000  0.4966480000000  0.4396700000000 1.0
C      1  0.4111690000000  0.5128190000000  0.4901260000000 1.0
C      1  0.5106540000000  0.5409270000000  0.4364540000000 1.0
C      1  0.5019390000000  0.5549100000000  0.5103820000000 1.0
C      1  0.5845980000000  0.5136400000000  0.5104060000000 1.0
C      1  0.5456570000000  0.4972550000000  0.5148830000000 1.0
C      1  0.5666220000000  0.5491200000000  0.4774720000000 1.0
C      1  0.5718650000000  0.5412800000000  0.4518200000000 1.0
C      1  0.5164540000000  0.5198690000000  0.4130000000000 1.0
C      1  0.5519160000000  0.5887800000000  0.4773250000000 1.0
C      1  0.5818410000000  0.5398820000000  0.5171100000000 1.0
C      1  0.4801270000000  0.5595290000000  0.5503070000000 1.0
C      1  0.4899610000000  0.4925600000000  0.5826200000000 1.0
C      1  0.5161250000000  0.5081020000000  0.5029380000000 1.0
C      1  0.5027880000000  0.5108930000000  0.5436180000000 1.0
C      1  0.5469160000000  0.4364090000000  0.5667890000000 1.0
C      1  0.5228430000000  0.5944360000000  0.4835850000000 1.0
C      1  0.4659770000000  0.4070620000000  0.4793390000000 1.0
C      1  0.5290650000000  0.4644320000000  0.4135100000000 1.0
C      1  0.5546060000000  0.4671640000000  0.4654300000000 1.0
C      1  0.4399170000000  0.5392350000000  0.4627690000000 1.0
C      1  0.4810070000000  0.5401330000000  0.4701250000000 1.0
C      1  0.5463980000000  0.5048240000000  0.4759440000000 1.0
C      1  0.5356030000000  0.4235500000000  0.5411830000000 1.0
C      1  0.4103850000000  0.5124370000000  0.4614560000000 1.0
C      1  0.4686700000000  0.4472720000000  0.5222490000000 1.0
C      1  0.4684860000000  0.4747870000000  0.5777540000000 1.0
C      1  0.4558390000000  0.4699340000000  0.5087100000000 1.0
C      1  0.5791650000000  0.4998410000000  0.4839950000000 1.0
C      1  0.4672980000000  0.4237250000000  0.4490290000000 1.0
C      1  0.5339620000000  0.5174600000000  0.5864660000000 1.0
C      1  0.5228890000000  0.3954060000000  0.4760790000000 1.0
C      1  0.4982060000000  0.4386860000000  0.4502870000000 1.0
C      1  0.4087620000000  0.4706640000000  0.4396480000000 1.0
C      1  0.4182670000000  0.4607520000000  0.5320590000000 1.0
C      1  0.4918290000000  0.5432880000000  0.5845560000000 1.0
C      1  0.4723200000000  0.5708350000000  0.5803420000000 1.0
END
