TITL C-2778424-3986-1424 0.00042805244802015 125000 -691.709962172817 0 0 120 (C1) n - 1
REM
REM in /home/nfs/bkarasulu/CARBON/AIRSS/Generating-Clusters/REBO/Only-C1/SD-CG/HFTN-CG
REM
REM
REM
REM
REM
REM ./C.cell (11c1c37f851c82e70ff6c80c92926a4b)
REM
REM compiler GCC version 9.2.1 20190827 (Red Hat 9.2.1-1)
REM options -cpp -mtune=generic -march=x86-64 -g -O0 -fpre-include=/usr/include/finclude/math-vector-fortran.h
REM seed 1515603978 -679651885 -1280994319 -1627311646 -1786713593 113520176 796750301 271899397 -1762957274 -1642613735 532774554 -333812867 1087464819 -148797459 69413878 -2118844929 -1498244778 -870129591 -957559021 1708934437 890754008 -1880239670 -1610163993 236130386 409887502 95861962 -196278612 -1236251064 -1485308721 -1069971213 880663707 -1930300486 -734054782
REM
CELL 1.54180   50.00000   50.00000   50.00000   90.00000   90.00000   90.00000
LATT -1
SFAC C  
C      1  0.4519410000000  0.4842540000000  0.4092580000000 1.0
C      1  0.4195120000000  0.4650220000000  0.4411860000000 1.0
C      1  0.4555590000000  0.4468480000000  0.5647410000000 1.0
C      1  0.5451830000000  0.5575280000000  0.5159830000000 1.0
C      1  0.5451500000000  0.4933540000000  0.6229930000000 1.0
C      1  0.4550790000000  0.4190450000000  0.4886970000000 1.0
C      1  0.4644660000000  0.5857370000000  0.4647070000000 1.0
C      1  0.4339400000000  0.5409440000000  0.4742690000000 1.0
C      1  0.4255080000000  0.5171530000000  0.5415980000000 1.0
C      1  0.4630520000000  0.5653760000000  0.4848450000000 1.0
C      1  0.5212140000000  0.4673740000000  0.5606460000000 1.0
C      1  0.4810470000000  0.5771170000000  0.5324020000000 1.0
C      1  0.5708520000000  0.4804190000000  0.4773040000000 1.0
C      1  0.4978810000000  0.5209690000000  0.4315080000000 1.0
C      1  0.4620750000000  0.4773610000000  0.4412600000000 1.0
C      1  0.4501490000000  0.5633310000000  0.5354540000000 1.0
C      1  0.5209860000000  0.4786850000000  0.4688410000000 1.0
C      1  0.4666790000000  0.4393820000000  0.5335050000000 1.0
C      1  0.5730460000000  0.4275960000000  0.5002870000000 1.0
C      1  0.4749870000000  0.5430780000000  0.4194900000000 1.0
C      1  0.4832050000000  0.4898520000000  0.4749260000000 1.0
C      1  0.4329670000000  0.5115270000000  0.4568150000000 1.0
C      1  0.4304680000000  0.4587090000000  0.5451970000000 1.0
C      1  0.5454870000000  0.4177130000000  0.5177230000000 1.0
C      1  0.4751510000000  0.6112080000000  0.4705620000000 1.0
C      1  0.4615140000000  0.4638660000000  0.4788960000000 1.0
C      1  0.4697520000000  0.5129030000000  0.4045700000000 1.0
C      1  0.4261030000000  0.4906350000000  0.4307770000000 1.0
C      1  0.5806320000000  0.5279310000000  0.5293840000000 1.0
C      1  0.5356470000000  0.5265790000000  0.4724970000000 1.0
C      1  0.5220260000000  0.4073180000000  0.4749820000000 1.0
C      1  0.5594480000000  0.5537170000000  0.4893290000000 1.0
C      1  0.4958230000000  0.4235830000000  0.5411620000000 1.0
C      1  0.4773940000000  0.5253090000000  0.5806030000000 1.0
C      1  0.4693690000000  0.4709460000000  0.5232450000000 1.0
C      1  0.5307690000000  0.5862680000000  0.5196090000000 1.0
C      1  0.4964800000000  0.4453870000000  0.4221020000000 1.0
C      1  0.5732560000000  0.4569830000000  0.5142450000000 1.0
C      1  0.5424900000000  0.5783930000000  0.5497740000000 1.0
C      1  0.4959830000000  0.4982450000000  0.5131700000000 1.0
C      1  0.4737630000000  0.4950550000000  0.5874200000000 1.0
C      1  0.4034540000000  0.5046350000000  0.4958280000000 1.0
C      1  0.4918640000000  0.5228120000000  0.4990470000000 1.0
C      1  0.5316610000000  0.4798550000000  0.4187310000000 1.0
C      1  0.4607440000000  0.5115280000000  0.4767320000000 1.0
C      1  0.5520440000000  0.4889340000000  0.5739270000000 1.0
C      1  0.4303050000000  0.5197240000000  0.5005770000000 1.0
C      1  0.4732670000000  0.5705750000000  0.4386170000000 1.0
C      1  0.4452840000000  0.4515270000000  0.4538120000000 1.0
C      1  0.4883670000000  0.4587280000000  0.4993120000000 1.0
C      1  0.5245780000000  0.6025660000000  0.4968190000000 1.0
C      1  0.4517740000000  0.4930340000000  0.5040970000000 1.0
C      1  0.4528180000000  0.5439860000000  0.4459050000000 1.0
C      1  0.4594370000000  0.5114260000000  0.4369970000000 1.0
C      1  0.5774640000000  0.5277570000000  0.4990630000000 1.0
C      1  0.5155240000000  0.4779450000000  0.5006580000000 1.0
C      1  0.4953470000000  0.4631680000000  0.4577330000000 1.0
C      1  0.5278140000000  0.5462800000000  0.4387550000000 1.0
C      1  0.4802460000000  0.4649420000000  0.4076520000000 1.0
C      1  0.4229800000000  0.5442410000000  0.5309210000000 1.0
C      1  0.5410520000000  0.4295790000000  0.4770960000000 1.0
C      1  0.5273800000000  0.5325730000000  0.5259300000000 1.0
C      1  0.5355380000000  0.4885050000000  0.5988760000000 1.0
C      1  0.4379140000000  0.5586100000000  0.5036630000000 1.0
C      1  0.5278750000000  0.5384960000000  0.5844060000000 1.0
C      1  0.5536400000000  0.5059160000000  0.4920480000000 1.0
C      1  0.5649590000000  0.4980110000000  0.4484960000000 1.0
C      1  0.5066730000000  0.5727550000000  0.4436810000000 1.0
C      1  0.4856420000000  0.4348630000000  0.5680790000000 1.0
C      1  0.5432580000000  0.4752310000000  0.4488760000000 1.0
C      1  0.4583400000000  0.5130630000000  0.5478300000000 1.0
C      1  0.4546060000000  0.4793050000000  0.5689530000000 1.0
C      1  0.5318870000000  0.5206300000000  0.5558370000000 1.0
C      1  0.5638170000000  0.5151240000000  0.5563890000000 1.0
C      1  0.5676640000000  0.4507460000000  0.4753080000000 1.0
C      1  0.5807940000000  0.4694420000000  0.5381780000000 1.0
C      1  0.5514920000000  0.5568520000000  0.5731950000000 1.0
C      1  0.4778830000000  0.5399530000000  0.4765510000000 1.0
C      1  0.5112930000000  0.5092760000000  0.4762140000000 1.0
C      1  0.5038130000000  0.4521160000000  0.5808950000000 1.0
C      1  0.5217940000000  0.5887340000000  0.4669960000000 1.0
C      1  0.5480090000000  0.4431140000000  0.4480420000000 1.0
C      1  0.5363950000000  0.5605790000000  0.4672340000000 1.0
C      1  0.4879690000000  0.4329680000000  0.4509990000000 1.0
C      1  0.4327780000000  0.4670020000000  0.4968170000000 1.0
C      1  0.5039520000000  0.4813980000000  0.5947430000000 1.0
C      1  0.4789960000000  0.4898580000000  0.5481210000000 1.0
C      1  0.4808530000000  0.5474990000000  0.5157040000000 1.0
C      1  0.4401410000000  0.4234690000000  0.4660600000000 1.0
C      1  0.5872350000000  0.5101130000000  0.4714680000000 1.0
C      1  0.4975300000000  0.4938750000000  0.4024830000000 1.0
C      1  0.4301890000000  0.4477800000000  0.5195200000000 1.0
C      1  0.5087660000000  0.5834310000000  0.5440080000000 1.0
C      1  0.5863890000000  0.4969630000000  0.5398580000000 1.0
C      1  0.5245970000000  0.5102500000000  0.4159330000000 1.0
C      1  0.4569150000000  0.5276650000000  0.5192590000000 1.0
C      1  0.5036650000000  0.4098130000000  0.4963760000000 1.0
C      1  0.5017440000000  0.5442850000000  0.5409960000000 1.0
C      1  0.5250360000000  0.4503030000000  0.4238010000000 1.0
C      1  0.5414930000000  0.4518770000000  0.5379880000000 1.0
C      1  0.4464750000000  0.4236600000000  0.5148460000000 1.0
C      1  0.5492450000000  0.5233600000000  0.4343050000000 1.0
C      1  0.5148310000000  0.4143920000000  0.5221560000000 1.0
C      1  0.5355070000000  0.5008450000000  0.5166860000000 1.0
C      1  0.4703900000000  0.5430480000000  0.5538860000000 1.0
C      1  0.4831120000000  0.4294670000000  0.4846010000000 1.0
C      1  0.5643200000000  0.5526450000000  0.5425750000000 1.0
C      1  0.5407450000000  0.4496560000000  0.5047860000000 1.0
C      1  0.5080450000000  0.4963430000000  0.5579860000000 1.0
C      1  0.4970970000000  0.5426680000000  0.4542090000000 1.0
C      1  0.4055550000000  0.4800090000000  0.4900140000000 1.0
C      1  0.5122140000000  0.5605270000000  0.5676420000000 1.0
C      1  0.5078650000000  0.4075980000000  0.4512110000000 1.0
C      1  0.5424270000000  0.4852840000000  0.5409330000000 1.0
C      1  0.5667430000000  0.5353500000000  0.4613990000000 1.0
C      1  0.4927730000000  0.4894340000000  0.4362830000000 1.0
C      1  0.5080070000000  0.5146530000000  0.5869920000000 1.0
C      1  0.4271020000000  0.4887500000000  0.5523430000000 1.0
C      1  0.5021980000000  0.6137120000000  0.4770430000000 1.0
C      1  0.5643820000000  0.4602120000000  0.5620530000000 1.0
END
