TITL C-2778432-5617-1224 -6.59704926316471e-05 125000 -104.33766167374 0 0 20 (C1) n - 1
REM
REM in /home/nfs/bkarasulu/CARBON/AIRSS/Generating-Clusters/REBO/Only-C1/SD-CG/HFTN-CG
REM
REM
REM
REM
REM
REM ./C.cell (11c1c37f851c82e70ff6c80c92926a4b)
REM
REM compiler GCC version 9.2.1 20190827 (Red Hat 9.2.1-1)
REM options -cpp -mtune=generic -march=x86-64 -g -O0 -fpre-include=/usr/include/finclude/math-vector-fortran.h
REM seed -263393094 760322866 860994589 767116388 -163397491 -1554394105 1847783086 -1474023935 1476650681 -246177419 -1737919633 -843077102 2136924173 1972748287 206965335 -409590335 -554137748 357550699 14985357 -801735334 -457042731 717111906 -698518230 2123234773 -1851223045 888436777 1286340656 1505517602 1809482058 76295133 1170681783 -464638664 1055064469
REM
CELL 1.54180   50.00000   50.00000   50.00000   90.00000   90.00000   90.00000
LATT -1
SFAC C  
C      1  0.4587220000000  0.4858400000000  0.5000080000000 1.0
C      1  0.4950970000000  0.5371080000000  0.4982180000000 1.0
C      1  0.5318900000000  0.5047180000000  0.5069000000000 1.0
C      1  0.4773330000000  0.5130250000000  0.4625140000000 1.0
C      1  0.4752480000000  0.4546900000000  0.5330630000000 1.0
C      1  0.5242300000000  0.5422040000000  0.5376960000000 1.0
C      1  0.4583610000000  0.5102380000000  0.4852750000000 1.0
C      1  0.4707590000000  0.4861500000000  0.5298120000000 1.0
C      1  0.5237930000000  0.4815160000000  0.4949760000000 1.0
C      1  0.5008380000000  0.5288980000000  0.4704810000000 1.0
C      1  0.5240280000000  0.5331810000000  0.4560030000000 1.0
C      1  0.5007130000000  0.4589650000000  0.4886220000000 1.0
C      1  0.5459910000000  0.5372380000000  0.4422920000000 1.0
C      1  0.4755180000000  0.4589330000000  0.5013100000000 1.0
C      1  0.5116960000000  0.5235860000000  0.5204720000000 1.0
C      1  0.4802800000000  0.4362410000000  0.5515360000000 1.0
C      1  0.5306590000000  0.4551700000000  0.4770830000000 1.0
C      1  0.5584550000000  0.5127090000000  0.5066130000000 1.0
C      1  0.4901010000000  0.5059480000000  0.5354930000000 1.0
C      1  0.4662880000000  0.5336430000000  0.5016370000000 1.0
END
