TITL C-2778423-5760-835 0.00273319483423411 125000 -933.211746542958 0 0 161 (C1) n - 1
REM
REM in /home/nfs/bkarasulu/CARBON/AIRSS/Generating-Clusters/REBO/Only-C1/SD-CG/HFTN-CG
REM
REM
REM
REM
REM
REM ./C.cell (11c1c37f851c82e70ff6c80c92926a4b)
REM
REM compiler GCC version 9.2.1 20190827 (Red Hat 9.2.1-1)
REM options -cpp -mtune=generic -march=x86-64 -g -O0 -fpre-include=/usr/include/finclude/math-vector-fortran.h
REM seed 1996158100 -669429812 -1139124447 -758246130 -347790179 560792699 -1347486439 1420604073 1942823729 -1109159848 329059287 -106020037 -1068573099 966175467 2084130714 38740845 -1980431122 -1557942822 502435371 1892811026 -1975233681 226106868 -394283394 390740241 495424525 72122673 -1044683208 1275160887 933293165 89438751 -1196431144 1291151317 1658168682
REM
CELL 1.54180   50.00000   50.00000   50.00000   90.00000   90.00000   90.00000
LATT -1
SFAC C  
C      1  0.4947890000000  0.3893620000000  0.4948970000000 1.0
C      1  0.4998320000000  0.5423290000000  0.5383310000000 1.0
C      1  0.5164410000000  0.5287640000000  0.5851150000000 1.0
C      1  0.5659750000000  0.5107600000000  0.5676460000000 1.0
C      1  0.5701080000000  0.4233170000000  0.4826240000000 1.0
C      1  0.4219700000000  0.5168360000000  0.4348730000000 1.0
C      1  0.4425100000000  0.5154340000000  0.5759920000000 1.0
C      1  0.4334190000000  0.4756400000000  0.4691950000000 1.0
C      1  0.5051630000000  0.4251510000000  0.4440480000000 1.0
C      1  0.4917820000000  0.6056400000000  0.5090270000000 1.0
C      1  0.5053610000000  0.4613790000000  0.5273990000000 1.0
C      1  0.4853410000000  0.5067260000000  0.5492290000000 1.0
C      1  0.6059620000000  0.4842520000000  0.5006290000000 1.0
C      1  0.3967640000000  0.4836210000000  0.5292900000000 1.0
C      1  0.5769060000000  0.5336990000000  0.4885980000000 1.0
C      1  0.5371480000000  0.4890910000000  0.4780760000000 1.0
C      1  0.4170070000000  0.5216900000000  0.5483750000000 1.0
C      1  0.5810090000000  0.5390780000000  0.5439660000000 1.0
C      1  0.4918840000000  0.5984100000000  0.4771290000000 1.0
C      1  0.5663310000000  0.4347170000000  0.5405780000000 1.0
C      1  0.5242790000000  0.4034450000000  0.4866120000000 1.0
C      1  0.5547150000000  0.5408180000000  0.5629670000000 1.0
C      1  0.4875890000000  0.4760850000000  0.4726940000000 1.0
C      1  0.5254260000000  0.5676170000000  0.4484560000000 1.0
C      1  0.5677690000000  0.5104750000000  0.4326790000000 1.0
C      1  0.5422260000000  0.5604840000000  0.4741990000000 1.0
C      1  0.5256880000000  0.5151490000000  0.4952020000000 1.0
C      1  0.4398400000000  0.4366310000000  0.4430460000000 1.0
C      1  0.4333110000000  0.4139970000000  0.5441420000000 1.0
C      1  0.5063340000000  0.4689620000000  0.4384640000000 1.0
C      1  0.5175430000000  0.4244400000000  0.5362720000000 1.0
C      1  0.5811640000000  0.5097290000000  0.4569110000000 1.0
C      1  0.4891940000000  0.4879840000000  0.6064210000000 1.0
C      1  0.4946720000000  0.4197200000000  0.5803920000000 1.0
C      1  0.5637510000000  0.4571010000000  0.4366630000000 1.0
C      1  0.4675400000000  0.4708480000000  0.5193390000000 1.0
C      1  0.4632500000000  0.5674980000000  0.5090170000000 1.0
C      1  0.5748700000000  0.4920400000000  0.5126830000000 1.0
C      1  0.5918370000000  0.4384240000000  0.4938860000000 1.0
C      1  0.5183210000000  0.5871180000000  0.5048080000000 1.0
C      1  0.4995150000000  0.4702160000000  0.5919470000000 1.0
C      1  0.5544060000000  0.4559470000000  0.5555940000000 1.0
C      1  0.5282620000000  0.4463640000000  0.4514120000000 1.0
C      1  0.4455020000000  0.4336040000000  0.5694070000000 1.0
C      1  0.5659160000000  0.5825360000000  0.4767250000000 1.0
C      1  0.4691170000000  0.4122670000000  0.4754770000000 1.0
C      1  0.4730250000000  0.4905630000000  0.5700650000000 1.0
C      1  0.4707420000000  0.5131750000000  0.5955260000000 1.0
C      1  0.4825630000000  0.5109660000000  0.4216580000000 1.0
C      1  0.5174050000000  0.4676400000000  0.4832220000000 1.0
C      1  0.5716010000000  0.5625820000000  0.5012240000000 1.0
C      1  0.4449830000000  0.4835510000000  0.5880080000000 1.0
C      1  0.4700700000000  0.5414300000000  0.4169150000000 1.0
C      1  0.5197860000000  0.5168070000000  0.4084410000000 1.0
C      1  0.5595850000000  0.5802680000000  0.5237430000000 1.0
C      1  0.5188870000000  0.5935970000000  0.4654930000000 1.0
C      1  0.4909910000000  0.4438170000000  0.4654380000000 1.0
C      1  0.4181800000000  0.4853530000000  0.4405860000000 1.0
C      1  0.4254590000000  0.4286370000000  0.4950170000000 1.0
C      1  0.3969670000000  0.5190810000000  0.4868210000000 1.0
C      1  0.5633620000000  0.5790500000000  0.4429980000000 1.0
C      1  0.4631700000000  0.4405890000000  0.4936240000000 1.0
C      1  0.6033370000000  0.5261660000000  0.4694140000000 1.0
C      1  0.6016380000000  0.4615580000000  0.4799520000000 1.0
C      1  0.4675920000000  0.5313180000000  0.5392970000000 1.0
C      1  0.5379210000000  0.5143570000000  0.5269180000000 1.0
C      1  0.4356420000000  0.4609790000000  0.4982480000000 1.0
C      1  0.4607480000000  0.5754140000000  0.5595850000000 1.0
C      1  0.5016130000000  0.4641580000000  0.5585250000000 1.0
C      1  0.4648520000000  0.4471220000000  0.5371970000000 1.0
C      1  0.5487140000000  0.4849820000000  0.4278790000000 1.0
C      1  0.5533850000000  0.5009460000000  0.5919550000000 1.0
C      1  0.4407260000000  0.4861000000000  0.5210180000000 1.0
C      1  0.5293470000000  0.5534180000000  0.5261630000000 1.0
C      1  0.4696620000000  0.5208700000000  0.4579220000000 1.0
C      1  0.5100050000000  0.4535710000000  0.4023970000000 1.0
C      1  0.4445210000000  0.5192070000000  0.4142610000000 1.0
C      1  0.5323940000000  0.5827260000000  0.5413960000000 1.0
C      1  0.4839210000000  0.4211070000000  0.5318690000000 1.0
C      1  0.5522840000000  0.4086010000000  0.5006920000000 1.0
C      1  0.5492310000000  0.4147110000000  0.5288040000000 1.0
C      1  0.5578870000000  0.5403960000000  0.5231270000000 1.0
C      1  0.4320430000000  0.4928750000000  0.5520070000000 1.0
C      1  0.5035190000000  0.5974150000000  0.5396030000000 1.0
C      1  0.4763760000000  0.4651040000000  0.4216550000000 1.0
C      1  0.5249570000000  0.4850160000000  0.5649380000000 1.0
C      1  0.4742110000000  0.4882540000000  0.4028720000000 1.0
C      1  0.4697940000000  0.4576800000000  0.5673720000000 1.0
C      1  0.5178650000000  0.5170780000000  0.5545790000000 1.0
C      1  0.4439550000000  0.4656530000000  0.4319560000000 1.0
C      1  0.3944160000000  0.5013040000000  0.4586890000000 1.0
C      1  0.5476630000000  0.5224280000000  0.4140160000000 1.0
C      1  0.6027690000000  0.4733620000000  0.5327770000000 1.0
C      1  0.4654940000000  0.4225800000000  0.4431650000000 1.0
C      1  0.5313180000000  0.4469900000000  0.5141860000000 1.0
C      1  0.4588050000000  0.5522210000000  0.4801600000000 1.0
C      1  0.4932670000000  0.5665990000000  0.5164020000000 1.0
C      1  0.4966780000000  0.5875210000000  0.4229620000000 1.0
C      1  0.3966990000000  0.5067480000000  0.5160260000000 1.0
C      1  0.5285550000000  0.4358230000000  0.4839070000000 1.0
C      1  0.4942260000000  0.4473190000000  0.4996320000000 1.0
C      1  0.4874990000000  0.5410190000000  0.5897990000000 1.0
C      1  0.5014080000000  0.5012000000000  0.4446510000000 1.0
C      1  0.5842450000000  0.4992800000000  0.5449290000000 1.0
C      1  0.4582860000000  0.5457130000000  0.5761180000000 1.0
C      1  0.5434230000000  0.5726390000000  0.4219100000000 1.0
C      1  0.5233790000000  0.5337770000000  0.4516320000000 1.0
C      1  0.5146070000000  0.5686210000000  0.4101490000000 1.0
C      1  0.4844400000000  0.5797390000000  0.4509090000000 1.0
C      1  0.4319550000000  0.4437320000000  0.5335390000000 1.0
C      1  0.5552910000000  0.4647520000000  0.5168050000000 1.0
C      1  0.4232110000000  0.4289710000000  0.4652990000000 1.0
C      1  0.5828340000000  0.4699370000000  0.4589190000000 1.0
C      1  0.4302760000000  0.5573180000000  0.5076570000000 1.0
C      1  0.5387340000000  0.4569470000000  0.4135180000000 1.0
C      1  0.5368640000000  0.4488200000000  0.5769140000000 1.0
C      1  0.4486050000000  0.5227650000000  0.4802260000000 1.0
C      1  0.4563550000000  0.4968800000000  0.4374970000000 1.0
C      1  0.4873930000000  0.5172150000000  0.5065400000000 1.0
C      1  0.5029860000000  0.5419670000000  0.4079840000000 1.0
C      1  0.4531280000000  0.5165730000000  0.5118300000000 1.0
C      1  0.5469160000000  0.4858720000000  0.5405020000000 1.0
C      1  0.5327580000000  0.5011440000000  0.4495220000000 1.0
C      1  0.5392490000000  0.4746240000000  0.5929620000000 1.0
C      1  0.4702850000000  0.4045330000000  0.5089250000000 1.0
C      1  0.4733860000000  0.4181100000000  0.5631320000000 1.0
C      1  0.4880440000000  0.5833600000000  0.5595290000000 1.0
C      1  0.4257200000000  0.5406100000000  0.4514830000000 1.0
C      1  0.5047880000000  0.5651510000000  0.5750120000000 1.0
C      1  0.6038880000000  0.5171650000000  0.5015990000000 1.0
C      1  0.4389940000000  0.4099440000000  0.5137100000000 1.0
C      1  0.4094910000000  0.4619680000000  0.5411280000000 1.0
C      1  0.5396420000000  0.5982860000000  0.4863580000000 1.0
C      1  0.6035020000000  0.5231170000000  0.5319780000000 1.0
C      1  0.5132850000000  0.4868120000000  0.4094780000000 1.0
C      1  0.4391730000000  0.5445110000000  0.5487720000000 1.0
C      1  0.4877880000000  0.4345170000000  0.4199760000000 1.0
C      1  0.5853840000000  0.4489490000000  0.5212650000000 1.0
C      1  0.4468530000000  0.5552970000000  0.4377830000000 1.0
C      1  0.5361990000000  0.5214140000000  0.6021140000000 1.0
C      1  0.5184600000000  0.4293020000000  0.5685840000000 1.0
C      1  0.4430740000000  0.5827300000000  0.4785410000000 1.0
C      1  0.4215920000000  0.5286340000000  0.5167420000000 1.0
C      1  0.4359560000000  0.5759390000000  0.5362010000000 1.0
C      1  0.5674580000000  0.4904670000000  0.4800360000000 1.0
C      1  0.4994720000000  0.4027540000000  0.4640270000000 1.0
C      1  0.4606830000000  0.4603410000000  0.4673800000000 1.0
C      1  0.4298440000000  0.4628510000000  0.5684620000000 1.0
C      1  0.4918150000000  0.5465850000000  0.4534330000000 1.0
C      1  0.4250480000000  0.5066880000000  0.4733940000000 1.0
C      1  0.5591200000000  0.4337370000000  0.4586260000000 1.0
C      1  0.5219440000000  0.5486260000000  0.4953690000000 1.0
C      1  0.4923740000000  0.5549880000000  0.4849840000000 1.0
C      1  0.5493550000000  0.5287690000000  0.4739200000000 1.0
C      1  0.4544170000000  0.5787660000000  0.4507890000000 1.0
C      1  0.4978200000000  0.5142840000000  0.4753670000000 1.0
C      1  0.5328710000000  0.5598320000000  0.5653810000000 1.0
C      1  0.4423430000000  0.5946240000000  0.5083120000000 1.0
C      1  0.4850250000000  0.4859160000000  0.5002420000000 1.0
C      1  0.4156530000000  0.5450380000000  0.4794210000000 1.0
C      1  0.5028700000000  0.4936990000000  0.5259990000000 1.0
END
