TITL C-2778426-5645-454 -0.00247439714113627 125000 -297.362298616068 0 0 51 (C1) n - 1
REM
REM in /home/nfs/bkarasulu/CARBON/AIRSS/Generating-Clusters/REBO/Only-C1/SD-CG/HFTN-CG
REM
REM
REM
REM
REM
REM ./C.cell (11c1c37f851c82e70ff6c80c92926a4b)
REM
REM compiler GCC version 9.2.1 20190827 (Red Hat 9.2.1-1)
REM options -cpp -mtune=generic -march=x86-64 -g -O0 -fpre-include=/usr/include/finclude/math-vector-fortran.h
REM seed -2100259544 828815339 -2070795186 1717569251 1918315137 1721659242 -1461989297 1519112936 -972679640 1481788589 1375716147 1559741160 -852519214 -733458063 -1936747624 -191056648 -1790116113 -119811930 -522846066 234742907 -1223615283 -1362358919 2044405549 -205148801 -2132929789 964439117 2043374397 42918838 397510189 1597395462 1212272071 88513795 -818850927
REM
CELL 1.54180   50.00000   50.00000   50.00000   90.00000   90.00000   90.00000
LATT -1
SFAC C  
C      1  0.4208120000000  0.4926570000000  0.5545130000000 1.0
C      1  0.4839830000000  0.4388070000000  0.5535300000000 1.0
C      1  0.4802160000000  0.4635620000000  0.4862190000000 1.0
C      1  0.5511910000000  0.4694470000000  0.5302040000000 1.0
C      1  0.4382720000000  0.4937960000000  0.4837980000000 1.0
C      1  0.5548620000000  0.4638720000000  0.4724770000000 1.0
C      1  0.5311430000000  0.4958140000000  0.4420230000000 1.0
C      1  0.5153740000000  0.5364820000000  0.5201280000000 1.0
C      1  0.5163000000000  0.5482130000000  0.4551430000000 1.0
C      1  0.4389400000000  0.5058540000000  0.5101140000000 1.0
C      1  0.4891880000000  0.5513330000000  0.4729640000000 1.0
C      1  0.4671120000000  0.4833800000000  0.5385240000000 1.0
C      1  0.5001920000000  0.4581420000000  0.5480140000000 1.0
C      1  0.4877900000000  0.5023570000000  0.4920930000000 1.0
C      1  0.4919650000000  0.5501330000000  0.5369040000000 1.0
C      1  0.5665410000000  0.5252450000000  0.5278500000000 1.0
C      1  0.5350060000000  0.4457090000000  0.5116790000000 1.0
C      1  0.4417020000000  0.5415040000000  0.4796350000000 1.0
C      1  0.4567870000000  0.5115390000000  0.4427210000000 1.0
C      1  0.4363620000000  0.5169880000000  0.4653370000000 1.0
C      1  0.4021520000000  0.4926110000000  0.5729150000000 1.0
C      1  0.5047440000000  0.4530950000000  0.4724950000000 1.0
C      1  0.5136140000000  0.4844810000000  0.5628430000000 1.0
C      1  0.5372940000000  0.5046330000000  0.4897810000000 1.0
C      1  0.5392940000000  0.5312520000000  0.4988710000000 1.0
C      1  0.4848270000000  0.5041130000000  0.4618300000000 1.0
C      1  0.5050750000000  0.4550360000000  0.4437570000000 1.0
C      1  0.5151630000000  0.4909540000000  0.5026290000000 1.0
C      1  0.5399160000000  0.5203180000000  0.5371230000000 1.0
C      1  0.4871680000000  0.5330520000000  0.5010960000000 1.0
C      1  0.4811860000000  0.5335610000000  0.4446970000000 1.0
C      1  0.4561440000000  0.4724460000000  0.4718370000000 1.0
C      1  0.5372540000000  0.4939880000000  0.5482850000000 1.0
C      1  0.5207950000000  0.4725760000000  0.4292430000000 1.0
C      1  0.4802430000000  0.4898000000000  0.5616980000000 1.0
C      1  0.4534570000000  0.5336040000000  0.5079190000000 1.0
C      1  0.4952400000000  0.4974210000000  0.5884340000000 1.0
C      1  0.5113620000000  0.5174570000000  0.4451780000000 1.0
C      1  0.4586920000000  0.5596660000000  0.4674120000000 1.0
C      1  0.5175260000000  0.4691120000000  0.5243930000000 1.0
C      1  0.5832420000000  0.5049500000000  0.5192050000000 1.0
C      1  0.4405710000000  0.4927050000000  0.5350270000000 1.0
C      1  0.4595980000000  0.4790890000000  0.4435930000000 1.0
C      1  0.5519110000000  0.5519980000000  0.4848100000000 1.0
C      1  0.5397110000000  0.5600930000000  0.4615440000000 1.0
C      1  0.5463720000000  0.4909580000000  0.4655840000000 1.0
C      1  0.5322970000000  0.4479280000000  0.4832410000000 1.0
C      1  0.4674800000000  0.5488620000000  0.5320870000000 1.0
C      1  0.5759030000000  0.4778870000000  0.5149560000000 1.0
C      1  0.4798810000000  0.4770500000000  0.5138960000000 1.0
C      1  0.5781510000000  0.4644730000000  0.4897480000000 1.0
END
