TITL C-2778433-5640-588 -0.00224070676626463 125000 -1101.24620182056 0 0 185 (C1) n - 1
REM
REM in /home/nfs/bkarasulu/CARBON/AIRSS/Generating-Clusters/REBO/Only-C1/SD-CG/HFTN-CG
REM
REM
REM
REM
REM
REM ./C.cell (11c1c37f851c82e70ff6c80c92926a4b)
REM
REM compiler GCC version 9.2.1 20190827 (Red Hat 9.2.1-1)
REM options -cpp -mtune=generic -march=x86-64 -g -O0 -fpre-include=/usr/include/finclude/math-vector-fortran.h
REM seed -1920153139 1081440716 1038396883 1547741140 -1327116163 -1175874808 -1534626853 -191277696 792115827 -1448610154 346190054 -1683109314 -1201593532 1911949630 134525914 -1281493654 1157321691 1868199206 1008987301 -598023360 639949665 1694606636 -1012519549 -1308969254 1857740695 -438970143 172426567 -1426070790 1987025310 1108120617 -1434725741 -1272107825 1576830828
REM
CELL 1.54180   50.00000   50.00000   50.00000   90.00000   90.00000   90.00000
LATT -1
SFAC C  
C      1  0.6090450000000  0.5009830000000  0.5499280000000 1.0
C      1  0.5494310000000  0.4287240000000  0.4998280000000 1.0
C      1  0.5767780000000  0.5192400000000  0.4130480000000 1.0
C      1  0.4642880000000  0.4436540000000  0.5099500000000 1.0
C      1  0.4014770000000  0.4760160000000  0.5825260000000 1.0
C      1  0.5155460000000  0.3779900000000  0.5285520000000 1.0
C      1  0.5363300000000  0.4870010000000  0.4650130000000 1.0
C      1  0.5981020000000  0.5295690000000  0.5394400000000 1.0
C      1  0.4506380000000  0.4108770000000  0.4881490000000 1.0
C      1  0.4737290000000  0.4792910000000  0.5766080000000 1.0
C      1  0.5467270000000  0.5595330000000  0.5550540000000 1.0
C      1  0.5241290000000  0.3774780000000  0.4549100000000 1.0
C      1  0.5263260000000  0.4272210000000  0.5339480000000 1.0
C      1  0.5441270000000  0.3950070000000  0.5356040000000 1.0
C      1  0.4087620000000  0.4333140000000  0.5075410000000 1.0
C      1  0.5169890000000  0.5361000000000  0.4814370000000 1.0
C      1  0.5567190000000  0.5749030000000  0.4994000000000 1.0
C      1  0.4905670000000  0.4634600000000  0.3862290000000 1.0
C      1  0.6128780000000  0.5010670000000  0.5158960000000 1.0
C      1  0.5324880000000  0.4959790000000  0.5715730000000 1.0
C      1  0.4283590000000  0.5121760000000  0.5598200000000 1.0
C      1  0.5598470000000  0.4158690000000  0.5523230000000 1.0
C      1  0.4086830000000  0.5325630000000  0.5040840000000 1.0
C      1  0.4630240000000  0.5574340000000  0.5423480000000 1.0
C      1  0.5619120000000  0.4964860000000  0.5446790000000 1.0
C      1  0.5113060000000  0.5857960000000  0.5350230000000 1.0
C      1  0.5746950000000  0.4727290000000  0.4372040000000 1.0
C      1  0.5081520000000  0.5385170000000  0.4425690000000 1.0
C      1  0.4497850000000  0.5019680000000  0.4964050000000 1.0
C      1  0.5338490000000  0.5537410000000  0.4075610000000 1.0
C      1  0.4854040000000  0.5401100000000  0.4000980000000 1.0
C      1  0.5607500000000  0.5082040000000  0.5744360000000 1.0
C      1  0.5812510000000  0.4895750000000  0.5926330000000 1.0
C      1  0.5051490000000  0.4045340000000  0.5430740000000 1.0
C      1  0.4787380000000  0.5060090000000  0.4798920000000 1.0
C      1  0.4365480000000  0.5774860000000  0.5204460000000 1.0
C      1  0.5995600000000  0.4493260000000  0.5481320000000 1.0
C      1  0.4918780000000  0.6024760000000  0.5046550000000 1.0
C      1  0.5792270000000  0.5523650000000  0.5513790000000 1.0
C      1  0.3643520000000  0.4701400000000  0.4668860000000 1.0
C      1  0.5169670000000  0.4593590000000  0.5685060000000 1.0
C      1  0.3951360000000  0.5565450000000  0.4977090000000 1.0
C      1  0.4341440000000  0.4841040000000  0.5783480000000 1.0
C      1  0.5428080000000  0.5329560000000  0.4991130000000 1.0
C      1  0.5192810000000  0.5035800000000  0.4861590000000 1.0
C      1  0.5518190000000  0.5134630000000  0.4255590000000 1.0
C      1  0.4641950000000  0.5151210000000  0.4435050000000 1.0
C      1  0.5098850000000  0.5183850000000  0.5651680000000 1.0
C      1  0.6083690000000  0.5397980000000  0.4779790000000 1.0
C      1  0.4990370000000  0.5933100000000  0.4575040000000 1.0
C      1  0.5442870000000  0.5409780000000  0.5302690000000 1.0
C      1  0.5544430000000  0.5275490000000  0.4708230000000 1.0
C      1  0.5801190000000  0.4302660000000  0.5093820000000 1.0
C      1  0.4671730000000  0.5261900000000  0.5443280000000 1.0
C      1  0.5532690000000  0.4801750000000  0.6018050000000 1.0
C      1  0.4949890000000  0.5567470000000  0.4213400000000 1.0
C      1  0.5618460000000  0.5804770000000  0.4704750000000 1.0
C      1  0.5945890000000  0.4827600000000  0.4561020000000 1.0
C      1  0.4493780000000  0.5526750000000  0.6011680000000 1.0
C      1  0.5162040000000  0.4606190000000  0.4946510000000 1.0
C      1  0.4801900000000  0.5844130000000  0.5307290000000 1.0
C      1  0.4874650000000  0.4257000000000  0.4363660000000 1.0
C      1  0.5376930000000  0.5339950000000  0.5999670000000 1.0
C      1  0.4630280000000  0.4698480000000  0.4271170000000 1.0
C      1  0.4696570000000  0.4760780000000  0.5063970000000 1.0
C      1  0.4320000000000  0.5901880000000  0.4913320000000 1.0
C      1  0.4519020000000  0.5958400000000  0.5427890000000 1.0
C      1  0.4803760000000  0.5981090000000  0.4782850000000 1.0
C      1  0.3891880000000  0.5272110000000  0.5382030000000 1.0
C      1  0.4515890000000  0.5300800000000  0.4186520000000 1.0
C      1  0.5257370000000  0.5751330000000  0.5079420000000 1.0
C      1  0.3959250000000  0.4577560000000  0.5116320000000 1.0
C      1  0.4072700000000  0.4659230000000  0.5550290000000 1.0
C      1  0.5500850000000  0.4489540000000  0.5275190000000 1.0
C      1  0.5762790000000  0.5732640000000  0.5262340000000 1.0
C      1  0.4891020000000  0.4868520000000  0.5303340000000 1.0
C      1  0.4478160000000  0.5672530000000  0.5777080000000 1.0
C      1  0.4886580000000  0.5348290000000  0.5216000000000 1.0
C      1  0.4955550000000  0.4499730000000  0.5452850000000 1.0
C      1  0.5155630000000  0.5261530000000  0.5363420000000 1.0
C      1  0.4726380000000  0.4089000000000  0.5449780000000 1.0
C      1  0.4915840000000  0.4741130000000  0.4804170000000 1.0
C      1  0.4214720000000  0.5002330000000  0.4322250000000 1.0
C      1  0.4798200000000  0.5185280000000  0.5720680000000 1.0
C      1  0.5954650000000  0.4493320000000  0.4949060000000 1.0
C      1  0.5220120000000  0.3879760000000  0.4781640000000 1.0
C      1  0.4242260000000  0.4308540000000  0.4826640000000 1.0
C      1  0.4336520000000  0.5529750000000  0.4272960000000 1.0
C      1  0.5376380000000  0.5027730000000  0.6105390000000 1.0
C      1  0.4577280000000  0.4365670000000  0.4354390000000 1.0
C      1  0.4610480000000  0.4928000000000  0.5479610000000 1.0
C      1  0.4498560000000  0.5555780000000  0.5001440000000 1.0
C      1  0.4980080000000  0.5855070000000  0.4294300000000 1.0
C      1  0.5857510000000  0.4727010000000  0.4818850000000 1.0
C      1  0.5259400000000  0.5818470000000  0.4181600000000 1.0
C      1  0.4576430000000  0.5025410000000  0.5926030000000 1.0
C      1  0.4943410000000  0.5073880000000  0.5081300000000 1.0
C      1  0.4501200000000  0.4394190000000  0.4046680000000 1.0
C      1  0.4481940000000  0.5736260000000  0.4484620000000 1.0
C      1  0.5491230000000  0.5943950000000  0.5252490000000 1.0
C      1  0.4362760000000  0.5271690000000  0.5042280000000 1.0
C      1  0.4859900000000  0.5363040000000  0.4694470000000 1.0
C      1  0.4980140000000  0.4231520000000  0.4083710000000 1.0
C      1  0.5281540000000  0.5869200000000  0.4686950000000 1.0
C      1  0.3916890000000  0.5098550000000  0.4760390000000 1.0
C      1  0.5366160000000  0.4020150000000  0.5048800000000 1.0
C      1  0.5344770000000  0.4423240000000  0.4762730000000 1.0
C      1  0.5629060000000  0.4642600000000  0.5530870000000 1.0
C      1  0.5469660000000  0.5896640000000  0.4416270000000 1.0
C      1  0.5899700000000  0.5663920000000  0.4678470000000 1.0
C      1  0.4561390000000  0.5431640000000  0.4585630000000 1.0
C      1  0.5684560000000  0.5208150000000  0.5272810000000 1.0
C      1  0.4029860000000  0.4597830000000  0.4170790000000 1.0
C      1  0.5784420000000  0.5135350000000  0.4757620000000 1.0
C      1  0.4447520000000  0.4557350000000  0.5632590000000 1.0
C      1  0.4707880000000  0.4459590000000  0.5798150000000 1.0
C      1  0.5239250000000  0.5298710000000  0.4006040000000 1.0
C      1  0.5153090000000  0.4188410000000  0.5714020000000 1.0
C      1  0.5026800000000  0.3975620000000  0.5037690000000 1.0
C      1  0.4274030000000  0.5520280000000  0.4745890000000 1.0
C      1  0.4162210000000  0.5279950000000  0.4371080000000 1.0
C      1  0.4770680000000  0.4377420000000  0.3915220000000 1.0
C      1  0.4890530000000  0.4597810000000  0.4432320000000 1.0
C      1  0.6135630000000  0.5347480000000  0.5104390000000 1.0
C      1  0.4761350000000  0.5731870000000  0.5688970000000 1.0
C      1  0.4070750000000  0.5781340000000  0.4807960000000 1.0
C      1  0.4132520000000  0.5346400000000  0.5506720000000 1.0
C      1  0.5086750000000  0.4295650000000  0.4602330000000 1.0
C      1  0.5047870000000  0.5427980000000  0.5964210000000 1.0
C      1  0.5220070000000  0.5740740000000  0.5597640000000 1.0
C      1  0.4070010000000  0.5307490000000  0.4642630000000 1.0
C      1  0.4626850000000  0.5169410000000  0.3941070000000 1.0
C      1  0.5395330000000  0.5366230000000  0.4432530000000 1.0
C      1  0.4838730000000  0.4223300000000  0.5715780000000 1.0
C      1  0.5149020000000  0.4843320000000  0.5451240000000 1.0
C      1  0.5420870000000  0.4272670000000  0.5722610000000 1.0
C      1  0.3841580000000  0.4872080000000  0.4591610000000 1.0
C      1  0.4728890000000  0.5314390000000  0.6020800000000 1.0
C      1  0.6147190000000  0.4718190000000  0.5331680000000 1.0
C      1  0.4490900000000  0.4090020000000  0.5224390000000 1.0
C      1  0.6033160000000  0.5152650000000  0.4554030000000 1.0
C      1  0.4288370000000  0.4861030000000  0.5390050000000 1.0
C      1  0.5111520000000  0.4512850000000  0.5196140000000 1.0
C      1  0.4298980000000  0.5608780000000  0.5494900000000 1.0
C      1  0.5917780000000  0.4779320000000  0.5649740000000 1.0
C      1  0.5189690000000  0.4606070000000  0.3931090000000 1.0
C      1  0.5236800000000  0.4381910000000  0.4115040000000 1.0
C      1  0.5585220000000  0.4794670000000  0.4879680000000 1.0
C      1  0.5020130000000  0.4833990000000  0.5827330000000 1.0
C      1  0.5958270000000  0.5315770000000  0.4303120000000 1.0
C      1  0.5018440000000  0.5666770000000  0.5777120000000 1.0
C      1  0.4499000000000  0.4516690000000  0.4816370000000 1.0
C      1  0.3902930000000  0.5078330000000  0.5100440000000 1.0
C      1  0.4989720000000  0.5096660000000  0.4079880000000 1.0
C      1  0.4432020000000  0.4215270000000  0.4566030000000 1.0
C      1  0.4226370000000  0.4227880000000  0.5299210000000 1.0
C      1  0.5071810000000  0.5661300000000  0.4856050000000 1.0
C      1  0.5332230000000  0.5051780000000  0.5166810000000 1.0
C      1  0.5863420000000  0.5575310000000  0.4380100000000 1.0
C      1  0.5603730000000  0.5397970000000  0.5771820000000 1.0
C      1  0.5505880000000  0.4789290000000  0.5181250000000 1.0
C      1  0.4038020000000  0.4824030000000  0.5189520000000 1.0
C      1  0.5462520000000  0.4578720000000  0.5797170000000 1.0
C      1  0.3998510000000  0.4817930000000  0.4351110000000 1.0
C      1  0.4761480000000  0.4863340000000  0.4004320000000 1.0
C      1  0.4793900000000  0.4436690000000  0.4708880000000 1.0
C      1  0.5366270000000  0.4378020000000  0.4423470000000 1.0
C      1  0.4439580000000  0.4799630000000  0.4734920000000 1.0
C      1  0.5845110000000  0.5087520000000  0.5025350000000 1.0
C      1  0.4528760000000  0.5915090000000  0.4715990000000 1.0
C      1  0.5060950000000  0.4848280000000  0.4523330000000 1.0
C      1  0.4944720000000  0.5096750000000  0.4398020000000 1.0
C      1  0.4475170000000  0.4896510000000  0.4446500000000 1.0
C      1  0.5955180000000  0.5620560000000  0.5012180000000 1.0
C      1  0.4796890000000  0.5533000000000  0.4988140000000 1.0
C      1  0.4677790000000  0.4509970000000  0.5404050000000 1.0
C      1  0.4230850000000  0.4477550000000  0.4024560000000 1.0
C      1  0.5074330000000  0.5092770000000  0.5994800000000 1.0
C      1  0.5671700000000  0.4450610000000  0.4364520000000 1.0
C      1  0.5574480000000  0.5612300000000  0.4307050000000 1.0
C      1  0.4198730000000  0.4382230000000  0.5530180000000 1.0
C      1  0.5215430000000  0.6130980000000  0.5175200000000 1.0
C      1  0.4789050000000  0.4131770000000  0.5055530000000 1.0
C      1  0.5827240000000  0.4287080000000  0.5383910000000 1.0
C      1  0.5512510000000  0.4891400000000  0.4383510000000 1.0
END
