TITL C-2778431-5191-698 -0.0012209164991396 125000 -321.834867811624 0 0 56 (C1) n - 1
REM
REM in /home/nfs/bkarasulu/CARBON/AIRSS/Generating-Clusters/REBO/Only-C1/SD-CG/HFTN-CG
REM
REM
REM
REM
REM
REM ./C.cell (11c1c37f851c82e70ff6c80c92926a4b)
REM
REM compiler GCC version 9.2.1 20190827 (Red Hat 9.2.1-1)
REM options -cpp -mtune=generic -march=x86-64 -g -O0 -fpre-include=/usr/include/finclude/math-vector-fortran.h
REM seed 2016216550 -358484402 1730910816 1042588695 1911126170 217143339 -366757753 -1067363707 367520848 -1293408468 107837273 13699652 -1049721433 -1161836164 1148852781 -1274060151 -1292259387 34937062 -405618921 -1431552329 115389492 -2019134899 -1243562607 1487936924 294870500 1210057282 1898730991 -685902518 510364292 1062076765 826653911 1700457299 1873683996
REM
CELL 1.54180   50.00000   50.00000   50.00000   90.00000   90.00000   90.00000
LATT -1
SFAC C  
C      1  0.4763510000000  0.4503550000000  0.4585510000000 1.0
C      1  0.5785230000000  0.5057840000000  0.4634750000000 1.0
C      1  0.5033040000000  0.4702280000000  0.5667350000000 1.0
C      1  0.5174810000000  0.5510380000000  0.4454210000000 1.0
C      1  0.5174230000000  0.4681020000000  0.4887240000000 1.0
C      1  0.4304180000000  0.4938260000000  0.5121740000000 1.0
C      1  0.4854130000000  0.5216040000000  0.4181010000000 1.0
C      1  0.5018300000000  0.5666430000000  0.5281380000000 1.0
C      1  0.4899240000000  0.5093280000000  0.5319630000000 1.0
C      1  0.5007830000000  0.4386930000000  0.4563160000000 1.0
C      1  0.4791390000000  0.4822800000000  0.5717930000000 1.0
C      1  0.4978450000000  0.5522430000000  0.5522480000000 1.0
C      1  0.5401290000000  0.4745810000000  0.5924470000000 1.0
C      1  0.5624580000000  0.5290750000000  0.4756580000000 1.0
C      1  0.5023610000000  0.5241780000000  0.5524510000000 1.0
C      1  0.5808180000000  0.5097060000000  0.4352510000000 1.0
C      1  0.5665860000000  0.5357120000000  0.5027770000000 1.0
C      1  0.5290760000000  0.4417360000000  0.4611020000000 1.0
C      1  0.5290860000000  0.5168630000000  0.5607290000000 1.0
C      1  0.6042850000000  0.5046730000000  0.4758190000000 1.0
C      1  0.5483270000000  0.5452840000000  0.5223940000000 1.0
C      1  0.5138510000000  0.4864990000000  0.4623890000000 1.0
C      1  0.4783380000000  0.5187820000000  0.4441040000000 1.0
C      1  0.5248090000000  0.5590340000000  0.5123700000000 1.0
C      1  0.4329480000000  0.4701690000000  0.4962550000000 1.0
C      1  0.5408090000000  0.5421390000000  0.4643230000000 1.0
C      1  0.4947590000000  0.4435770000000  0.4962800000000 1.0
C      1  0.5223840000000  0.4476030000000  0.5158500000000 1.0
C      1  0.4328210000000  0.5192620000000  0.4983710000000 1.0
C      1  0.4574260000000  0.4716780000000  0.4748150000000 1.0
C      1  0.4750050000000  0.4940600000000  0.4849760000000 1.0
C      1  0.5347690000000  0.4951020000000  0.5770530000000 1.0
C      1  0.4729410000000  0.3989790000000  0.4871620000000 1.0
C      1  0.5395500000000  0.4350060000000  0.4891350000000 1.0
C      1  0.4406810000000  0.5435480000000  0.5119740000000 1.0
C      1  0.4329700000000  0.5484060000000  0.5376500000000 1.0
C      1  0.4485060000000  0.4423370000000  0.4882010000000 1.0
C      1  0.5210600000000  0.5581660000000  0.4842200000000 1.0
C      1  0.4855820000000  0.4620330000000  0.5213440000000 1.0
C      1  0.5511360000000  0.4652840000000  0.4922050000000 1.0
C      1  0.5382730000000  0.4697900000000  0.4546650000000 1.0
C      1  0.4361600000000  0.5205860000000  0.4700700000000 1.0
C      1  0.4782630000000  0.5752140000000  0.5149110000000 1.0
C      1  0.4558290000000  0.4892530000000  0.5597950000000 1.0
C      1  0.4916890000000  0.5024890000000  0.4631660000000 1.0
C      1  0.5635540000000  0.4798630000000  0.4689190000000 1.0
C      1  0.4385280000000  0.4926020000000  0.5393290000000 1.0
C      1  0.4713010000000  0.4262710000000  0.4900490000000 1.0
C      1  0.4831100000000  0.4910700000000  0.5120600000000 1.0
C      1  0.4599170000000  0.5607650000000  0.4987260000000 1.0
C      1  0.4686320000000  0.5564260000000  0.4717060000000 1.0
C      1  0.4612330000000  0.4524980000000  0.5325470000000 1.0
C      1  0.4574610000000  0.5343870000000  0.4570550000000 1.0
C      1  0.5485250000000  0.5330920000000  0.5479830000000 1.0
C      1  0.5098670000000  0.4597010000000  0.5428370000000 1.0
C      1  0.4957540000000  0.5623960000000  0.4652400000000 1.0
END
