TITL C-2778436-5916-989 0.213136710265483 125000 -585.188092342133 0 0 99 (C1) n - 1
REM
REM in /home/nfs/bkarasulu/CARBON/AIRSS/Generating-Clusters/REBO/Only-C1/SD-CG/HFTN-CG
REM
REM
REM
REM
REM
REM ./C.cell (11c1c37f851c82e70ff6c80c92926a4b)
REM
REM compiler GCC version 9.2.1 20190827 (Red Hat 9.2.1-1)
REM options -cpp -mtune=generic -march=x86-64 -g -O0 -fpre-include=/usr/include/finclude/math-vector-fortran.h
REM seed -254730511 -909316228 47754960 -1627387993 758174815 317250025 -1890227547 1777597259 -791494025 -1321507943 -543714449 -12058419 451626856 -734742851 1241970055 1199203831 -797654003 711210502 -630494544 -330000486 43325455 415985600 116290919 976301272 -1436303331 -1291789602 1797848975 202389230 -990815584 -370018172 -67408372 1506467490 1028056050
REM
CELL 1.54180   50.00000   50.00000   50.00000   90.00000   90.00000   90.00000
LATT -1
SFAC C  
C      1  0.5594190000000  0.4411090000000  0.5284720000000 1.0
C      1  0.5537270000000  0.5185840000000  0.5181870000000 1.0
C      1  0.4526660000000  0.4601840000000  0.4259400000000 1.0
C      1  0.4420880000000  0.5017210000000  0.5632050000000 1.0
C      1  0.5597580000000  0.5144760000000  0.4592040000000 1.0
C      1  0.5211080000000  0.4808160000000  0.4569620000000 1.0
C      1  0.5150260000000  0.4977330000000  0.5841740000000 1.0
C      1  0.5690920000000  0.4752800000000  0.4565390000000 1.0
C      1  0.5803170000000  0.4991030000000  0.4732550000000 1.0
C      1  0.4771950000000  0.4604360000000  0.4096250000000 1.0
C      1  0.4487810000000  0.5618840000000  0.4656960000000 1.0
C      1  0.5136450000000  0.4371830000000  0.5544740000000 1.0
C      1  0.4289370000000  0.4552750000000  0.5056630000000 1.0
C      1  0.5144140000000  0.5136590000000  0.4155920000000 1.0
C      1  0.4812280000000  0.5493760000000  0.4311950000000 1.0
C      1  0.5216670000000  0.4760880000000  0.5295660000000 1.0
C      1  0.4993330000000  0.4481640000000  0.4498370000000 1.0
C      1  0.4718480000000  0.5001440000000  0.4558760000000 1.0
C      1  0.5590030000000  0.4546710000000  0.4733690000000 1.0
C      1  0.5684060000000  0.5269860000000  0.5672190000000 1.0
C      1  0.4967710000000  0.4645090000000  0.4755230000000 1.0
C      1  0.5043410000000  0.5846620000000  0.4726130000000 1.0
C      1  0.4670910000000  0.4991270000000  0.5757870000000 1.0
C      1  0.4177770000000  0.4776720000000  0.4924330000000 1.0
C      1  0.4910710000000  0.5399460000000  0.5663030000000 1.0
C      1  0.5492060000000  0.4687840000000  0.5015800000000 1.0
C      1  0.5226110000000  0.4840340000000  0.4245730000000 1.0
C      1  0.5007580000000  0.5571910000000  0.4524890000000 1.0
C      1  0.5273050000000  0.5039360000000  0.5303120000000 1.0
C      1  0.5440040000000  0.4915830000000  0.5866810000000 1.0
C      1  0.5588580000000  0.5159310000000  0.4297070000000 1.0
C      1  0.4839930000000  0.4476070000000  0.5603590000000 1.0
C      1  0.5357640000000  0.5621130000000  0.5692350000000 1.0
C      1  0.5404300000000  0.4565900000000  0.5476360000000 1.0
C      1  0.4194230000000  0.4791300000000  0.4638970000000 1.0
C      1  0.5101340000000  0.5283500000000  0.5304080000000 1.0
C      1  0.5458810000000  0.4358400000000  0.4985480000000 1.0
C      1  0.4317700000000  0.4915430000000  0.5401720000000 1.0
C      1  0.5467930000000  0.5629140000000  0.4606410000000 1.0
C      1  0.4242810000000  0.5508460000000  0.5305250000000 1.0
C      1  0.4263260000000  0.4561410000000  0.4471620000000 1.0
C      1  0.4677780000000  0.5068190000000  0.4246280000000 1.0
C      1  0.5872310000000  0.5385450000000  0.5116570000000 1.0
C      1  0.4538220000000  0.4372370000000  0.4552740000000 1.0
C      1  0.5648810000000  0.4990090000000  0.5690900000000 1.0
C      1  0.5694840000000  0.4820050000000  0.5193630000000 1.0
C      1  0.5329220000000  0.5857390000000  0.4784850000000 1.0
C      1  0.4707430000000  0.5390740000000  0.5449260000000 1.0
C      1  0.5549050000000  0.4849230000000  0.4327930000000 1.0
C      1  0.4543230000000  0.4899200000000  0.5027160000000 1.0
C      1  0.5815400000000  0.5062050000000  0.5026750000000 1.0
C      1  0.5132820000000  0.5455660000000  0.5067910000000 1.0
C      1  0.5271280000000  0.4858220000000  0.4903740000000 1.0
C      1  0.5520470000000  0.5435260000000  0.5844430000000 1.0
C      1  0.4871350000000  0.4805390000000  0.5604760000000 1.0
C      1  0.5501680000000  0.5646700000000  0.5438750000000 1.0
C      1  0.5123170000000  0.4177860000000  0.5329300000000 1.0
C      1  0.5048680000000  0.4590320000000  0.5128430000000 1.0
C      1  0.5653880000000  0.5760470000000  0.4826520000000 1.0
C      1  0.4520690000000  0.5184830000000  0.4736030000000 1.0
C      1  0.4619970000000  0.4199960000000  0.5270560000000 1.0
C      1  0.4720280000000  0.5185840000000  0.5247710000000 1.0
C      1  0.5846690000000  0.5605900000000  0.4958730000000 1.0
C      1  0.4761850000000  0.4202950000000  0.4667780000000 1.0
C      1  0.4268250000000  0.4442860000000  0.5541360000000 1.0
C      1  0.5168580000000  0.4684930000000  0.5685320000000 1.0
C      1  0.4533690000000  0.5489130000000  0.4398140000000 1.0
C      1  0.4631690000000  0.4252020000000  0.5517830000000 1.0
C      1  0.5157790000000  0.4284710000000  0.5024040000000 1.0
C      1  0.4225580000000  0.5342810000000  0.5077850000000 1.0
C      1  0.4769230000000  0.4408180000000  0.5062320000000 1.0
C      1  0.5069520000000  0.5639110000000  0.5689710000000 1.0
C      1  0.5684760000000  0.5389060000000  0.5386690000000 1.0
C      1  0.4246790000000  0.5042380000000  0.5114680000000 1.0
C      1  0.4476160000000  0.4394140000000  0.4928230000000 1.0
C      1  0.4732130000000  0.5738280000000  0.4760100000000 1.0
C      1  0.4429850000000  0.5213490000000  0.4347970000000 1.0
C      1  0.4690830000000  0.4595040000000  0.5320940000000 1.0
C      1  0.4621270000000  0.4701980000000  0.4566020000000 1.0
C      1  0.4378100000000  0.4616090000000  0.5348350000000 1.0
C      1  0.4839080000000  0.4890760000000  0.5295740000000 1.0
C      1  0.4885350000000  0.5247660000000  0.4165780000000 1.0
C      1  0.5326760000000  0.5151040000000  0.4734290000000 1.0
C      1  0.4350270000000  0.5429240000000  0.4843340000000 1.0
C      1  0.5011510000000  0.4608680000000  0.4240440000000 1.0
C      1  0.4287900000000  0.5040700000000  0.4548770000000 1.0
C      1  0.5294460000000  0.5515620000000  0.4422630000000 1.0
C      1  0.4927350000000  0.5146980000000  0.5802880000000 1.0
C      1  0.4470430000000  0.5546130000000  0.5453810000000 1.0
C      1  0.4983920000000  0.4995680000000  0.5019850000000 1.0
C      1  0.4924690000000  0.5487900000000  0.4848420000000 1.0
C      1  0.4950240000000  0.5883360000000  0.5663820000000 1.0
C      1  0.4763210000000  0.5240780000000  0.4930410000000 1.0
C      1  0.5354650000000  0.5314000000000  0.4230740000000 1.0
C      1  0.4966850000000  0.4177590000000  0.4802730000000 1.0
C      1  0.5707170000000  0.4835560000000  0.5461920000000 1.0
C      1  0.5373920000000  0.5340330000000  0.4965680000000 1.0
C      1  0.5002160000000  0.5042900000000  0.4680250000000 1.0
C      1  0.4704310000000  0.4753520000000  0.4871880000000 1.0
END
