TITL C-2778427-5640-601 0.00289394508256594 125000 -900.601810122736 0 0 157 (C1) n - 1
REM
REM in /home/nfs/bkarasulu/CARBON/AIRSS/Generating-Clusters/REBO/Only-C1/SD-CG/HFTN-CG
REM
REM
REM
REM
REM
REM ./C.cell (11c1c37f851c82e70ff6c80c92926a4b)
REM
REM compiler GCC version 9.2.1 20190827 (Red Hat 9.2.1-1)
REM options -cpp -mtune=generic -march=x86-64 -g -O0 -fpre-include=/usr/include/finclude/math-vector-fortran.h
REM seed 484208263 -988860312 1487279629 468373565 -1578466632 845205344 -1302423082 -1335121219 -840823676 800785840 -1997188160 474997265 -1835025281 1359335377 -1873887436 -849776027 -1924900961 -1663728205 -1010070105 -563542175 641816103 -1084634354 1014465986 -1789686656 848825143 -413129382 549947512 931034539 1812803897 1495517689 63727704 1515966437 1628657703
REM
CELL 1.54180   50.00000   50.00000   50.00000   90.00000   90.00000   90.00000
LATT -1
SFAC C  
C      1  0.5889960000000  0.4959180000000  0.5007610000000 1.0
C      1  0.5746300000000  0.5387110000000  0.4541390000000 1.0
C      1  0.4680770000000  0.4776740000000  0.5929850000000 1.0
C      1  0.5795150000000  0.5170510000000  0.5168040000000 1.0
C      1  0.5170740000000  0.4712340000000  0.5206310000000 1.0
C      1  0.5074540000000  0.5257070000000  0.5896350000000 1.0
C      1  0.5096150000000  0.5230480000000  0.4644270000000 1.0
C      1  0.5899580000000  0.4419020000000  0.4999840000000 1.0
C      1  0.4619750000000  0.5085310000000  0.4458640000000 1.0
C      1  0.4049920000000  0.5033380000000  0.5033630000000 1.0
C      1  0.5273340000000  0.4295910000000  0.5459720000000 1.0
C      1  0.5326750000000  0.5141450000000  0.5344290000000 1.0
C      1  0.5502180000000  0.4580170000000  0.4872370000000 1.0
C      1  0.5359990000000  0.4319040000000  0.5775100000000 1.0
C      1  0.4119660000000  0.5297440000000  0.5182680000000 1.0
C      1  0.5583000000000  0.4595650000000  0.4480970000000 1.0
C      1  0.4558510000000  0.5412300000000  0.5211640000000 1.0
C      1  0.5662530000000  0.5113110000000  0.4709000000000 1.0
C      1  0.4098120000000  0.4654050000000  0.5309830000000 1.0
C      1  0.5421520000000  0.4590720000000  0.5489550000000 1.0
C      1  0.5213920000000  0.4854590000000  0.3956570000000 1.0
C      1  0.5738980000000  0.4255990000000  0.5234980000000 1.0
C      1  0.5748420000000  0.4484880000000  0.5485260000000 1.0
C      1  0.4403600000000  0.5612010000000  0.5519850000000 1.0
C      1  0.4987570000000  0.4684070000000  0.4413100000000 1.0
C      1  0.4680160000000  0.4615620000000  0.5484090000000 1.0
C      1  0.5668290000000  0.5743450000000  0.5451890000000 1.0
C      1  0.4624390000000  0.5595180000000  0.4330470000000 1.0
C      1  0.5714680000000  0.5153520000000  0.5439230000000 1.0
C      1  0.4912750000000  0.5422730000000  0.5641180000000 1.0
C      1  0.5487070000000  0.5056590000000  0.4944530000000 1.0
C      1  0.5761670000000  0.4797430000000  0.4281030000000 1.0
C      1  0.4988860000000  0.4285570000000  0.5364800000000 1.0
C      1  0.4747120000000  0.4498110000000  0.4572100000000 1.0
C      1  0.4392050000000  0.5483030000000  0.4717400000000 1.0
C      1  0.5090170000000  0.4584490000000  0.4901490000000 1.0
C      1  0.5150940000000  0.4591910000000  0.4122750000000 1.0
C      1  0.5789280000000  0.4743890000000  0.4788120000000 1.0
C      1  0.4697970000000  0.5363950000000  0.5972080000000 1.0
C      1  0.5249790000000  0.5714920000000  0.5114070000000 1.0
C      1  0.5071420000000  0.4311930000000  0.4302460000000 1.0
C      1  0.4855000000000  0.4793790000000  0.4817750000000 1.0
C      1  0.4839240000000  0.4054400000000  0.5076690000000 1.0
C      1  0.4957050000000  0.4896320000000  0.5781490000000 1.0
C      1  0.4965340000000  0.5282700000000  0.5273310000000 1.0
C      1  0.4027070000000  0.4750160000000  0.5056380000000 1.0
C      1  0.5627660000000  0.5423400000000  0.5012790000000 1.0
C      1  0.5476360000000  0.4583030000000  0.5885620000000 1.0
C      1  0.5950410000000  0.5504960000000  0.5019750000000 1.0
C      1  0.5141030000000  0.4450170000000  0.4606480000000 1.0
C      1  0.4811760000000  0.4442440000000  0.5150590000000 1.0
C      1  0.4725680000000  0.4739970000000  0.5107900000000 1.0
C      1  0.4436130000000  0.4103380000000  0.4608180000000 1.0
C      1  0.5176260000000  0.4020050000000  0.5132600000000 1.0
C      1  0.5035420000000  0.5015560000000  0.5471650000000 1.0
C      1  0.4380960000000  0.4847580000000  0.5826600000000 1.0
C      1  0.4645290000000  0.3923960000000  0.4600090000000 1.0
C      1  0.4821710000000  0.5068680000000  0.6029730000000 1.0
C      1  0.5168730000000  0.4109340000000  0.4813600000000 1.0
C      1  0.4375710000000  0.4538810000000  0.4193220000000 1.0
C      1  0.4251280000000  0.5316260000000  0.5444900000000 1.0
C      1  0.4735760000000  0.5858200000000  0.4414340000000 1.0
C      1  0.5380110000000  0.4808810000000  0.4653000000000 1.0
C      1  0.4626830000000  0.4123990000000  0.5341580000000 1.0
C      1  0.5442870000000  0.5668990000000  0.4918930000000 1.0
C      1  0.5309290000000  0.5064200000000  0.5855560000000 1.0
C      1  0.4028410000000  0.5578330000000  0.4356680000000 1.0
C      1  0.4830980000000  0.5580130000000  0.5174370000000 1.0
C      1  0.4819420000000  0.4301400000000  0.4840100000000 1.0
C      1  0.4314770000000  0.5570370000000  0.4397370000000 1.0
C      1  0.5315880000000  0.5314340000000  0.5049090000000 1.0
C      1  0.5070010000000  0.5343600000000  0.4343280000000 1.0
C      1  0.5404650000000  0.5798960000000  0.5547450000000 1.0
C      1  0.4824730000000  0.5242810000000  0.4966300000000 1.0
C      1  0.4376010000000  0.5867370000000  0.5308820000000 1.0
C      1  0.4837500000000  0.4460000000000  0.4102280000000 1.0
C      1  0.4602580000000  0.4617160000000  0.4041890000000 1.0
C      1  0.5735130000000  0.4768840000000  0.5320750000000 1.0
C      1  0.4716080000000  0.6013970000000  0.4913970000000 1.0
C      1  0.4482260000000  0.4369980000000  0.4450600000000 1.0
C      1  0.4412390000000  0.4668580000000  0.4705960000000 1.0
C      1  0.5448270000000  0.5776280000000  0.4657830000000 1.0
C      1  0.4960660000000  0.5752520000000  0.4840460000000 1.0
C      1  0.4576740000000  0.4931980000000  0.5222930000000 1.0
C      1  0.5235110000000  0.4347190000000  0.5057430000000 1.0
C      1  0.5415860000000  0.4310610000000  0.4705380000000 1.0
C      1  0.5597100000000  0.5166120000000  0.5881180000000 1.0
C      1  0.5471840000000  0.4873920000000  0.5212210000000 1.0
C      1  0.5308780000000  0.6160300000000  0.4803040000000 1.0
C      1  0.4676480000000  0.5805060000000  0.5565230000000 1.0
C      1  0.4503670000000  0.4303130000000  0.5085190000000 1.0
C      1  0.4880660000000  0.5804730000000  0.5359600000000 1.0
C      1  0.4769660000000  0.5328570000000  0.4436760000000 1.0
C      1  0.5257820000000  0.5159270000000  0.4012000000000 1.0
C      1  0.5403420000000  0.4378900000000  0.4313140000000 1.0
C      1  0.5458150000000  0.4096690000000  0.5291000000000 1.0
C      1  0.4184590000000  0.5243190000000  0.4585650000000 1.0
C      1  0.4529940000000  0.5148440000000  0.5768350000000 1.0
C      1  0.4807910000000  0.4480190000000  0.5834520000000 1.0
C      1  0.4888720000000  0.4019520000000  0.4684280000000 1.0
C      1  0.4696520000000  0.5538390000000  0.4858580000000 1.0
C      1  0.5479100000000  0.5394110000000  0.5493380000000 1.0
C      1  0.4585470000000  0.6031840000000  0.5217800000000 1.0
C      1  0.5575880000000  0.5456500000000  0.4334130000000 1.0
C      1  0.4194140000000  0.4551520000000  0.4481360000000 1.0
C      1  0.5007200000000  0.5011370000000  0.4395300000000 1.0
C      1  0.4366370000000  0.4350950000000  0.4830930000000 1.0
C      1  0.4411690000000  0.4478710000000  0.5326560000000 1.0
C      1  0.5187750000000  0.5515560000000  0.5366800000000 1.0
C      1  0.4212100000000  0.5783340000000  0.5101800000000 1.0
C      1  0.5116030000000  0.4969670000000  0.5058770000000 1.0
C      1  0.4962030000000  0.5577290000000  0.5942880000000 1.0
C      1  0.5736010000000  0.4978710000000  0.5689670000000 1.0
C      1  0.5106340000000  0.4530920000000  0.5736910000000 1.0
C      1  0.5144910000000  0.4955140000000  0.4764430000000 1.0
C      1  0.5196170000000  0.5607080000000  0.5696160000000 1.0
C      1  0.4346620000000  0.5140590000000  0.4353250000000 1.0
C      1  0.5709400000000  0.4692570000000  0.5745040000000 1.0
C      1  0.5448800000000  0.5221140000000  0.4220900000000 1.0
C      1  0.4635800000000  0.4297720000000  0.5603310000000 1.0
C      1  0.4524230000000  0.5155600000000  0.5015570000000 1.0
C      1  0.5370400000000  0.4844850000000  0.5598180000000 1.0
C      1  0.4109630000000  0.4579620000000  0.4813930000000 1.0
C      1  0.5542560000000  0.4989330000000  0.4414630000000 1.0
C      1  0.5492360000000  0.4476880000000  0.5179290000000 1.0
C      1  0.4689600000000  0.5210350000000  0.3980610000000 1.0
C      1  0.4295130000000  0.5500990000000  0.5014430000000 1.0
C      1  0.4404770000000  0.5035680000000  0.5477170000000 1.0
C      1  0.4738690000000  0.5998180000000  0.4616210000000 1.0
C      1  0.5806710000000  0.4419800000000  0.4675130000000 1.0
C      1  0.5849400000000  0.5652430000000  0.5266650000000 1.0
C      1  0.4188680000000  0.4810340000000  0.5547220000000 1.0
C      1  0.4487090000000  0.5347520000000  0.4155640000000 1.0
C      1  0.4945980000000  0.4931590000000  0.4102150000000 1.0
C      1  0.4190070000000  0.4397400000000  0.5568640000000 1.0
C      1  0.5600520000000  0.5430430000000  0.5784160000000 1.0
C      1  0.5969180000000  0.4674370000000  0.5134350000000 1.0
C      1  0.5088320000000  0.5556550000000  0.4115760000000 1.0
C      1  0.5631110000000  0.4201790000000  0.4491120000000 1.0
C      1  0.4274320000000  0.5127650000000  0.4857720000000 1.0
C      1  0.5226710000000  0.5912820000000  0.5348190000000 1.0
C      1  0.3913000000000  0.5373520000000  0.4487780000000 1.0
C      1  0.4974060000000  0.5308700000000  0.3958230000000 1.0
C      1  0.4669860000000  0.4895800000000  0.3999670000000 1.0
C      1  0.4909530000000  0.3956430000000  0.5398300000000 1.0
C      1  0.5950350000000  0.4751360000000  0.4506390000000 1.0
C      1  0.4434440000000  0.4547750000000  0.5716580000000 1.0
C      1  0.4651210000000  0.4827000000000  0.4600760000000 1.0
C      1  0.5221800000000  0.4765530000000  0.5954820000000 1.0
C      1  0.4635830000000  0.5364210000000  0.5540330000000 1.0
C      1  0.4926620000000  0.6077670000000  0.5183470000000 1.0
C      1  0.5932540000000  0.5313910000000  0.4781630000000 1.0
C      1  0.5449690000000  0.5710820000000  0.4379660000000 1.0
C      1  0.5251960000000  0.5771120000000  0.4185650000000 1.0
C      1  0.4983600000000  0.4676850000000  0.5455060000000 1.0
C      1  0.5082760000000  0.5437620000000  0.4879600000000 1.0
C      1  0.5112260000000  0.6027970000000  0.4911040000000 1.0
END
