TITL C-2778427-5640-649 0.000237910647693487 125000 -219.277590155815 0 0 39 (C1) n - 1
REM
REM in /home/nfs/bkarasulu/CARBON/AIRSS/Generating-Clusters/REBO/Only-C1/SD-CG/HFTN-CG
REM
REM
REM
REM
REM
REM ./C.cell (11c1c37f851c82e70ff6c80c92926a4b)
REM
REM compiler GCC version 9.2.1 20190827 (Red Hat 9.2.1-1)
REM options -cpp -mtune=generic -march=x86-64 -g -O0 -fpre-include=/usr/include/finclude/math-vector-fortran.h
REM seed -20997112 -1490289157 -1993894800 -889608043 -1159307191 905176652 -1117964870 -1058481664 1183069401 1994367112 1075366848 720569186 -1211419731 633621951 -1371432785 -1310663670 1631505168 -1268229278 51187958 -1436645699 -1438658340 -314666024 -689177626 -1530453594 -2014095492 1602231463 868211776 1959565068 -1900553978 -1540850190 1617569036 583547896 -1661871746
REM
CELL 1.54180   50.00000   50.00000   50.00000   90.00000   90.00000   90.00000
LATT -1
SFAC C  
C      1  0.5053870000000  0.4838070000000  0.5049870000000 1.0
C      1  0.4227490000000  0.5108570000000  0.4734800000000 1.0
C      1  0.4855980000000  0.4630380000000  0.4895810000000 1.0
C      1  0.4483880000000  0.4973020000000  0.4831270000000 1.0
C      1  0.5132270000000  0.5599470000000  0.4870190000000 1.0
C      1  0.5305730000000  0.4755460000000  0.4660550000000 1.0
C      1  0.5267340000000  0.5487420000000  0.5363780000000 1.0
C      1  0.4975930000000  0.4782780000000  0.4628930000000 1.0
C      1  0.5299430000000  0.4971510000000  0.5508180000000 1.0
C      1  0.5400650000000  0.4556520000000  0.4859080000000 1.0
C      1  0.4254590000000  0.5309060000000  0.4548990000000 1.0
C      1  0.4785090000000  0.5298540000000  0.5457600000000 1.0
C      1  0.4932620000000  0.5084840000000  0.4475180000000 1.0
C      1  0.5290860000000  0.4477940000000  0.5326450000000 1.0
C      1  0.5526430000000  0.5275530000000  0.5290030000000 1.0
C      1  0.5513740000000  0.5416150000000  0.5595250000000 1.0
C      1  0.4512020000000  0.5363720000000  0.4452050000000 1.0
C      1  0.5240610000000  0.5028320000000  0.4464210000000 1.0
C      1  0.5236770000000  0.4355880000000  0.5041000000000 1.0
C      1  0.4945880000000  0.5570240000000  0.4706180000000 1.0
C      1  0.4544250000000  0.4695520000000  0.4959080000000 1.0
C      1  0.4724590000000  0.5095000000000  0.5273190000000 1.0
C      1  0.4639240000000  0.4610880000000  0.5231240000000 1.0
C      1  0.5274110000000  0.5211830000000  0.5650010000000 1.0
C      1  0.5020200000000  0.5125330000000  0.5007060000000 1.0
C      1  0.5473600000000  0.4659490000000  0.5140700000000 1.0
C      1  0.5209920000000  0.5380530000000  0.5070640000000 1.0
C      1  0.5441840000000  0.5058470000000  0.4717360000000 1.0
C      1  0.5446580000000  0.5163770000000  0.4985830000000 1.0
C      1  0.4699430000000  0.5205540000000  0.4288660000000 1.0
C      1  0.4699920000000  0.5175760000000  0.4943240000000 1.0
C      1  0.4793220000000  0.4822620000000  0.5350830000000 1.0
C      1  0.5026740000000  0.5381890000000  0.5567270000000 1.0
C      1  0.4761980000000  0.4350330000000  0.5212310000000 1.0
C      1  0.4772900000000  0.5319920000000  0.4662800000000 1.0
C      1  0.4663120000000  0.4818210000000  0.4600390000000 1.0
C      1  0.5125200000000  0.4755350000000  0.5358860000000 1.0
C      1  0.4956210000000  0.4344050000000  0.4987510000000 1.0
C      1  0.5485780000000  0.4942090000000  0.5233620000000 1.0
END
