TITL C-2778435-5768-679 -0.00159703356019428 125000 -472.036913310005 0 0 81 (C1) n - 1
REM
REM in /home/nfs/bkarasulu/CARBON/AIRSS/Generating-Clusters/REBO/Only-C1/SD-CG/HFTN-CG
REM
REM
REM
REM
REM
REM ./C.cell (11c1c37f851c82e70ff6c80c92926a4b)
REM
REM compiler GCC version 9.2.1 20190827 (Red Hat 9.2.1-1)
REM options -cpp -mtune=generic -march=x86-64 -g -O0 -fpre-include=/usr/include/finclude/math-vector-fortran.h
REM seed -805383200 1090722544 918705560 -897217694 1238514053 -206180216 -978352703 828176796 -399274814 566273321 -1176449919 -959152692 1902191512 -1558594885 964202507 333927286 469647067 -26728620 -1592267924 -1965637039 -888112208 -1573752590 -1228497260 730186027 -367978775 934833750 -666919092 -483615048 -837257961 2039555514 -1886188220 1678933099 -1578095005
REM
CELL 1.54180   50.00000   50.00000   50.00000   90.00000   90.00000   90.00000
LATT -1
SFAC C  
C      1  0.4722350000000  0.5579500000000  0.5487560000000 1.0
C      1  0.5446320000000  0.5028500000000  0.4452450000000 1.0
C      1  0.4797340000000  0.4792570000000  0.5716230000000 1.0
C      1  0.5200150000000  0.5639810000000  0.5128230000000 1.0
C      1  0.4497370000000  0.4863530000000  0.5465330000000 1.0
C      1  0.4806490000000  0.5837420000000  0.5301930000000 1.0
C      1  0.5196310000000  0.4947720000000  0.5594630000000 1.0
C      1  0.4942580000000  0.4901420000000  0.4726910000000 1.0
C      1  0.4828990000000  0.5523300000000  0.4617110000000 1.0
C      1  0.5281180000000  0.5578450000000  0.5423970000000 1.0
C      1  0.5527070000000  0.5225760000000  0.4991240000000 1.0
C      1  0.4736360000000  0.5654590000000  0.4856880000000 1.0
C      1  0.4470430000000  0.5554900000000  0.4987950000000 1.0
C      1  0.4463420000000  0.5125850000000  0.4540830000000 1.0
C      1  0.5722620000000  0.4974400000000  0.5514040000000 1.0
C      1  0.4400650000000  0.5136920000000  0.5737250000000 1.0
C      1  0.4760530000000  0.5044980000000  0.5348990000000 1.0
C      1  0.4524120000000  0.4893200000000  0.5072130000000 1.0
C      1  0.4847500000000  0.5320400000000  0.5672830000000 1.0
C      1  0.6038950000000  0.4983000000000  0.5159420000000 1.0
C      1  0.4368160000000  0.5125450000000  0.5193360000000 1.0
C      1  0.5227110000000  0.4396720000000  0.4696320000000 1.0
C      1  0.4749780000000  0.4213040000000  0.4365840000000 1.0
C      1  0.4568590000000  0.4388540000000  0.5392390000000 1.0
C      1  0.4309900000000  0.5299300000000  0.4950840000000 1.0
C      1  0.5792170000000  0.4680410000000  0.4593860000000 1.0
C      1  0.5304340000000  0.4325870000000  0.5264760000000 1.0
C      1  0.4944260000000  0.4252680000000  0.5111160000000 1.0
C      1  0.5075990000000  0.4186810000000  0.5409870000000 1.0
C      1  0.5438230000000  0.5361160000000  0.4509440000000 1.0
C      1  0.4760150000000  0.5279550000000  0.4990900000000 1.0
C      1  0.5500200000000  0.4704640000000  0.4465270000000 1.0
C      1  0.5974880000000  0.4610120000000  0.4794810000000 1.0
C      1  0.5091220000000  0.5468630000000  0.5594890000000 1.0
C      1  0.4368870000000  0.4557590000000  0.4607230000000 1.0
C      1  0.5269110000000  0.4550380000000  0.4468140000000 1.0
C      1  0.5004760000000  0.4666380000000  0.4292990000000 1.0
C      1  0.4977690000000  0.4975880000000  0.4285900000000 1.0
C      1  0.5416560000000  0.5891350000000  0.4906290000000 1.0
C      1  0.5069500000000  0.5085690000000  0.5378140000000 1.0
C      1  0.4739980000000  0.5150390000000  0.4730860000000 1.0
C      1  0.4463390000000  0.5637390000000  0.5270990000000 1.0
C      1  0.5113320000000  0.5436560000000  0.4574250000000 1.0
C      1  0.4220090000000  0.5016130000000  0.5482110000000 1.0
C      1  0.5138300000000  0.5100360000000  0.4529150000000 1.0
C      1  0.4188810000000  0.4810620000000  0.4751270000000 1.0
C      1  0.4727700000000  0.4493400000000  0.4262840000000 1.0
C      1  0.5675760000000  0.5223930000000  0.4712770000000 1.0
C      1  0.5701160000000  0.5363610000000  0.5218680000000 1.0
C      1  0.4838660000000  0.4338930000000  0.4623810000000 1.0
C      1  0.4496550000000  0.4634350000000  0.4356670000000 1.0
C      1  0.4927100000000  0.5762340000000  0.5063970000000 1.0
C      1  0.5768560000000  0.4978440000000  0.4551670000000 1.0
C      1  0.5616690000000  0.5548280000000  0.4734910000000 1.0
C      1  0.4583930000000  0.4603380000000  0.5575120000000 1.0
C      1  0.4495580000000  0.4435240000000  0.4901730000000 1.0
C      1  0.4239670000000  0.5108050000000  0.4732510000000 1.0
C      1  0.5242580000000  0.5378520000000  0.4945650000000 1.0
C      1  0.6069790000000  0.4768840000000  0.4996100000000 1.0
C      1  0.4783790000000  0.5412970000000  0.5194970000000 1.0
C      1  0.4846770000000  0.4896010000000  0.5054100000000 1.0
C      1  0.4357970000000  0.4695410000000  0.4976770000000 1.0
C      1  0.4727320000000  0.5096160000000  0.4245240000000 1.0
C      1  0.5295830000000  0.5648290000000  0.4742700000000 1.0
C      1  0.5013950000000  0.4326570000000  0.5641070000000 1.0
C      1  0.5481570000000  0.4845920000000  0.5535950000000 1.0
C      1  0.5013560000000  0.4188530000000  0.4812950000000 1.0
C      1  0.5237080000000  0.5095130000000  0.5104940000000 1.0
C      1  0.4520620000000  0.5258160000000  0.5450890000000 1.0
C      1  0.5539480000000  0.5619090000000  0.5058380000000 1.0
C      1  0.4489250000000  0.4910570000000  0.4300170000000 1.0
C      1  0.5276500000000  0.4632360000000  0.5367830000000 1.0
C      1  0.5187760000000  0.4488430000000  0.5006200000000 1.0
C      1  0.4649230000000  0.4327630000000  0.5124760000000 1.0
C      1  0.4898990000000  0.4620420000000  0.4600240000000 1.0
C      1  0.4666920000000  0.5357030000000  0.4434050000000 1.0
C      1  0.5549020000000  0.5530240000000  0.5448050000000 1.0
C      1  0.5147910000000  0.4786710000000  0.5104380000000 1.0
C      1  0.4715020000000  0.5075750000000  0.5746610000000 1.0
C      1  0.5863400000000  0.5128220000000  0.5324470000000 1.0
C      1  0.5068210000000  0.4645240000000  0.5641900000000 1.0
END
