TITL C-2778424-3986-1289 -0.00290343543923085 125000 -1030.39266768617 0 0 174 (C1) n - 1
REM
REM in /home/nfs/bkarasulu/CARBON/AIRSS/Generating-Clusters/REBO/Only-C1/SD-CG/HFTN-CG
REM
REM
REM
REM
REM
REM ./C.cell (11c1c37f851c82e70ff6c80c92926a4b)
REM
REM compiler GCC version 9.2.1 20190827 (Red Hat 9.2.1-1)
REM options -cpp -mtune=generic -march=x86-64 -g -O0 -fpre-include=/usr/include/finclude/math-vector-fortran.h
REM seed 1075479117 1166635015 1566929196 -27116888 2110048342 1912024635 -2144621358 222528227 1034885113 -425728985 99405546 -1474593738 1857408380 1281417972 -1779681164 -1071262950 -1190122072 -932605616 1215360403 -2079308570 693233468 -1012833345 -2133267414 1490561920 896426900 -1519494405 1187711080 -703581164 -1888660309 -1228753284 967250248 770439928 -596813787
REM
CELL 1.54180   50.00000   50.00000   50.00000   90.00000   90.00000   90.00000
LATT -1
SFAC C  
C      1  0.5137260000000  0.4312480000000  0.4078720000000 1.0
C      1  0.5605600000000  0.5671630000000  0.4453670000000 1.0
C      1  0.5281930000000  0.5369020000000  0.5003400000000 1.0
C      1  0.5653130000000  0.4562670000000  0.5804820000000 1.0
C      1  0.4224440000000  0.5610340000000  0.4506770000000 1.0
C      1  0.5862300000000  0.4263450000000  0.5453530000000 1.0
C      1  0.4881230000000  0.4415980000000  0.6228460000000 1.0
C      1  0.4901360000000  0.4597380000000  0.6009790000000 1.0
C      1  0.4990720000000  0.4449910000000  0.4420570000000 1.0
C      1  0.3960320000000  0.5362130000000  0.5247570000000 1.0
C      1  0.4788320000000  0.5500610000000  0.5940670000000 1.0
C      1  0.5485840000000  0.5987530000000  0.5273360000000 1.0
C      1  0.5967800000000  0.5198070000000  0.4953310000000 1.0
C      1  0.4539600000000  0.4998700000000  0.5986380000000 1.0
C      1  0.5142320000000  0.5516600000000  0.4210620000000 1.0
C      1  0.4810600000000  0.6091010000000  0.5333060000000 1.0
C      1  0.4691380000000  0.4150450000000  0.5636020000000 1.0
C      1  0.5550470000000  0.4242960000000  0.5086160000000 1.0
C      1  0.5007940000000  0.5700790000000  0.5534940000000 1.0
C      1  0.5348640000000  0.5908210000000  0.5513700000000 1.0
C      1  0.5441310000000  0.4386890000000  0.4211960000000 1.0
C      1  0.5365990000000  0.5883080000000  0.4808590000000 1.0
C      1  0.4506270000000  0.4998840000000  0.4770410000000 1.0
C      1  0.4696430000000  0.4598070000000  0.4104910000000 1.0
C      1  0.5885990000000  0.5071260000000  0.4462570000000 1.0
C      1  0.5739730000000  0.4711170000000  0.4553950000000 1.0
C      1  0.4582470000000  0.4124530000000  0.4711460000000 1.0
C      1  0.4968110000000  0.4167130000000  0.4306670000000 1.0
C      1  0.4588260000000  0.4951320000000  0.5593100000000 1.0
C      1  0.5236680000000  0.4356810000000  0.5154860000000 1.0
C      1  0.4726420000000  0.5157020000000  0.3967580000000 1.0
C      1  0.5135530000000  0.4960130000000  0.5620470000000 1.0
C      1  0.5197950000000  0.4675980000000  0.5952590000000 1.0
C      1  0.5121230000000  0.5109890000000  0.4851210000000 1.0
C      1  0.4528120000000  0.5696160000000  0.5596510000000 1.0
C      1  0.6052240000000  0.5317700000000  0.5237200000000 1.0
C      1  0.5171560000000  0.4978300000000  0.5306830000000 1.0
C      1  0.5645700000000  0.4844970000000  0.5896040000000 1.0
C      1  0.4891840000000  0.3779270000000  0.5319010000000 1.0
C      1  0.4722090000000  0.4514450000000  0.4591770000000 1.0
C      1  0.5046950000000  0.5282610000000  0.4332870000000 1.0
C      1  0.4323550000000  0.4673140000000  0.4911730000000 1.0
C      1  0.5325620000000  0.4727350000000  0.5577250000000 1.0
C      1  0.4324050000000  0.5280050000000  0.4836540000000 1.0
C      1  0.5385220000000  0.5615550000000  0.5649880000000 1.0
C      1  0.4370170000000  0.4810380000000  0.5802420000000 1.0
C      1  0.4063070000000  0.5441720000000  0.4698790000000 1.0
C      1  0.6004610000000  0.4932660000000  0.4753760000000 1.0
C      1  0.5665920000000  0.5141020000000  0.4791330000000 1.0
C      1  0.4447470000000  0.4474800000000  0.4303980000000 1.0
C      1  0.3946390000000  0.4894570000000  0.4651890000000 1.0
C      1  0.5040640000000  0.5180970000000  0.3946060000000 1.0
C      1  0.4642040000000  0.5345810000000  0.4905420000000 1.0
C      1  0.5245430000000  0.4828350000000  0.4778190000000 1.0
C      1  0.4445120000000  0.4176800000000  0.4398650000000 1.0
C      1  0.4499720000000  0.5180320000000  0.5175690000000 1.0
C      1  0.4146300000000  0.5510680000000  0.5016500000000 1.0
C      1  0.5286170000000  0.5699180000000  0.4377510000000 1.0
C      1  0.4377710000000  0.5448560000000  0.4322610000000 1.0
C      1  0.5563260000000  0.4844520000000  0.4761710000000 1.0
C      1  0.4891080000000  0.5764770000000  0.5008730000000 1.0
C      1  0.5519460000000  0.5257240000000  0.4196340000000 1.0
C      1  0.4324760000000  0.4372680000000  0.5352000000000 1.0
C      1  0.4374940000000  0.4662730000000  0.5236920000000 1.0
C      1  0.4432130000000  0.4855830000000  0.4503960000000 1.0
C      1  0.4978610000000  0.3865270000000  0.5080060000000 1.0
C      1  0.4119720000000  0.4903500000000  0.4404100000000 1.0
C      1  0.5294580000000  0.5213170000000  0.5605650000000 1.0
C      1  0.5713040000000  0.4120670000000  0.5312700000000 1.0
C      1  0.5077660000000  0.3913920000000  0.4772400000000 1.0
C      1  0.5388500000000  0.4785080000000  0.3928770000000 1.0
C      1  0.4598730000000  0.5353180000000  0.3809030000000 1.0
C      1  0.4332330000000  0.5484180000000  0.5565200000000 1.0
C      1  0.4663130000000  0.5516280000000  0.4367090000000 1.0
C      1  0.4747340000000  0.4038520000000  0.4425470000000 1.0
C      1  0.4355770000000  0.4303990000000  0.5062120000000 1.0
C      1  0.5965500000000  0.4711570000000  0.5013130000000 1.0
C      1  0.5965470000000  0.4779950000000  0.5322990000000 1.0
C      1  0.4976790000000  0.4545830000000  0.4004180000000 1.0
C      1  0.4345550000000  0.4768060000000  0.4186510000000 1.0
C      1  0.5774090000000  0.5386170000000  0.4376700000000 1.0
C      1  0.3991830000000  0.5107590000000  0.5072710000000 1.0
C      1  0.5296590000000  0.6063480000000  0.5064130000000 1.0
C      1  0.5906540000000  0.5436710000000  0.5522090000000 1.0
C      1  0.4400760000000  0.5800200000000  0.4919520000000 1.0
C      1  0.4903820000000  0.5796680000000  0.4721410000000 1.0
C      1  0.4584060000000  0.5268310000000  0.5889150000000 1.0
C      1  0.5897570000000  0.5064430000000  0.5391310000000 1.0
C      1  0.5553950000000  0.4393840000000  0.4698920000000 1.0
C      1  0.5344490000000  0.4918750000000  0.4311780000000 1.0
C      1  0.5376970000000  0.4091860000000  0.4890260000000 1.0
C      1  0.4632000000000  0.5672840000000  0.5133980000000 1.0
C      1  0.5731070000000  0.4825050000000  0.4282940000000 1.0
C      1  0.3919490000000  0.4806610000000  0.5134520000000 1.0
C      1  0.5371640000000  0.4906980000000  0.5998070000000 1.0
C      1  0.5160870000000  0.5813100000000  0.4606080000000 1.0
C      1  0.5739020000000  0.4461560000000  0.4958070000000 1.0
C      1  0.5706970000000  0.5470640000000  0.4829140000000 1.0
C      1  0.4819170000000  0.4548790000000  0.5091060000000 1.0
C      1  0.6006010000000  0.4611840000000  0.4634480000000 1.0
C      1  0.4286530000000  0.4957890000000  0.5098850000000 1.0
C      1  0.4869450000000  0.4536950000000  0.5429510000000 1.0
C      1  0.5298300000000  0.5444210000000  0.5930980000000 1.0
C      1  0.4437780000000  0.4524350000000  0.5804780000000 1.0
C      1  0.4986030000000  0.4811550000000  0.4583960000000 1.0
C      1  0.5726710000000  0.5077490000000  0.5671770000000 1.0
C      1  0.4407610000000  0.5791370000000  0.4646390000000 1.0
C      1  0.5028410000000  0.6138850000000  0.5124650000000 1.0
C      1  0.5577380000000  0.4667130000000  0.4106590000000 1.0
C      1  0.4664240000000  0.4845780000000  0.5030920000000 1.0
C      1  0.3927990000000  0.4685940000000  0.4865330000000 1.0
C      1  0.5226080000000  0.4601390000000  0.4342300000000 1.0
C      1  0.4981460000000  0.5099040000000  0.6042090000000 1.0
C      1  0.5445010000000  0.5431460000000  0.4628670000000 1.0
C      1  0.5833110000000  0.4556360000000  0.5530900000000 1.0
C      1  0.5037910000000  0.5385360000000  0.6028840000000 1.0
C      1  0.4191800000000  0.4925170000000  0.5561900000000 1.0
C      1  0.5099850000000  0.5742400000000  0.5207660000000 1.0
C      1  0.5026280000000  0.4975280000000  0.4287680000000 1.0
C      1  0.4717620000000  0.5394960000000  0.5292950000000 1.0
C      1  0.5644790000000  0.4760510000000  0.5036740000000 1.0
C      1  0.5357390000000  0.5669160000000  0.5054030000000 1.0
C      1  0.5492760000000  0.5132950000000  0.4499270000000 1.0
C      1  0.5653550000000  0.5889790000000  0.4689650000000 1.0
C      1  0.5488960000000  0.4231740000000  0.4479260000000 1.0
C      1  0.5720710000000  0.5859640000000  0.5160140000000 1.0
C      1  0.5146780000000  0.5341140000000  0.4631310000000 1.0
C      1  0.5113670000000  0.4794050000000  0.4011690000000 1.0
C      1  0.5024520000000  0.5268920000000  0.5205080000000 1.0
C      1  0.4780030000000  0.4877350000000  0.6083810000000 1.0
C      1  0.4565940000000  0.4871980000000  0.3969300000000 1.0
C      1  0.5290100000000  0.5150940000000  0.4045220000000 1.0
C      1  0.5181040000000  0.4466420000000  0.5439970000000 1.0
C      1  0.5632470000000  0.5391720000000  0.5720160000000 1.0
C      1  0.4252890000000  0.5778170000000  0.5203900000000 1.0
C      1  0.4661820000000  0.4270620000000  0.4974460000000 1.0
C      1  0.5169700000000  0.5437570000000  0.5456250000000 1.0
C      1  0.4678100000000  0.5765060000000  0.4544450000000 1.0
C      1  0.4423040000000  0.4485390000000  0.4649710000000 1.0
C      1  0.4111490000000  0.5575570000000  0.5407050000000 1.0
C      1  0.5108650000000  0.4258610000000  0.4752130000000 1.0
C      1  0.4833360000000  0.5410870000000  0.4643020000000 1.0
C      1  0.4100060000000  0.4414730000000  0.4867130000000 1.0
C      1  0.4868100000000  0.5036550000000  0.5729890000000 1.0
C      1  0.4971930000000  0.4183050000000  0.5046840000000 1.0
C      1  0.5476520000000  0.5200880000000  0.5958370000000 1.0
C      1  0.5821530000000  0.5951890000000  0.4901760000000 1.0
C      1  0.4791340000000  0.3918220000000  0.5530430000000 1.0
C      1  0.5610210000000  0.4811930000000  0.5501000000000 1.0
C      1  0.4703280000000  0.5142830000000  0.4539890000000 1.0
C      1  0.4249710000000  0.4190430000000  0.4675330000000 1.0
C      1  0.5418040000000  0.5183900000000  0.5214760000000 1.0
C      1  0.5338640000000  0.3991620000000  0.4567420000000 1.0
C      1  0.5348950000000  0.4535750000000  0.4894600000000 1.0
C      1  0.4642850000000  0.4773040000000  0.5364060000000 1.0
C      1  0.4962830000000  0.4546830000000  0.4804510000000 1.0
C      1  0.5057920000000  0.6009970000000  0.5501350000000 1.0
C      1  0.4835130000000  0.5097270000000  0.4975390000000 1.0
C      1  0.4536470000000  0.5900490000000  0.5350240000000 1.0
C      1  0.4743210000000  0.5314370000000  0.5591680000000 1.0
C      1  0.4018050000000  0.4784990000000  0.5405230000000 1.0
C      1  0.4767810000000  0.4466240000000  0.5746990000000 1.0
C      1  0.5479390000000  0.4869650000000  0.5236890000000 1.0
C      1  0.3939370000000  0.5155850000000  0.4777180000000 1.0
C      1  0.5970920000000  0.5348460000000  0.4647480000000 1.0
C      1  0.4775320000000  0.5685790000000  0.5728570000000 1.0
C      1  0.5661350000000  0.5555500000000  0.5119380000000 1.0
C      1  0.4712910000000  0.4759410000000  0.4386930000000 1.0
C      1  0.4608610000000  0.5127250000000  0.4269820000000 1.0
C      1  0.4305160000000  0.5156310000000  0.4272480000000 1.0
C      1  0.4381290000000  0.5191420000000  0.5487340000000 1.0
C      1  0.5666020000000  0.5313880000000  0.5315520000000 1.0
C      1  0.5336680000000  0.4449810000000  0.5746910000000 1.0
C      1  0.4432590000000  0.4306800000000  0.5601610000000 1.0
END
