TITL C-2778430-5657-909 0.00732680083584389 125000 -572.215582235087 0 0 99 (C1) n - 1
REM
REM in /home/nfs/bkarasulu/CARBON/AIRSS/Generating-Clusters/REBO/Only-C1/SD-CG/HFTN-CG
REM
REM
REM
REM
REM
REM ./C.cell (11c1c37f851c82e70ff6c80c92926a4b)
REM
REM compiler GCC version 9.2.1 20190827 (Red Hat 9.2.1-1)
REM options -cpp -mtune=generic -march=x86-64 -g -O0 -fpre-include=/usr/include/finclude/math-vector-fortran.h
REM seed -1288197282 -1451971956 1251496018 -775338421 -265770464 2123544161 -443488894 -1691443071 -1996821548 1780400746 325935268 -1058614811 1249508880 1688257587 -1057744412 -925238671 -1681976044 -1604284623 1976551669 -1368598521 -1942970045 291773684 324189910 46957918 1308010963 -12250018 2082080481 771818206 376833622 1884399105 -1970915162 213183867 590917753
REM
CELL 1.54180   50.00000   50.00000   50.00000   90.00000   90.00000   90.00000
LATT -1
SFAC C  
C      1  0.4645400000000  0.5366930000000  0.4214710000000 1.0
C      1  0.5201000000000  0.5614360000000  0.5111030000000 1.0
C      1  0.4867400000000  0.5322570000000  0.4861040000000 1.0
C      1  0.4571640000000  0.4303840000000  0.4969560000000 1.0
C      1  0.4714480000000  0.5040160000000  0.5176780000000 1.0
C      1  0.4827980000000  0.5597990000000  0.4189990000000 1.0
C      1  0.4803030000000  0.5749020000000  0.4968300000000 1.0
C      1  0.5070720000000  0.5000180000000  0.4267380000000 1.0
C      1  0.4628410000000  0.4731540000000  0.5147710000000 1.0
C      1  0.5514650000000  0.5323550000000  0.4773470000000 1.0
C      1  0.5005190000000  0.5782730000000  0.5309250000000 1.0
C      1  0.5286920000000  0.5655690000000  0.4169170000000 1.0
C      1  0.5049710000000  0.5620820000000  0.4023480000000 1.0
C      1  0.5342460000000  0.5737350000000  0.5364020000000 1.0
C      1  0.4489910000000  0.4590540000000  0.4919420000000 1.0
C      1  0.5128900000000  0.4099500000000  0.4727320000000 1.0
C      1  0.4958210000000  0.4309100000000  0.5733060000000 1.0
C      1  0.5306590000000  0.5222200000000  0.5338250000000 1.0
C      1  0.4401920000000  0.5336670000000  0.5726720000000 1.0
C      1  0.5311280000000  0.4949360000000  0.5405340000000 1.0
C      1  0.5643660000000  0.4558920000000  0.5282860000000 1.0
C      1  0.5773430000000  0.4819220000000  0.4816980000000 1.0
C      1  0.4491050000000  0.5262900000000  0.4743980000000 1.0
C      1  0.4621950000000  0.4597120000000  0.5420270000000 1.0
C      1  0.5235830000000  0.4708620000000  0.4209530000000 1.0
C      1  0.5108950000000  0.4899320000000  0.4582150000000 1.0
C      1  0.5230230000000  0.5666030000000  0.4442020000000 1.0
C      1  0.4670890000000  0.5808110000000  0.5250360000000 1.0
C      1  0.5423680000000  0.4507850000000  0.4420210000000 1.0
C      1  0.5310430000000  0.4758480000000  0.5190410000000 1.0
C      1  0.4292240000000  0.5347120000000  0.5464300000000 1.0
C      1  0.5402480000000  0.4507320000000  0.4760150000000 1.0
C      1  0.4178140000000  0.4871020000000  0.5207890000000 1.0
C      1  0.5609230000000  0.4726600000000  0.5544910000000 1.0
C      1  0.4302870000000  0.4747150000000  0.4771220000000 1.0
C      1  0.4822500000000  0.5084540000000  0.5717900000000 1.0
C      1  0.4588890000000  0.4801630000000  0.4326730000000 1.0
C      1  0.5055150000000  0.5373830000000  0.5395170000000 1.0
C      1  0.4765540000000  0.4598220000000  0.4483440000000 1.0
C      1  0.5535140000000  0.5555960000000  0.5509280000000 1.0
C      1  0.5393310000000  0.4188790000000  0.4781200000000 1.0
C      1  0.4595330000000  0.5187760000000  0.5857300000000 1.0
C      1  0.4944250000000  0.4838030000000  0.5056980000000 1.0
C      1  0.4435810000000  0.5420680000000  0.4448710000000 1.0
C      1  0.5055260000000  0.5469460000000  0.4643840000000 1.0
C      1  0.4187240000000  0.5101510000000  0.5370760000000 1.0
C      1  0.5566990000000  0.4760590000000  0.4279080000000 1.0
C      1  0.4328220000000  0.4845860000000  0.4509490000000 1.0
C      1  0.4425800000000  0.5566160000000  0.5239940000000 1.0
C      1  0.5692100000000  0.4953860000000  0.4513580000000 1.0
C      1  0.5150760000000  0.4613280000000  0.4587570000000 1.0
C      1  0.5899570000000  0.4441380000000  0.5266320000000 1.0
C      1  0.5401480000000  0.4368440000000  0.5203330000000 1.0
C      1  0.4695520000000  0.5058880000000  0.4836800000000 1.0
C      1  0.5056000000000  0.4568750000000  0.5210870000000 1.0
C      1  0.4785550000000  0.5056090000000  0.4214000000000 1.0
C      1  0.4791690000000  0.5172270000000  0.5420920000000 1.0
C      1  0.5695840000000  0.4242020000000  0.4810590000000 1.0
C      1  0.4218650000000  0.5159180000000  0.4474440000000 1.0
C      1  0.4442110000000  0.5649730000000  0.4680460000000 1.0
C      1  0.5106140000000  0.4585010000000  0.5717840000000 1.0
C      1  0.5772670000000  0.5387450000000  0.5441710000000 1.0
C      1  0.5617670000000  0.5006640000000  0.5694490000000 1.0
C      1  0.4438430000000  0.4574390000000  0.5606730000000 1.0
C      1  0.5528610000000  0.4674500000000  0.4980860000000 1.0
C      1  0.5083660000000  0.5541570000000  0.5674110000000 1.0
C      1  0.4380960000000  0.4338900000000  0.5209960000000 1.0
C      1  0.4847760000000  0.4222240000000  0.4882200000000 1.0
C      1  0.4341130000000  0.4130420000000  0.5380770000000 1.0
C      1  0.5484320000000  0.5333270000000  0.5092950000000 1.0
C      1  0.5400180000000  0.5042580000000  0.4351550000000 1.0
C      1  0.4905390000000  0.4518570000000  0.5468490000000 1.0
C      1  0.4835010000000  0.5461550000000  0.5149360000000 1.0
C      1  0.4171720000000  0.5210110000000  0.4810460000000 1.0
C      1  0.4670650000000  0.5467700000000  0.5448830000000 1.0
C      1  0.5766910000000  0.5198680000000  0.4701980000000 1.0
C      1  0.4330480000000  0.5480420000000  0.4953030000000 1.0
C      1  0.5320100000000  0.4064420000000  0.5154640000000 1.0
C      1  0.4903920000000  0.4299420000000  0.4568550000000 1.0
C      1  0.5776730000000  0.5279660000000  0.5171660000000 1.0
C      1  0.5360940000000  0.5142100000000  0.5764090000000 1.0
C      1  0.5172750000000  0.5332310000000  0.4980210000000 1.0
C      1  0.5311140000000  0.4755630000000  0.5658670000000 1.0
C      1  0.4259980000000  0.4598440000000  0.5250140000000 1.0
C      1  0.5886300000000  0.5104810000000  0.4967660000000 1.0
C      1  0.5357300000000  0.5428500000000  0.5705210000000 1.0
C      1  0.4811480000000  0.5613910000000  0.5677970000000 1.0
C      1  0.5089430000000  0.5050890000000  0.5809050000000 1.0
C      1  0.4443100000000  0.5093100000000  0.4225040000000 1.0
C      1  0.4735860000000  0.4814880000000  0.4697690000000 1.0
C      1  0.4700280000000  0.5766430000000  0.4710010000000 1.0
C      1  0.5829350000000  0.4484050000000  0.4801300000000 1.0
C      1  0.5831000000000  0.5188330000000  0.5638750000000 1.0
C      1  0.5112700000000  0.5010030000000  0.4881970000000 1.0
C      1  0.5090170000000  0.4300190000000  0.5069330000000 1.0
C      1  0.4159700000000  0.4932080000000  0.4934830000000 1.0
C      1  0.5294860000000  0.5174420000000  0.4635290000000 1.0
C      1  0.4894670000000  0.5706410000000  0.4483300000000 1.0
C      1  0.5026990000000  0.4469200000000  0.4307400000000 1.0
END
