TITL C-2778429-3646-1450 0.00334094335454153 125000 -368.714221854019 0 0 64 (C1) n - 1
REM
REM in /home/nfs/bkarasulu/CARBON/AIRSS/Generating-Clusters/REBO/Only-C1/SD-CG/HFTN-CG
REM
REM
REM
REM
REM
REM ./C.cell (11c1c37f851c82e70ff6c80c92926a4b)
REM
REM compiler GCC version 9.2.1 20190827 (Red Hat 9.2.1-1)
REM options -cpp -mtune=generic -march=x86-64 -g -O0 -fpre-include=/usr/include/finclude/math-vector-fortran.h
REM seed -1535955697 1865124673 -867310983 1939001452 -1020620391 281174005 451509737 1223089819 -1146555454 -684851407 -592007680 1721804039 561061272 -1607464476 1816077271 2045176347 -556824654 1577282931 2110535970 1333679363 -348964845 1695392551 -2133319464 -436930219 1552269827 1911925754 1551102202 -421934472 1378065393 -1037360696 1455723342 1071466969 -1452491576
REM
CELL 1.54180   50.00000   50.00000   50.00000   90.00000   90.00000   90.00000
LATT -1
SFAC C  
C      1  0.5791420000000  0.4638300000000  0.5171570000000 1.0
C      1  0.4773110000000  0.4786380000000  0.5508040000000 1.0
C      1  0.5390570000000  0.4583540000000  0.5538080000000 1.0
C      1  0.4301150000000  0.4768370000000  0.4899810000000 1.0
C      1  0.5763160000000  0.4909120000000  0.4967700000000 1.0
C      1  0.5608140000000  0.5156430000000  0.4789890000000 1.0
C      1  0.5550450000000  0.4680470000000  0.4593100000000 1.0
C      1  0.4947150000000  0.5201630000000  0.4693780000000 1.0
C      1  0.5556910000000  0.4512310000000  0.5334790000000 1.0
C      1  0.4862870000000  0.5088700000000  0.5220420000000 1.0
C      1  0.5440720000000  0.4964010000000  0.5427050000000 1.0
C      1  0.4828500000000  0.5318740000000  0.5296570000000 1.0
C      1  0.4843350000000  0.5426720000000  0.4912150000000 1.0
C      1  0.5235430000000  0.4326170000000  0.4961500000000 1.0
C      1  0.4395860000000  0.5263530000000  0.5071760000000 1.0
C      1  0.4869600000000  0.4583490000000  0.5075140000000 1.0
C      1  0.4338170000000  0.4960270000000  0.4697170000000 1.0
C      1  0.4569800000000  0.4585340000000  0.4970760000000 1.0
C      1  0.5357320000000  0.5358180000000  0.5365840000000 1.0
C      1  0.4997520000000  0.4850330000000  0.5039340000000 1.0
C      1  0.4705860000000  0.5794130000000  0.5387150000000 1.0
C      1  0.4935620000000  0.4892000000000  0.4733890000000 1.0
C      1  0.4311190000000  0.5968580000000  0.5119350000000 1.0
C      1  0.4450550000000  0.5429280000000  0.4608120000000 1.0
C      1  0.4466350000000  0.5149790000000  0.5310860000000 1.0
C      1  0.5125750000000  0.5289810000000  0.4433930000000 1.0
C      1  0.5591100000000  0.5060950000000  0.5174470000000 1.0
C      1  0.4824510000000  0.5270080000000  0.4319350000000 1.0
C      1  0.5120670000000  0.5176090000000  0.5529370000000 1.0
C      1  0.4669270000000  0.5605100000000  0.4982030000000 1.0
C      1  0.4924250000000  0.5025920000000  0.5651120000000 1.0
C      1  0.4506690000000  0.4852290000000  0.4448160000000 1.0
C      1  0.5251900000000  0.5030370000000  0.5152040000000 1.0
C      1  0.5506080000000  0.5351350000000  0.5057170000000 1.0
C      1  0.5327420000000  0.5592780000000  0.4910540000000 1.0
C      1  0.5298430000000  0.5030180000000  0.4401450000000 1.0
C      1  0.4513190000000  0.4878960000000  0.5381730000000 1.0
C      1  0.4863800000000  0.4754180000000  0.4302360000000 1.0
C      1  0.5113700000000  0.4796130000000  0.4473260000000 1.0
C      1  0.4862480000000  0.4321840000000  0.4605540000000 1.0
C      1  0.4716690000000  0.5013310000000  0.4263520000000 1.0
C      1  0.5158610000000  0.4361970000000  0.4685210000000 1.0
C      1  0.4668500000000  0.4735360000000  0.4708110000000 1.0
C      1  0.4380530000000  0.4703190000000  0.5206800000000 1.0
C      1  0.4693510000000  0.4534340000000  0.4449470000000 1.0
C      1  0.5069340000000  0.4654630000000  0.5621750000000 1.0
C      1  0.5326010000000  0.5327260000000  0.4703870000000 1.0
C      1  0.4900230000000  0.5612550000000  0.5318430000000 1.0
C      1  0.5294700000000  0.4566740000000  0.4545740000000 1.0
C      1  0.4862440000000  0.5067390000000  0.5918940000000 1.0
C      1  0.5420820000000  0.5182140000000  0.5684530000000 1.0
C      1  0.4827080000000  0.4293700000000  0.4897160000000 1.0
C      1  0.4998570000000  0.4293970000000  0.5191080000000 1.0
C      1  0.4368040000000  0.5230900000000  0.4790340000000 1.0
C      1  0.5129090000000  0.5252610000000  0.4971360000000 1.0
C      1  0.5478260000000  0.4431880000000  0.5046510000000 1.0
C      1  0.4875810000000  0.4468570000000  0.5439400000000 1.0
C      1  0.5545210000000  0.4964910000000  0.4537860000000 1.0
C      1  0.4488790000000  0.5788300000000  0.5051240000000 1.0
C      1  0.4640360000000  0.5460930000000  0.4415480000000 1.0
C      1  0.5216620000000  0.5629130000000  0.5381280000000 1.0
C      1  0.5162620000000  0.5726220000000  0.5091820000000 1.0
C      1  0.5679030000000  0.4607330000000  0.4850130000000 1.0
C      1  0.5309140000000  0.4860850000000  0.5713640000000 1.0
END
