TITL C-2778422-5617-2 0.00167870097083731 125000 -638.364748539696 0 0 110 (C1) n - 1
REM
REM in /home/nfs/bkarasulu/CARBON/AIRSS/Generating-Clusters/REBO/Only-C1/SD-CG/HFTN-CG
REM
REM
REM
REM
REM
REM ./C.cell (11c1c37f851c82e70ff6c80c92926a4b)
REM
REM compiler GCC version 9.2.1 20190827 (Red Hat 9.2.1-1)
REM options -cpp -mtune=generic -march=x86-64 -g -O0 -fpre-include=/usr/include/finclude/math-vector-fortran.h
REM seed 1610601329 -1579951004 -74262243 -1134922278 1549091640 -1517202804 1370555057 1584361176 1615329475 51561766 602697286 1976908402 -850188964 -107928126 -1588859824 -634501175 -1198419500 -1463802025 -406102587 707435778 -12503310 1003019712 42343661 2051672812 -1442133219 780832204 -1651051257 1021329537 -2046083600 1825077082 1023636251 -868782865 775133850
REM
CELL 1.54180   50.00000   50.00000   50.00000   90.00000   90.00000   90.00000
LATT -1
SFAC C  
C      1  0.4760390000000  0.4847410000000  0.5683440000000 1.0
C      1  0.4458890000000  0.4739460000000  0.4653040000000 1.0
C      1  0.5455700000000  0.4994140000000  0.5311160000000 1.0
C      1  0.5298290000000  0.4578850000000  0.5653450000000 1.0
C      1  0.5086120000000  0.4523720000000  0.4181790000000 1.0
C      1  0.4876900000000  0.4937830000000  0.4918240000000 1.0
C      1  0.4352540000000  0.5065770000000  0.5566680000000 1.0
C      1  0.4199430000000  0.5271930000000  0.4557160000000 1.0
C      1  0.5439680000000  0.4392510000000  0.5210620000000 1.0
C      1  0.5362320000000  0.5600340000000  0.4439740000000 1.0
C      1  0.5916570000000  0.5174250000000  0.5346300000000 1.0
C      1  0.5732220000000  0.4919950000000  0.5386340000000 1.0
C      1  0.5273370000000  0.5096470000000  0.5821700000000 1.0
C      1  0.5044350000000  0.5531340000000  0.5085780000000 1.0
C      1  0.4340590000000  0.5532270000000  0.4561570000000 1.0
C      1  0.4857690000000  0.4202470000000  0.4554210000000 1.0
C      1  0.5304030000000  0.5369320000000  0.4930270000000 1.0
C      1  0.3992500000000  0.5261190000000  0.5399260000000 1.0
C      1  0.4569120000000  0.4770810000000  0.4398670000000 1.0
C      1  0.5335490000000  0.5817630000000  0.5589000000000 1.0
C      1  0.4578240000000  0.5339650000000  0.4976610000000 1.0
C      1  0.5710750000000  0.5289590000000  0.5595000000000 1.0
C      1  0.5524970000000  0.4709460000000  0.4868670000000 1.0
C      1  0.4576200000000  0.4504430000000  0.5599190000000 1.0
C      1  0.4997880000000  0.4620650000000  0.5269260000000 1.0
C      1  0.5363710000000  0.4662530000000  0.5106840000000 1.0
C      1  0.4794850000000  0.5345670000000  0.5567200000000 1.0
C      1  0.5490530000000  0.4767450000000  0.5848630000000 1.0
C      1  0.4666080000000  0.4606040000000  0.3973060000000 1.0
C      1  0.5841970000000  0.5445910000000  0.4939980000000 1.0
C      1  0.5134280000000  0.5221960000000  0.4146780000000 1.0
C      1  0.4289750000000  0.4540260000000  0.4977020000000 1.0
C      1  0.4993550000000  0.5626370000000  0.4762390000000 1.0
C      1  0.4425740000000  0.5740670000000  0.5027110000000 1.0
C      1  0.4154910000000  0.5695900000000  0.5317430000000 1.0
C      1  0.4335580000000  0.4830160000000  0.5398730000000 1.0
C      1  0.4279160000000  0.5127820000000  0.4322980000000 1.0
C      1  0.5282210000000  0.4983780000000  0.5025640000000 1.0
C      1  0.4159100000000  0.4846400000000  0.4891900000000 1.0
C      1  0.5606970000000  0.4468280000000  0.4710410000000 1.0
C      1  0.4170640000000  0.5141110000000  0.4826310000000 1.0
C      1  0.4892320000000  0.5582130000000  0.4447510000000 1.0
C      1  0.4764280000000  0.5385730000000  0.4768810000000 1.0
C      1  0.5037640000000  0.4390080000000  0.5655750000000 1.0
C      1  0.4623590000000  0.4453550000000  0.4984540000000 1.0
C      1  0.4932610000000  0.4710590000000  0.4026100000000 1.0
C      1  0.4365000000000  0.4353720000000  0.4698100000000 1.0
C      1  0.5233760000000  0.5206980000000  0.4672480000000 1.0
C      1  0.4491940000000  0.5327670000000  0.5404740000000 1.0
C      1  0.5076770000000  0.5318650000000  0.5719720000000 1.0
C      1  0.4996510000000  0.5112910000000  0.5158070000000 1.0
C      1  0.4618350000000  0.4751100000000  0.4901690000000 1.0
C      1  0.5279360000000  0.5739010000000  0.4682740000000 1.0
C      1  0.4296840000000  0.5322440000000  0.5012890000000 1.0
C      1  0.5360540000000  0.5175570000000  0.4361640000000 1.0
C      1  0.4923030000000  0.4753950000000  0.5888610000000 1.0
C      1  0.5594780000000  0.5458600000000  0.4517180000000 1.0
C      1  0.4689110000000  0.5158450000000  0.5193440000000 1.0
C      1  0.4735580000000  0.5216290000000  0.4476110000000 1.0
C      1  0.4821310000000  0.5522490000000  0.5290240000000 1.0
C      1  0.4729120000000  0.4714140000000  0.5393900000000 1.0
C      1  0.5456600000000  0.5810560000000  0.4941070000000 1.0
C      1  0.5678660000000  0.4566010000000  0.4451080000000 1.0
C      1  0.5596570000000  0.5446620000000  0.4804930000000 1.0
C      1  0.5554740000000  0.4997370000000  0.4818650000000 1.0
C      1  0.6046100000000  0.5054550000000  0.4842450000000 1.0
C      1  0.4148410000000  0.4677140000000  0.4628030000000 1.0
C      1  0.5119950000000  0.4367700000000  0.4802200000000 1.0
C      1  0.4314210000000  0.5702180000000  0.4784600000000 1.0
C      1  0.4493080000000  0.4564880000000  0.4198280000000 1.0
C      1  0.5183160000000  0.4832550000000  0.5940400000000 1.0
C      1  0.5119980000000  0.4117210000000  0.5145720000000 1.0
C      1  0.5538130000000  0.4467180000000  0.5474050000000 1.0
C      1  0.4587700000000  0.4176630000000  0.4702400000000 1.0
C      1  0.5606100000000  0.4868930000000  0.4434880000000 1.0
C      1  0.5057480000000  0.4724670000000  0.4635670000000 1.0
C      1  0.5569500000000  0.5065300000000  0.5742680000000 1.0
C      1  0.5815330000000  0.5041610000000  0.4639980000000 1.0
C      1  0.4575700000000  0.4877560000000  0.5181860000000 1.0
C      1  0.5621280000000  0.5695970000000  0.5154890000000 1.0
C      1  0.5126670000000  0.5493430000000  0.4296520000000 1.0
C      1  0.5173260000000  0.5830670000000  0.5055250000000 1.0
C      1  0.4551310000000  0.5039040000000  0.4318990000000 1.0
C      1  0.5012440000000  0.4989440000000  0.4037950000000 1.0
C      1  0.5047720000000  0.4451260000000  0.4477080000000 1.0
C      1  0.4397940000000  0.4509720000000  0.5303650000000 1.0
C      1  0.4289490000000  0.4466720000000  0.4416030000000 1.0
C      1  0.4675540000000  0.4307310000000  0.5273820000000 1.0
C      1  0.4952560000000  0.4087690000000  0.4860500000000 1.0
C      1  0.5545930000000  0.5555970000000  0.5671230000000 1.0
C      1  0.5416340000000  0.5574490000000  0.5364510000000 1.0
C      1  0.4665340000000  0.4113960000000  0.5008400000000 1.0
C      1  0.4600670000000  0.5662990000000  0.5215980000000 1.0
C      1  0.4949880000000  0.5054760000000  0.4642880000000 1.0
C      1  0.5201750000000  0.4807850000000  0.5440720000000 1.0
C      1  0.5995060000000  0.5233510000000  0.5046130000000 1.0
C      1  0.5691380000000  0.5194250000000  0.4368390000000 1.0
C      1  0.5756690000000  0.4658580000000  0.5467400000000 1.0
C      1  0.5117700000000  0.5138110000000  0.5455900000000 1.0
C      1  0.4988180000000  0.4309580000000  0.5355130000000 1.0
C      1  0.4598910000000  0.5519510000000  0.4433650000000 1.0
C      1  0.5411850000000  0.4327130000000  0.4897540000000 1.0
C      1  0.5221680000000  0.5572180000000  0.5779210000000 1.0
C      1  0.4202320000000  0.5419320000000  0.5294890000000 1.0
C      1  0.5297950000000  0.4898000000000  0.4534120000000 1.0
C      1  0.5331180000000  0.5307970000000  0.5252320000000 1.0
C      1  0.4625100000000  0.5093140000000  0.5694840000000 1.0
C      1  0.5803170000000  0.5495300000000  0.5333870000000 1.0
C      1  0.4996580000000  0.4635110000000  0.4959090000000 1.0
C      1  0.4777070000000  0.4402570000000  0.5766340000000 1.0
END
