TITL C-2778430-5657-795 -0.00406343337567765 125000 -698.784208242615 0 0 124 (C1) n - 1
REM
REM in /home/nfs/bkarasulu/CARBON/AIRSS/Generating-Clusters/REBO/Only-C1/SD-CG/HFTN-CG
REM
REM
REM
REM
REM
REM ./C.cell (11c1c37f851c82e70ff6c80c92926a4b)
REM
REM compiler GCC version 9.2.1 20190827 (Red Hat 9.2.1-1)
REM options -cpp -mtune=generic -march=x86-64 -g -O0 -fpre-include=/usr/include/finclude/math-vector-fortran.h
REM seed 908315613 -1749955012 1632231782 218922421 -1614800599 535736696 1066490337 844980135 1613220691 -1310546646 -1223893386 -1900607337 1458001580 446932267 -1361456829 -163453054 -1200697442 257775985 1842995115 1213982598 742989062 -819161810 -1065523244 -1051525765 -1754534254 100653341 -2145507567 1084751508 -1257365859 -953334296 2118459085 364820942 55783425
REM
CELL 1.54180   50.00000   50.00000   50.00000   90.00000   90.00000   90.00000
LATT -1
SFAC C  
C      1  0.5735110000000  0.5225730000000  0.4479840000000 1.0
C      1  0.4767260000000  0.4614410000000  0.4778730000000 1.0
C      1  0.4788190000000  0.4654820000000  0.5778210000000 1.0
C      1  0.5008530000000  0.4105030000000  0.4743610000000 1.0
C      1  0.4684650000000  0.4445090000000  0.4421560000000 1.0
C      1  0.4568210000000  0.4983210000000  0.4253080000000 1.0
C      1  0.4169050000000  0.5471300000000  0.5332730000000 1.0
C      1  0.5347720000000  0.4489320000000  0.5839880000000 1.0
C      1  0.4896540000000  0.5055880000000  0.5390100000000 1.0
C      1  0.4909610000000  0.4721090000000  0.5478790000000 1.0
C      1  0.4537510000000  0.5451370000000  0.5362710000000 1.0
C      1  0.4309320000000  0.5080860000000  0.4177170000000 1.0
C      1  0.5117550000000  0.4957360000000  0.6073030000000 1.0
C      1  0.4915080000000  0.5183170000000  0.5708800000000 1.0
C      1  0.4530950000000  0.4816800000000  0.5813200000000 1.0
C      1  0.5032770000000  0.4490770000000  0.4686530000000 1.0
C      1  0.4251370000000  0.5206620000000  0.5485770000000 1.0
C      1  0.4757140000000  0.5093100000000  0.5071130000000 1.0
C      1  0.5549550000000  0.4363750000000  0.4368910000000 1.0
C      1  0.4774100000000  0.4196730000000  0.5307830000000 1.0
C      1  0.4248030000000  0.4703270000000  0.4687930000000 1.0
C      1  0.4600650000000  0.5351740000000  0.5061420000000 1.0
C      1  0.4907680000000  0.4901140000000  0.4856960000000 1.0
C      1  0.4744450000000  0.5455870000000  0.4359410000000 1.0
C      1  0.4380990000000  0.5731020000000  0.5310860000000 1.0
C      1  0.4914670000000  0.4828480000000  0.4015350000000 1.0
C      1  0.5007940000000  0.5350400000000  0.5244610000000 1.0
C      1  0.5871130000000  0.4867280000000  0.4893400000000 1.0
C      1  0.5740090000000  0.5555440000000  0.4470560000000 1.0
C      1  0.4131270000000  0.4986930000000  0.5598930000000 1.0
C      1  0.5276850000000  0.4288540000000  0.4813060000000 1.0
C      1  0.5777040000000  0.4677620000000  0.5369930000000 1.0
C      1  0.5895690000000  0.5388990000000  0.4974630000000 1.0
C      1  0.5321870000000  0.4803750000000  0.5594820000000 1.0
C      1  0.5664710000000  0.4414400000000  0.5346860000000 1.0
C      1  0.4210650000000  0.5793540000000  0.4749670000000 1.0
C      1  0.5086470000000  0.5073880000000  0.4005980000000 1.0
C      1  0.5661420000000  0.4843090000000  0.5610340000000 1.0
C      1  0.5068990000000  0.5292750000000  0.4912660000000 1.0
C      1  0.4641100000000  0.4828440000000  0.3892610000000 1.0
C      1  0.4311370000000  0.5251940000000  0.4960630000000 1.0
C      1  0.4775720000000  0.5599760000000  0.5647210000000 1.0
C      1  0.5322040000000  0.5693020000000  0.5943080000000 1.0
C      1  0.4559170000000  0.5690980000000  0.5049400000000 1.0
C      1  0.5367400000000  0.5100160000000  0.5691650000000 1.0
C      1  0.5419290000000  0.5845720000000  0.4954310000000 1.0
C      1  0.5362660000000  0.5024950000000  0.4167420000000 1.0
C      1  0.5566450000000  0.4620900000000  0.5850100000000 1.0
C      1  0.4775780000000  0.4345490000000  0.5798850000000 1.0
C      1  0.5417080000000  0.4804970000000  0.4722590000000 1.0
C      1  0.5051250000000  0.6358780000000  0.5530230000000 1.0
C      1  0.4492660000000  0.5807310000000  0.4801630000000 1.0
C      1  0.5557320000000  0.4469170000000  0.4881830000000 1.0
C      1  0.5150210000000  0.5248940000000  0.4291100000000 1.0
C      1  0.4974790000000  0.4269230000000  0.4447280000000 1.0
C      1  0.4596090000000  0.4675150000000  0.4197640000000 1.0
C      1  0.5776310000000  0.4632600000000  0.4725070000000 1.0
C      1  0.5407260000000  0.5362720000000  0.4898170000000 1.0
C      1  0.4100030000000  0.5527550000000  0.4765970000000 1.0
C      1  0.4267300000000  0.4535460000000  0.5491320000000 1.0
C      1  0.5487560000000  0.5848320000000  0.5235620000000 1.0
C      1  0.5150200000000  0.5171230000000  0.5859670000000 1.0
C      1  0.5651460000000  0.4972530000000  0.4316650000000 1.0
C      1  0.4794090000000  0.5291870000000  0.4717920000000 1.0
C      1  0.5279870000000  0.5625940000000  0.5697780000000 1.0
C      1  0.5658470000000  0.5014530000000  0.4713260000000 1.0
C      1  0.4141930000000  0.5119740000000  0.4406690000000 1.0
C      1  0.4243130000000  0.4448520000000  0.4905990000000 1.0
C      1  0.5182760000000  0.4723000000000  0.4550800000000 1.0
C      1  0.4677990000000  0.5720830000000  0.4569470000000 1.0
C      1  0.5233370000000  0.5868770000000  0.5390830000000 1.0
C      1  0.5432060000000  0.4717350000000  0.4241020000000 1.0
C      1  0.5182440000000  0.5691990000000  0.4881350000000 1.0
C      1  0.5529370000000  0.5241830000000  0.5521220000000 1.0
C      1  0.5845520000000  0.5393640000000  0.5245720000000 1.0
C      1  0.4063870000000  0.4891600000000  0.4539080000000 1.0
C      1  0.5078940000000  0.5219130000000  0.3768630000000 1.0
C      1  0.5390140000000  0.5076740000000  0.5012160000000 1.0
C      1  0.5033230000000  0.5604650000000  0.5470070000000 1.0
C      1  0.4079560000000  0.5411110000000  0.5046420000000 1.0
C      1  0.5687090000000  0.4277970000000  0.5099310000000 1.0
C      1  0.5060040000000  0.4660900000000  0.5046910000000 1.0
C      1  0.5271650000000  0.4706250000000  0.5314600000000 1.0
C      1  0.4783150000000  0.5141300000000  0.4407420000000 1.0
C      1  0.4440020000000  0.5538890000000  0.4414970000000 1.0
C      1  0.4584730000000  0.5172680000000  0.5489880000000 1.0
C      1  0.5449440000000  0.4741770000000  0.5038510000000 1.0
C      1  0.4631010000000  0.3834800000000  0.4954210000000 1.0
C      1  0.4817920000000  0.4068740000000  0.4995110000000 1.0
C      1  0.4287300000000  0.4754570000000  0.5667780000000 1.0
C      1  0.5080430000000  0.4779260000000  0.5834060000000 1.0
C      1  0.5478910000000  0.4092610000000  0.4980380000000 1.0
C      1  0.4264590000000  0.5341170000000  0.4575430000000 1.0
C      1  0.4493390000000  0.4466510000000  0.4675280000000 1.0
C      1  0.5248550000000  0.4450550000000  0.4353000000000 1.0
C      1  0.5413590000000  0.4368250000000  0.5468810000000 1.0
C      1  0.4921550000000  0.4597700000000  0.4223620000000 1.0
C      1  0.4233130000000  0.4421650000000  0.5181720000000 1.0
C      1  0.4914620000000  0.4211690000000  0.5575120000000 1.0
C      1  0.5271920000000  0.5520980000000  0.5162870000000 1.0
C      1  0.5421350000000  0.5512710000000  0.5441040000000 1.0
C      1  0.5016360000000  0.4995380000000  0.4571350000000 1.0
C      1  0.5713060000000  0.4656000000000  0.4429200000000 1.0
C      1  0.4507680000000  0.5154270000000  0.4726290000000 1.0
C      1  0.4602020000000  0.5117150000000  0.5817660000000 1.0
C      1  0.4512090000000  0.4373140000000  0.5348450000000 1.0
C      1  0.4727850000000  0.4589610000000  0.5255070000000 1.0
C      1  0.5780500000000  0.5093100000000  0.5393660000000 1.0
C      1  0.5774330000000  0.5770570000000  0.4335860000000 1.0
C      1  0.5668500000000  0.5410020000000  0.4762790000000 1.0
C      1  0.5342070000000  0.5098430000000  0.4606250000000 1.0
C      1  0.5451930000000  0.3820990000000  0.5007060000000 1.0
C      1  0.4919830000000  0.4385830000000  0.5067410000000 1.0
C      1  0.5692770000000  0.5623180000000  0.5328490000000 1.0
C      1  0.4949040000000  0.5597220000000  0.4687640000000 1.0
C      1  0.4625600000000  0.5449960000000  0.5775000000000 1.0
C      1  0.4519000000000  0.4851770000000  0.4775270000000 1.0
C      1  0.5139470000000  0.6121420000000  0.5462700000000 1.0
C      1  0.5144780000000  0.4964830000000  0.5170060000000 1.0
C      1  0.5112720000000  0.4465660000000  0.5591220000000 1.0
C      1  0.4223280000000  0.5101920000000  0.3920880000000 1.0
C      1  0.5160950000000  0.5366180000000  0.4584140000000 1.0
C      1  0.5874810000000  0.4869160000000  0.5167840000000 1.0
C      1  0.4598910000000  0.4802130000000  0.5088270000000 1.0
END
