TITL C-2778433-5640-500 -4.42601586781695e-05 125000 -660.57042923119 0 0 113 (C1) n - 1
REM
REM in /home/nfs/bkarasulu/CARBON/AIRSS/Generating-Clusters/REBO/Only-C1/SD-CG/HFTN-CG
REM
REM
REM
REM
REM
REM ./C.cell (11c1c37f851c82e70ff6c80c92926a4b)
REM
REM compiler GCC version 9.2.1 20190827 (Red Hat 9.2.1-1)
REM options -cpp -mtune=generic -march=x86-64 -g -O0 -fpre-include=/usr/include/finclude/math-vector-fortran.h
REM seed -1051077057 682929415 -1865509655 -1022025925 -832088735 1417197712 -1602338131 959149073 -863399164 890827391 -835472361 -1129179324 1245395426 358415754 -559141219 -1458581303 -2051132448 -820407809 -1409788912 -1580932084 -969162615 -1781310393 947120242 253785556 -1524711622 -807022980 -1638957733 -2116027648 -374002491 1215782321 -2032384824 -953087140 681223369
REM
CELL 1.54180   50.00000   50.00000   50.00000   90.00000   90.00000   90.00000
LATT -1
SFAC C  
C      1  0.4715140000000  0.5162540000000  0.4426890000000 1.0
C      1  0.5252110000000  0.4081480000000  0.5092790000000 1.0
C      1  0.4113560000000  0.4842470000000  0.5557590000000 1.0
C      1  0.4453940000000  0.5598000000000  0.4754450000000 1.0
C      1  0.5935920000000  0.4662250000000  0.4709390000000 1.0
C      1  0.4496110000000  0.4599160000000  0.4343980000000 1.0
C      1  0.4596740000000  0.4297540000000  0.4467330000000 1.0
C      1  0.6001860000000  0.4790340000000  0.4984810000000 1.0
C      1  0.5857930000000  0.5058490000000  0.5241130000000 1.0
C      1  0.4217030000000  0.4872780000000  0.4672230000000 1.0
C      1  0.5208460000000  0.4958040000000  0.5406950000000 1.0
C      1  0.4759720000000  0.4243540000000  0.4963950000000 1.0
C      1  0.4820730000000  0.4578940000000  0.4953640000000 1.0
C      1  0.5336050000000  0.5491390000000  0.4372620000000 1.0
C      1  0.5338170000000  0.5802600000000  0.4437560000000 1.0
C      1  0.5140740000000  0.5419280000000  0.5640580000000 1.0
C      1  0.5240970000000  0.4710520000000  0.4932060000000 1.0
C      1  0.5163650000000  0.5887080000000  0.4632240000000 1.0
C      1  0.5093670000000  0.4353850000000  0.4532760000000 1.0
C      1  0.4958360000000  0.5879700000000  0.5548320000000 1.0
C      1  0.5559010000000  0.4433070000000  0.5092380000000 1.0
C      1  0.5062940000000  0.5391150000000  0.5074330000000 1.0
C      1  0.5266330000000  0.4232020000000  0.5379930000000 1.0
C      1  0.4331680000000  0.5459530000000  0.4217350000000 1.0
C      1  0.4838870000000  0.5540110000000  0.4400160000000 1.0
C      1  0.5486540000000  0.4471430000000  0.5379830000000 1.0
C      1  0.4939730000000  0.5418640000000  0.4767140000000 1.0
C      1  0.5559860000000  0.4972710000000  0.5596240000000 1.0
C      1  0.5313940000000  0.5613520000000  0.4891090000000 1.0
C      1  0.5555010000000  0.5320810000000  0.4230290000000 1.0
C      1  0.5040960000000  0.4672830000000  0.5182600000000 1.0
C      1  0.5395740000000  0.5832180000000  0.5134180000000 1.0
C      1  0.5200160000000  0.4620840000000  0.5438560000000 1.0
C      1  0.5702160000000  0.4683020000000  0.5519310000000 1.0
C      1  0.4794770000000  0.4647680000000  0.4181140000000 1.0
C      1  0.4172080000000  0.5373290000000  0.5448350000000 1.0
C      1  0.4277730000000  0.4608410000000  0.4599180000000 1.0
C      1  0.5278070000000  0.4951570000000  0.5746470000000 1.0
C      1  0.5087770000000  0.4728700000000  0.5920390000000 1.0
C      1  0.4330630000000  0.5084850000000  0.4491320000000 1.0
C      1  0.4521560000000  0.4915330000000  0.4289570000000 1.0
C      1  0.4510460000000  0.5060810000000  0.5696950000000 1.0
C      1  0.4748930000000  0.5921120000000  0.5375110000000 1.0
C      1  0.4337200000000  0.4499120000000  0.5139000000000 1.0
C      1  0.5909560000000  0.4767590000000  0.5307460000000 1.0
C      1  0.5570750000000  0.4716110000000  0.4902630000000 1.0
C      1  0.4966120000000  0.4871550000000  0.4211730000000 1.0
C      1  0.5730470000000  0.4511070000000  0.4477900000000 1.0
C      1  0.4956590000000  0.4631240000000  0.4664550000000 1.0
C      1  0.4343330000000  0.4939600000000  0.4944890000000 1.0
C      1  0.5239190000000  0.5986670000000  0.4902630000000 1.0
C      1  0.5147760000000  0.4791130000000  0.4441290000000 1.0
C      1  0.4727700000000  0.5297290000000  0.5269460000000 1.0
C      1  0.5542660000000  0.4535820000000  0.5769700000000 1.0
C      1  0.4254100000000  0.5563630000000  0.4953620000000 1.0
C      1  0.5367570000000  0.4604930000000  0.4342940000000 1.0
C      1  0.5267950000000  0.4551940000000  0.5738280000000 1.0
C      1  0.5327760000000  0.5090040000000  0.5120630000000 1.0
C      1  0.4914380000000  0.5394090000000  0.5852790000000 1.0
C      1  0.4948560000000  0.4227410000000  0.5464470000000 1.0
C      1  0.5428670000000  0.5114520000000  0.4825220000000 1.0
C      1  0.4753600000000  0.5841050000000  0.5107760000000 1.0
C      1  0.5668230000000  0.5429260000000  0.4883380000000 1.0
C      1  0.4055380000000  0.5084360000000  0.5410190000000 1.0
C      1  0.4994620000000  0.5323290000000  0.5385940000000 1.0
C      1  0.4973530000000  0.5164740000000  0.4584540000000 1.0
C      1  0.5187610000000  0.5716960000000  0.5561340000000 1.0
C      1  0.4768560000000  0.4860740000000  0.5231960000000 1.0
C      1  0.4536870000000  0.4735690000000  0.5041720000000 1.0
C      1  0.5552860000000  0.5060750000000  0.4345220000000 1.0
C      1  0.5576450000000  0.5150820000000  0.5322550000000 1.0
C      1  0.5636790000000  0.4749350000000  0.4255880000000 1.0
C      1  0.5019500000000  0.4928450000000  0.4794260000000 1.0
C      1  0.5051880000000  0.5402160000000  0.4272890000000 1.0
C      1  0.4689060000000  0.5327980000000  0.4931470000000 1.0
C      1  0.4675070000000  0.5753980000000  0.4838680000000 1.0
C      1  0.4324810000000  0.4426040000000  0.4814110000000 1.0
C      1  0.5730200000000  0.5458170000000  0.5120510000000 1.0
C      1  0.4990510000000  0.5057220000000  0.5087960000000 1.0
C      1  0.4533350000000  0.4246770000000  0.4735600000000 1.0
C      1  0.4552990000000  0.4287670000000  0.5222200000000 1.0
C      1  0.4658550000000  0.5339230000000  0.5800300000000 1.0
C      1  0.4543210000000  0.4580980000000  0.5595320000000 1.0
C      1  0.4441960000000  0.5265070000000  0.5154250000000 1.0
C      1  0.5430660000000  0.4365640000000  0.4543770000000 1.0
C      1  0.5703070000000  0.4975110000000  0.4791890000000 1.0
C      1  0.5581560000000  0.5477030000000  0.5411460000000 1.0
C      1  0.4845040000000  0.4400340000000  0.4346730000000 1.0
C      1  0.4953630000000  0.4079380000000  0.5191810000000 1.0
C      1  0.4693030000000  0.4862690000000  0.5536930000000 1.0
C      1  0.4257940000000  0.4624560000000  0.5421160000000 1.0
C      1  0.4155510000000  0.5537190000000  0.5209880000000 1.0
C      1  0.5414200000000  0.5730730000000  0.5393400000000 1.0
C      1  0.5293590000000  0.5057000000000  0.4536250000000 1.0
C      1  0.4399350000000  0.5362450000000  0.5612940000000 1.0
C      1  0.5405640000000  0.5414090000000  0.4677200000000 1.0
C      1  0.5026560000000  0.5726000000000  0.5027520000000 1.0
C      1  0.4968530000000  0.4879840000000  0.5638590000000 1.0
C      1  0.4685540000000  0.4343540000000  0.5474530000000 1.0
C      1  0.5725740000000  0.4425130000000  0.4805390000000 1.0
C      1  0.4505850000000  0.5222840000000  0.4159740000000 1.0
C      1  0.5432740000000  0.5287220000000  0.5651440000000 1.0
C      1  0.4917580000000  0.5721530000000  0.4643380000000 1.0
C      1  0.5935060000000  0.5105730000000  0.4960670000000 1.0
C      1  0.5002320000000  0.5147890000000  0.4149730000000 1.0
C      1  0.4201610000000  0.5101850000000  0.5157380000000 1.0
C      1  0.4534990000000  0.5450460000000  0.4484680000000 1.0
C      1  0.4472420000000  0.5166950000000  0.4759090000000 1.0
C      1  0.4282680000000  0.4881120000000  0.5797200000000 1.0
C      1  0.5809400000000  0.4900860000000  0.4501060000000 1.0
C      1  0.5069850000000  0.4196480000000  0.4828210000000 1.0
C      1  0.5329900000000  0.4401650000000  0.4849170000000 1.0
C      1  0.4394300000000  0.4626570000000  0.5888430000000 1.0
END
