TITL C-2778425-5191-182 -0.00474277126277104 125000 -534.74907342066 0 0 92 (C1) n - 1
REM
REM in /home/nfs/bkarasulu/CARBON/AIRSS/Generating-Clusters/REBO/Only-C1/SD-CG/HFTN-CG
REM
REM
REM
REM
REM
REM ./C.cell (11c1c37f851c82e70ff6c80c92926a4b)
REM
REM compiler GCC version 9.2.1 20190827 (Red Hat 9.2.1-1)
REM options -cpp -mtune=generic -march=x86-64 -g -O0 -fpre-include=/usr/include/finclude/math-vector-fortran.h
REM seed -1185544520 1561146209 -1852341885 -778003300 509460089 -707618310 -1529681718 371144185 -1323570133 -1923168264 -704826608 -590826607 -2091028951 -1820808054 -893813280 1382977889 1221199167 618921482 814814668 -1937360041 354552154 1961152677 -1284690340 2036590028 208900317 -651420285 1681926136 -874676903 -326720558 -940789243 1169500260 2022809510 -292818001
REM
CELL 1.54180   50.00000   50.00000   50.00000   90.00000   90.00000   90.00000
LATT -1
SFAC C  
C      1  0.5423210000000  0.5592930000000  0.4984230000000 1.0
C      1  0.5678400000000  0.5519770000000  0.4870440000000 1.0
C      1  0.4398520000000  0.4509290000000  0.5275460000000 1.0
C      1  0.4186400000000  0.5569240000000  0.5221240000000 1.0
C      1  0.4380730000000  0.5534170000000  0.5434120000000 1.0
C      1  0.4813280000000  0.5504130000000  0.5583760000000 1.0
C      1  0.5474730000000  0.4451220000000  0.4608020000000 1.0
C      1  0.5426940000000  0.5577160000000  0.5269630000000 1.0
C      1  0.4580900000000  0.4524160000000  0.4924980000000 1.0
C      1  0.4828920000000  0.4170150000000  0.4922180000000 1.0
C      1  0.5013940000000  0.5370510000000  0.4196760000000 1.0
C      1  0.5466580000000  0.4441530000000  0.5203640000000 1.0
C      1  0.4628130000000  0.4724860000000  0.4381120000000 1.0
C      1  0.4293140000000  0.4683200000000  0.5012330000000 1.0
C      1  0.4136970000000  0.4987410000000  0.4992930000000 1.0
C      1  0.4912710000000  0.4632120000000  0.5386980000000 1.0
C      1  0.5236740000000  0.4595430000000  0.4929500000000 1.0
C      1  0.5236570000000  0.5285230000000  0.5678490000000 1.0
C      1  0.4751790000000  0.5793770000000  0.4849040000000 1.0
C      1  0.5779840000000  0.4783370000000  0.5343370000000 1.0
C      1  0.5110890000000  0.4854440000000  0.5891030000000 1.0
C      1  0.4329950000000  0.5691040000000  0.4990780000000 1.0
C      1  0.4550010000000  0.4425080000000  0.4628510000000 1.0
C      1  0.4801610000000  0.4358180000000  0.4493200000000 1.0
C      1  0.4862590000000  0.4287050000000  0.5432910000000 1.0
C      1  0.4639280000000  0.5730340000000  0.5397720000000 1.0
C      1  0.5156720000000  0.4214420000000  0.5306260000000 1.0
C      1  0.4168080000000  0.5327750000000  0.4980140000000 1.0
C      1  0.5377110000000  0.4638960000000  0.5537050000000 1.0
C      1  0.4424980000000  0.4949770000000  0.4719020000000 1.0
C      1  0.5639810000000  0.4681520000000  0.4765940000000 1.0
C      1  0.5426520000000  0.5080150000000  0.5107850000000 1.0
C      1  0.4751880000000  0.5165780000000  0.4795160000000 1.0
C      1  0.4974470000000  0.4846050000000  0.4233720000000 1.0
C      1  0.5363320000000  0.5302920000000  0.4578150000000 1.0
C      1  0.5802310000000  0.4850890000000  0.4598400000000 1.0
C      1  0.5025030000000  0.5159870000000  0.5876850000000 1.0
C      1  0.4879420000000  0.4731910000000  0.4610170000000 1.0
C      1  0.5328610000000  0.4217010000000  0.5010960000000 1.0
C      1  0.4772800000000  0.5212700000000  0.5426950000000 1.0
C      1  0.4127270000000  0.4780210000000  0.4731740000000 1.0
C      1  0.5490680000000  0.5083320000000  0.5699010000000 1.0
C      1  0.4584620000000  0.5797390000000  0.5069950000000 1.0
C      1  0.4820880000000  0.5024420000000  0.4514980000000 1.0
C      1  0.5168970000000  0.4694800000000  0.4684890000000 1.0
C      1  0.4952760000000  0.4955380000000  0.5373490000000 1.0
C      1  0.5018060000000  0.4462590000000  0.5115850000000 1.0
C      1  0.4566070000000  0.4975390000000  0.5007700000000 1.0
C      1  0.5177270000000  0.5521650000000  0.4454170000000 1.0
C      1  0.4871000000000  0.4543810000000  0.4258720000000 1.0
C      1  0.5286980000000  0.5184140000000  0.4278030000000 1.0
C      1  0.4850990000000  0.4696560000000  0.4927120000000 1.0
C      1  0.4852720000000  0.5601700000000  0.4387540000000 1.0
C      1  0.5351240000000  0.4913070000000  0.4615040000000 1.0
C      1  0.5363410000000  0.4826520000000  0.5758590000000 1.0
C      1  0.5504020000000  0.5297700000000  0.5351400000000 1.0
C      1  0.4639240000000  0.4836710000000  0.5591290000000 1.0
C      1  0.4625150000000  0.4504280000000  0.5519460000000 1.0
C      1  0.4346820000000  0.5477850000000  0.4731840000000 1.0
C      1  0.5254580000000  0.5115020000000  0.4842010000000 1.0
C      1  0.5097620000000  0.5549020000000  0.5627140000000 1.0
C      1  0.5283650000000  0.4732880000000  0.5234920000000 1.0
C      1  0.4949100000000  0.5350390000000  0.4941080000000 1.0
C      1  0.4465010000000  0.5258280000000  0.5427980000000 1.0
C      1  0.5267320000000  0.4899790000000  0.4227240000000 1.0
C      1  0.5062960000000  0.4928810000000  0.5057350000000 1.0
C      1  0.5654150000000  0.5361030000000  0.4615850000000 1.0
C      1  0.5728930000000  0.5088210000000  0.5487220000000 1.0
C      1  0.4542290000000  0.5222710000000  0.4307780000000 1.0
C      1  0.5863700000000  0.5263010000000  0.4937330000000 1.0
C      1  0.4359160000000  0.4674190000000  0.4526150000000 1.0
C      1  0.4348510000000  0.5140840000000  0.5188720000000 1.0
C      1  0.4630090000000  0.5628740000000  0.4618600000000 1.0
C      1  0.5236820000000  0.5097300000000  0.5392290000000 1.0
C      1  0.5167120000000  0.5525720000000  0.4851850000000 1.0
C      1  0.4871870000000  0.5424810000000  0.5197270000000 1.0
C      1  0.4648180000000  0.4300050000000  0.5172670000000 1.0
C      1  0.5214450000000  0.5704540000000  0.5407720000000 1.0
C      1  0.5822080000000  0.5070090000000  0.5158990000000 1.0
C      1  0.4812670000000  0.4939110000000  0.5774740000000 1.0
C      1  0.5012590000000  0.5733900000000  0.4662350000000 1.0
C      1  0.4487400000000  0.5232100000000  0.4586790000000 1.0
C      1  0.4813350000000  0.5136440000000  0.4206400000000 1.0
C      1  0.5681500000000  0.4510450000000  0.5459330000000 1.0
C      1  0.5849780000000  0.5126210000000  0.4643430000000 1.0
C      1  0.4547900000000  0.4814850000000  0.5289780000000 1.0
C      1  0.4984900000000  0.4236910000000  0.4683160000000 1.0
C      1  0.5279030000000  0.4253920000000  0.4729740000000 1.0
C      1  0.5409780000000  0.4302750000000  0.5512350000000 1.0
C      1  0.5445630000000  0.4702700000000  0.4397480000000 1.0
C      1  0.4951570000000  0.5706510000000  0.5270450000000 1.0
C      1  0.5624340000000  0.4815760000000  0.5044050000000 1.0
END
