TITL C-2778425-5191-171 0.00337230242043198 125000 -1114.31130185524 0 0 188 (C1) n - 1
REM
REM in /home/nfs/bkarasulu/CARBON/AIRSS/Generating-Clusters/REBO/Only-C1/SD-CG/HFTN-CG
REM
REM
REM
REM
REM
REM ./C.cell (11c1c37f851c82e70ff6c80c92926a4b)
REM
REM compiler GCC version 9.2.1 20190827 (Red Hat 9.2.1-1)
REM options -cpp -mtune=generic -march=x86-64 -g -O0 -fpre-include=/usr/include/finclude/math-vector-fortran.h
REM seed -567758045 531842099 1348504891 1702944518 -1438337919 -131688170 2137324674 -1422135279 70885591 1767953313 -2003264160 -233131121 -671587327 1452816073 -639750821 -1023033120 -1204751394 -1088039555 764208867 -628840132 -2119332359 -286196497 1224822333 -1046984378 -1230296822 1370001152 -1612782763 1091234977 1443137032 1210400515 -1801440826 1485601516 -1352619224
REM
CELL 1.54180   50.00000   50.00000   50.00000   90.00000   90.00000   90.00000
LATT -1
SFAC C  
C      1  0.4685200000000  0.5610480000000  0.4323610000000 1.0
C      1  0.4282420000000  0.5710060000000  0.5406530000000 1.0
C      1  0.5256750000000  0.5053780000000  0.4497240000000 1.0
C      1  0.4902800000000  0.5489600000000  0.5951210000000 1.0
C      1  0.4815130000000  0.4719310000000  0.5530340000000 1.0
C      1  0.5379350000000  0.4663030000000  0.4603520000000 1.0
C      1  0.4696360000000  0.4973090000000  0.5362590000000 1.0
C      1  0.4622240000000  0.5323620000000  0.4142320000000 1.0
C      1  0.4597280000000  0.5988570000000  0.4697910000000 1.0
C      1  0.4662820000000  0.4023490000000  0.5083520000000 1.0
C      1  0.4899530000000  0.5650020000000  0.5383640000000 1.0
C      1  0.5537680000000  0.5278350000000  0.5754140000000 1.0
C      1  0.4549010000000  0.4493510000000  0.5169600000000 1.0
C      1  0.4968690000000  0.5064270000000  0.4377250000000 1.0
C      1  0.5408240000000  0.4501440000000  0.4877350000000 1.0
C      1  0.5306480000000  0.4514880000000  0.4338680000000 1.0
C      1  0.5105210000000  0.4561410000000  0.6119680000000 1.0
C      1  0.5198860000000  0.5183380000000  0.4803670000000 1.0
C      1  0.5995730000000  0.4994150000000  0.4340790000000 1.0
C      1  0.5207360000000  0.4634920000000  0.3897740000000 1.0
C      1  0.5398600000000  0.5338890000000  0.6022330000000 1.0
C      1  0.5469940000000  0.4856010000000  0.6030000000000 1.0
C      1  0.4674130000000  0.5842840000000  0.5691000000000 1.0
C      1  0.5558110000000  0.5693390000000  0.4487290000000 1.0
C      1  0.5710310000000  0.5317650000000  0.4055920000000 1.0
C      1  0.4760830000000  0.5347600000000  0.4994660000000 1.0
C      1  0.4470560000000  0.5680190000000  0.4653810000000 1.0
C      1  0.4414760000000  0.4800950000000  0.5829850000000 1.0
C      1  0.4825220000000  0.4673780000000  0.4579740000000 1.0
C      1  0.3955490000000  0.5288620000000  0.5211550000000 1.0
C      1  0.5858040000000  0.4246380000000  0.4942810000000 1.0
C      1  0.4326200000000  0.4252330000000  0.5177510000000 1.0
C      1  0.5206210000000  0.5900130000000  0.5671260000000 1.0
C      1  0.3976840000000  0.4480310000000  0.4721980000000 1.0
C      1  0.5549680000000  0.5955010000000  0.5345520000000 1.0
C      1  0.3998350000000  0.5131330000000  0.4693260000000 1.0
C      1  0.5584300000000  0.5380380000000  0.5055860000000 1.0
C      1  0.4716740000000  0.4399910000000  0.4659320000000 1.0
C      1  0.5255230000000  0.5511980000000  0.4871590000000 1.0
C      1  0.4760980000000  0.4795080000000  0.3754360000000 1.0
C      1  0.5440110000000  0.4239090000000  0.4396920000000 1.0
C      1  0.5941450000000  0.5529330000000  0.5155080000000 1.0
C      1  0.5480410000000  0.4356620000000  0.5870000000000 1.0
C      1  0.5664800000000  0.4742380000000  0.5606770000000 1.0
C      1  0.4002610000000  0.5246650000000  0.5552400000000 1.0
C      1  0.6053310000000  0.4817710000000  0.4876870000000 1.0
C      1  0.4362340000000  0.4052720000000  0.4926220000000 1.0
C      1  0.5395380000000  0.5008980000000  0.4983260000000 1.0
C      1  0.4334760000000  0.5454770000000  0.4212580000000 1.0
C      1  0.5704650000000  0.5775310000000  0.5139050000000 1.0
C      1  0.4618370000000  0.4595600000000  0.5743720000000 1.0
C      1  0.5713540000000  0.5374480000000  0.4781290000000 1.0
C      1  0.4437890000000  0.4530210000000  0.4405480000000 1.0
C      1  0.5224780000000  0.5027990000000  0.3957850000000 1.0
C      1  0.4972570000000  0.5951060000000  0.4856640000000 1.0
C      1  0.5435750000000  0.5517920000000  0.4021820000000 1.0
C      1  0.5399330000000  0.4580700000000  0.6070170000000 1.0
C      1  0.4647230000000  0.4144070000000  0.5568890000000 1.0
C      1  0.4800910000000  0.6103990000000  0.5320970000000 1.0
C      1  0.5378840000000  0.5463820000000  0.4583680000000 1.0
C      1  0.4643800000000  0.4900480000000  0.4707990000000 1.0
C      1  0.5489650000000  0.5942350000000  0.4601520000000 1.0
C      1  0.4637160000000  0.5016610000000  0.4166130000000 1.0
C      1  0.4423790000000  0.5540840000000  0.5612760000000 1.0
C      1  0.5760760000000  0.4933910000000  0.5123070000000 1.0
C      1  0.5711460000000  0.5414810000000  0.5369740000000 1.0
C      1  0.4706450000000  0.5878400000000  0.4400350000000 1.0
C      1  0.5533310000000  0.4196290000000  0.5573070000000 1.0
C      1  0.5485580000000  0.4726580000000  0.3962410000000 1.0
C      1  0.4990550000000  0.5176370000000  0.4093490000000 1.0
C      1  0.5655430000000  0.4915290000000  0.4811430000000 1.0
C      1  0.4374640000000  0.4248040000000  0.4510250000000 1.0
C      1  0.4117940000000  0.4909040000000  0.4491630000000 1.0
C      1  0.4994600000000  0.5084600000000  0.5737530000000 1.0
C      1  0.4263040000000  0.5341430000000  0.5749820000000 1.0
C      1  0.4074710000000  0.5518730000000  0.5001500000000 1.0
C      1  0.4305790000000  0.4696130000000  0.4930410000000 1.0
C      1  0.5844930000000  0.5682290000000  0.4859270000000 1.0
C      1  0.4560660000000  0.4540690000000  0.4146450000000 1.0
C      1  0.4081120000000  0.4363770000000  0.4471570000000 1.0
C      1  0.5708410000000  0.4648880000000  0.4644110000000 1.0
C      1  0.5892060000000  0.5065610000000  0.5551320000000 1.0
C      1  0.5318010000000  0.5329760000000  0.5517400000000 1.0
C      1  0.5832870000000  0.4331260000000  0.4663920000000 1.0
C      1  0.4462160000000  0.5482170000000  0.5220980000000 1.0
C      1  0.5045380000000  0.4008760000000  0.4583910000000 1.0
C      1  0.5135130000000  0.5467920000000  0.4403870000000 1.0
C      1  0.4434700000000  0.5249830000000  0.4990640000000 1.0
C      1  0.5222430000000  0.4226420000000  0.5679860000000 1.0
C      1  0.6058980000000  0.4928960000000  0.4613960000000 1.0
C      1  0.5939290000000  0.4571000000000  0.4961260000000 1.0
C      1  0.4672880000000  0.3933190000000  0.5746050000000 1.0
C      1  0.4478920000000  0.4366240000000  0.5616390000000 1.0
C      1  0.4409440000000  0.5916660000000  0.4969350000000 1.0
C      1  0.3879320000000  0.4965930000000  0.5453030000000 1.0
C      1  0.4231280000000  0.4876440000000  0.5635610000000 1.0
C      1  0.4601320000000  0.6012890000000  0.5522490000000 1.0
C      1  0.5311730000000  0.5064780000000  0.6153340000000 1.0
C      1  0.5511760000000  0.5843180000000  0.5617800000000 1.0
C      1  0.5028090000000  0.5870700000000  0.5157470000000 1.0
C      1  0.5616450000000  0.5573240000000  0.5624600000000 1.0
C      1  0.5392390000000  0.4048310000000  0.4908040000000 1.0
C      1  0.4855620000000  0.4802250000000  0.4956290000000 1.0
C      1  0.4868320000000  0.5436390000000  0.4478150000000 1.0
C      1  0.5727440000000  0.4505840000000  0.5731450000000 1.0
C      1  0.4911790000000  0.4729420000000  0.6236190000000 1.0
C      1  0.6155970000000  0.5301410000000  0.5051140000000 1.0
C      1  0.5724200000000  0.4263710000000  0.4384160000000 1.0
C      1  0.3936950000000  0.4790920000000  0.4752840000000 1.0
C      1  0.4794330000000  0.4377490000000  0.4118750000000 1.0
C      1  0.4190140000000  0.5755620000000  0.5120420000000 1.0
C      1  0.5839740000000  0.4556450000000  0.4345320000000 1.0
C      1  0.5292330000000  0.5266190000000  0.5182380000000 1.0
C      1  0.5104620000000  0.4722980000000  0.4741450000000 1.0
C      1  0.5252270000000  0.4790460000000  0.5142140000000 1.0
C      1  0.4491620000000  0.5342750000000  0.4690340000000 1.0
C      1  0.5614860000000  0.4150670000000  0.5063850000000 1.0
C      1  0.4588880000000  0.4783480000000  0.3986220000000 1.0
C      1  0.4226750000000  0.5072540000000  0.5015090000000 1.0
C      1  0.4130840000000  0.4580150000000  0.5197890000000 1.0
C      1  0.4469690000000  0.4817940000000  0.5202360000000 1.0
C      1  0.4369850000000  0.4762970000000  0.4609420000000 1.0
C      1  0.4874540000000  0.3940940000000  0.4861340000000 1.0
C      1  0.5043360000000  0.4832330000000  0.3747030000000 1.0
C      1  0.4961660000000  0.5696260000000  0.5721720000000 1.0
C      1  0.4821140000000  0.4625940000000  0.5211010000000 1.0
C      1  0.4429720000000  0.5256280000000  0.5973170000000 1.0
C      1  0.4578530000000  0.5621700000000  0.4960970000000 1.0
C      1  0.4711820000000  0.6066170000000  0.5013210000000 1.0
C      1  0.4247980000000  0.5551730000000  0.4454660000000 1.0
C      1  0.6090510000000  0.5017120000000  0.5118470000000 1.0
C      1  0.5636970000000  0.4566930000000  0.5029020000000 1.0
C      1  0.4954800000000  0.5108350000000  0.4979540000000 1.0
C      1  0.5027870000000  0.5472980000000  0.5122970000000 1.0
C      1  0.5001510000000  0.4287360000000  0.4711400000000 1.0
C      1  0.5322340000000  0.4509750000000  0.5267440000000 1.0
C      1  0.5096550000000  0.4784900000000  0.5650520000000 1.0
C      1  0.4784750000000  0.5191470000000  0.5573790000000 1.0
C      1  0.5335500000000  0.4076270000000  0.4616250000000 1.0
C      1  0.4957300000000  0.5953670000000  0.4528250000000 1.0
C      1  0.4692920000000  0.5460300000000  0.5546060000000 1.0
C      1  0.5020690000000  0.4398280000000  0.5209130000000 1.0
C      1  0.5586960000000  0.4952700000000  0.5780700000000 1.0
C      1  0.5233380000000  0.6024830000000  0.4663070000000 1.0
C      1  0.4269140000000  0.4409630000000  0.5440850000000 1.0
C      1  0.5608600000000  0.5096410000000  0.5380950000000 1.0
C      1  0.5093680000000  0.6104840000000  0.5469200000000 1.0
C      1  0.5129630000000  0.4068100000000  0.5392730000000 1.0
C      1  0.4605300000000  0.4079960000000  0.4697150000000 1.0
C      1  0.4816050000000  0.4147880000000  0.5317210000000 1.0
C      1  0.5295880000000  0.4999970000000  0.5477710000000 1.0
C      1  0.4298600000000  0.4982560000000  0.5397950000000 1.0
C      1  0.4745440000000  0.4483180000000  0.5969560000000 1.0
C      1  0.5161530000000  0.4373820000000  0.4928070000000 1.0
C      1  0.5599700000000  0.4704630000000  0.5318540000000 1.0
C      1  0.4855060000000  0.4774020000000  0.4283630000000 1.0
C      1  0.5086600000000  0.5251050000000  0.5974430000000 1.0
C      1  0.4150790000000  0.4328760000000  0.4914350000000 1.0
C      1  0.4262420000000  0.5286840000000  0.5349690000000 1.0
C      1  0.5635710000000  0.5671600000000  0.4224440000000 1.0
C      1  0.4480010000000  0.4425240000000  0.4852160000000 1.0
C      1  0.5912970000000  0.5238080000000  0.4223560000000 1.0
C      1  0.3934840000000  0.4768060000000  0.5310240000000 1.0
C      1  0.4724600000000  0.5172450000000  0.4581500000000 1.0
C      1  0.4898730000000  0.5458820000000  0.3997270000000 1.0
C      1  0.5757790000000  0.4785110000000  0.3947180000000 1.0
C      1  0.4018480000000  0.4504260000000  0.4229620000000 1.0
C      1  0.5287150000000  0.5601420000000  0.5397310000000 1.0
C      1  0.6040710000000  0.5416440000000  0.4785570000000 1.0
C      1  0.5301690000000  0.6049960000000  0.5250320000000 1.0
C      1  0.5145100000000  0.3993170000000  0.5062990000000 1.0
C      1  0.5058790000000  0.4548080000000  0.4148790000000 1.0
C      1  0.5535570000000  0.4280900000000  0.5305330000000 1.0
C      1  0.5399310000000  0.5648260000000  0.5138730000000 1.0
C      1  0.5453390000000  0.5212810000000  0.3888000000000 1.0
C      1  0.4151870000000  0.5387500000000  0.4727640000000 1.0
C      1  0.5109940000000  0.4510950000000  0.5807260000000 1.0
C      1  0.5547790000000  0.5168710000000  0.4611850000000 1.0
C      1  0.5311400000000  0.4844930000000  0.4234170000000 1.0
C      1  0.5157010000000  0.5536750000000  0.4132540000000 1.0
C      1  0.6097620000000  0.4984580000000  0.5428900000000 1.0
C      1  0.5911960000000  0.4768330000000  0.4184790000000 1.0
C      1  0.3915720000000  0.5022890000000  0.5002660000000 1.0
C      1  0.4695040000000  0.4890180000000  0.6204340000000 1.0
C      1  0.5019340000000  0.4965660000000  0.5281160000000 1.0
C      1  0.4644490000000  0.5440210000000  0.6029120000000 1.0
C      1  0.4489330000000  0.4981120000000  0.6031680000000 1.0
C      1  0.4033230000000  0.4779730000000  0.4226930000000 1.0
END
