TITL C-2778422-5617-46 -0.00107005381149818 125000 -392.249470450508 0 0 67 (C1) n - 1
REM
REM in /home/nfs/bkarasulu/CARBON/AIRSS/Generating-Clusters/REBO/Only-C1/SD-CG/HFTN-CG
REM
REM
REM
REM
REM
REM ./C.cell (11c1c37f851c82e70ff6c80c92926a4b)
REM
REM compiler GCC version 9.2.1 20190827 (Red Hat 9.2.1-1)
REM options -cpp -mtune=generic -march=x86-64 -g -O0 -fpre-include=/usr/include/finclude/math-vector-fortran.h
REM seed 2082959551 1708646098 -317937145 2143720806 -1623394576 -1240774236 1479396373 1354956028 176206619 1901770096 277705266 -45470662 -239480762 1994145748 -1467695307 581905035 -247314849 1534418478 951491640 -515120849 403799143 1475082891 1458722027 1242060508 -1864479712 1542150233 1544826954 699407892 952687403 -1825047016 -633079037 965028908 -1483147427
REM
CELL 1.54180   50.00000   50.00000   50.00000   90.00000   90.00000   90.00000
LATT -1
SFAC C  
C      1  0.4665660000000  0.5459930000000  0.4431520000000 1.0
C      1  0.5523090000000  0.4511650000000  0.4527900000000 1.0
C      1  0.5107080000000  0.5212450000000  0.5414230000000 1.0
C      1  0.5789830000000  0.5171280000000  0.4923980000000 1.0
C      1  0.4339620000000  0.4513210000000  0.5445670000000 1.0
C      1  0.4963700000000  0.5545810000000  0.4841900000000 1.0
C      1  0.5056510000000  0.4509210000000  0.4739280000000 1.0
C      1  0.5288060000000  0.5785850000000  0.5266020000000 1.0
C      1  0.4556400000000  0.5023600000000  0.5638670000000 1.0
C      1  0.4802000000000  0.4907190000000  0.4418550000000 1.0
C      1  0.5781390000000  0.5039710000000  0.5175490000000 1.0
C      1  0.4826070000000  0.5669540000000  0.5386910000000 1.0
C      1  0.4903760000000  0.4490590000000  0.5509320000000 1.0
C      1  0.5131860000000  0.5013590000000  0.4606940000000 1.0
C      1  0.4501090000000  0.5358770000000  0.5596390000000 1.0
C      1  0.5294310000000  0.4505470000000  0.5793560000000 1.0
C      1  0.4462740000000  0.5496810000000  0.5072450000000 1.0
C      1  0.4968860000000  0.4371830000000  0.5038090000000 1.0
C      1  0.5603370000000  0.5160000000000  0.5361070000000 1.0
C      1  0.5611180000000  0.4802670000000  0.4428460000000 1.0
C      1  0.5100690000000  0.5140140000000  0.4290280000000 1.0
C      1  0.5593520000000  0.5086050000000  0.4457830000000 1.0
C      1  0.4509580000000  0.4448290000000  0.5218040000000 1.0
C      1  0.4792650000000  0.4399450000000  0.5257970000000 1.0
C      1  0.4678620000000  0.4793200000000  0.4877610000000 1.0
C      1  0.4698440000000  0.5568030000000  0.5622980000000 1.0
C      1  0.5760760000000  0.4564390000000  0.4990810000000 1.0
C      1  0.4862600000000  0.5245920000000  0.5236370000000 1.0
C      1  0.4771190000000  0.5657970000000  0.5869870000000 1.0
C      1  0.5839560000000  0.4762660000000  0.5160730000000 1.0
C      1  0.4479350000000  0.5118400000000  0.4760910000000 1.0
C      1  0.4854550000000  0.4943810000000  0.5756160000000 1.0
C      1  0.5072340000000  0.5085120000000  0.5661190000000 1.0
C      1  0.4378570000000  0.5351860000000  0.5305250000000 1.0
C      1  0.5049720000000  0.5842120000000  0.5390910000000 1.0
C      1  0.5181880000000  0.4446710000000  0.5552650000000 1.0
C      1  0.4751160000000  0.4676410000000  0.5668410000000 1.0
C      1  0.4868970000000  0.5160950000000  0.4093490000000 1.0
C      1  0.5589940000000  0.5167980000000  0.4729910000000 1.0
C      1  0.4084680000000  0.4421270000000  0.5465200000000 1.0
C      1  0.5412090000000  0.5249410000000  0.4309280000000 1.0
C      1  0.5362920000000  0.5308590000000  0.5340280000000 1.0
C      1  0.4773290000000  0.5536210000000  0.5099870000000 1.0
C      1  0.5142970000000  0.4250900000000  0.4294450000000 1.0
C      1  0.5284010000000  0.4992120000000  0.5082680000000 1.0
C      1  0.5283530000000  0.4757150000000  0.5155900000000 1.0
C      1  0.4574330000000  0.5085060000000  0.5322490000000 1.0
C      1  0.4910170000000  0.4771040000000  0.4706190000000 1.0
C      1  0.4452410000000  0.4579780000000  0.4978860000000 1.0
C      1  0.5221840000000  0.5449170000000  0.4912350000000 1.0
C      1  0.4685710000000  0.5329370000000  0.4138410000000 1.0
C      1  0.4378590000000  0.5406010000000  0.4817720000000 1.0
C      1  0.4422530000000  0.5564030000000  0.4594620000000 1.0
C      1  0.4933800000000  0.5541500000000  0.4560240000000 1.0
C      1  0.5106310000000  0.4764950000000  0.4362260000000 1.0
C      1  0.4343190000000  0.4816000000000  0.4789320000000 1.0
C      1  0.5297920000000  0.5164860000000  0.4825030000000 1.0
C      1  0.5329340000000  0.4357200000000  0.5338770000000 1.0
C      1  0.5215790000000  0.4490420000000  0.4467500000000 1.0
C      1  0.5345490000000  0.5531010000000  0.5154490000000 1.0
C      1  0.4632480000000  0.5132070000000  0.4481680000000 1.0
C      1  0.5671850000000  0.4309210000000  0.4395410000000 1.0
C      1  0.5278750000000  0.4494650000000  0.4985710000000 1.0
C      1  0.4453280000000  0.4698850000000  0.5625260000000 1.0
C      1  0.5158360000000  0.5441360000000  0.4415810000000 1.0
C      1  0.4684330000000  0.5061460000000  0.5022370000000 1.0
C      1  0.5549370000000  0.4487690000000  0.4840030000000 1.0
END
