TITL C-2778426-5645-424 0.000334226373786864 125000 -459.454461490721 0 0 81 (C1) n - 1
REM
REM in /home/nfs/bkarasulu/CARBON/AIRSS/Generating-Clusters/REBO/Only-C1/SD-CG/HFTN-CG
REM
REM
REM
REM
REM
REM ./C.cell (11c1c37f851c82e70ff6c80c92926a4b)
REM
REM compiler GCC version 9.2.1 20190827 (Red Hat 9.2.1-1)
REM options -cpp -mtune=generic -march=x86-64 -g -O0 -fpre-include=/usr/include/finclude/math-vector-fortran.h
REM seed 624621488 1681509188 -1712025251 803473465 -95588291 -929774364 -2004787232 1309746033 406668434 1925632115 667773999 -1469614029 -2068851193 -1880033959 1760582781 -441103704 -1779122169 -630849020 -361617835 -1822076401 -436950587 -1531947058 -60928281 1846851023 -442028768 1720560168 1490168976 1810447139 -41984939 248651277 319646436 -505310378 19831416
REM
CELL 1.54180   50.00000   50.00000   50.00000   90.00000   90.00000   90.00000
LATT -1
SFAC C  
C      1  0.4974010000000  0.4688270000000  0.4703390000000 1.0
C      1  0.5585340000000  0.4444550000000  0.5320960000000 1.0
C      1  0.4680140000000  0.4537780000000  0.4786020000000 1.0
C      1  0.4983290000000  0.4981060000000  0.5399360000000 1.0
C      1  0.5729640000000  0.4684700000000  0.5279750000000 1.0
C      1  0.5339890000000  0.5073350000000  0.4698000000000 1.0
C      1  0.4864600000000  0.4957010000000  0.4545330000000 1.0
C      1  0.4534470000000  0.4392820000000  0.4954070000000 1.0
C      1  0.4429270000000  0.5009300000000  0.4914690000000 1.0
C      1  0.4980640000000  0.4544980000000  0.5097280000000 1.0
C      1  0.5881970000000  0.5092070000000  0.5455010000000 1.0
C      1  0.4899670000000  0.5258860000000  0.4958360000000 1.0
C      1  0.4446520000000  0.5253210000000  0.4407270000000 1.0
C      1  0.5598530000000  0.4720180000000  0.5744350000000 1.0
C      1  0.4950310000000  0.4297380000000  0.4615320000000 1.0
C      1  0.4567290000000  0.4963640000000  0.4279390000000 1.0
C      1  0.4929790000000  0.5412320000000  0.5784860000000 1.0
C      1  0.4739300000000  0.4763070000000  0.5170590000000 1.0
C      1  0.4859810000000  0.5648860000000  0.4465520000000 1.0
C      1  0.4740040000000  0.5965900000000  0.4812860000000 1.0
C      1  0.5026220000000  0.5180990000000  0.4675740000000 1.0
C      1  0.5610480000000  0.5512580000000  0.4710160000000 1.0
C      1  0.5061250000000  0.5583500000000  0.5611670000000 1.0
C      1  0.4336160000000  0.4955510000000  0.4530220000000 1.0
C      1  0.4880190000000  0.4953080000000  0.4146610000000 1.0
C      1  0.5528770000000  0.4574240000000  0.4515510000000 1.0
C      1  0.5082350000000  0.5455580000000  0.4333870000000 1.0
C      1  0.5083990000000  0.4311180000000  0.4886690000000 1.0
C      1  0.5267870000000  0.4732870000000  0.5765130000000 1.0
C      1  0.4924210000000  0.5285580000000  0.5262040000000 1.0
C      1  0.5241600000000  0.4265320000000  0.5416280000000 1.0
C      1  0.5258630000000  0.4762680000000  0.4581130000000 1.0
C      1  0.4233890000000  0.4886330000000  0.5357190000000 1.0
C      1  0.4843380000000  0.4424370000000  0.4433170000000 1.0
C      1  0.5087800000000  0.5521620000000  0.5337350000000 1.0
C      1  0.5921300000000  0.5163970000000  0.5189310000000 1.0
C      1  0.4531550000000  0.5565770000000  0.4515610000000 1.0
C      1  0.5387730000000  0.4728160000000  0.4271250000000 1.0
C      1  0.4898870000000  0.5581190000000  0.4976670000000 1.0
C      1  0.4985690000000  0.4920430000000  0.5792690000000 1.0
C      1  0.4447180000000  0.5904540000000  0.5504730000000 1.0
C      1  0.4146290000000  0.4932130000000  0.4777570000000 1.0
C      1  0.4900310000000  0.4472130000000  0.5391030000000 1.0
C      1  0.5545250000000  0.4322950000000  0.5075930000000 1.0
C      1  0.5413640000000  0.4472910000000  0.5597460000000 1.0
C      1  0.4426100000000  0.5086790000000  0.5232350000000 1.0
C      1  0.4774510000000  0.4699130000000  0.4336130000000 1.0
C      1  0.4526780000000  0.5830630000000  0.5273800000000 1.0
C      1  0.5736240000000  0.4765610000000  0.5002530000000 1.0
C      1  0.5278340000000  0.4585730000000  0.4939150000000 1.0
C      1  0.4455570000000  0.4371010000000  0.5225740000000 1.0
C      1  0.5212660000000  0.4890650000000  0.4960050000000 1.0
C      1  0.5470880000000  0.5419550000000  0.5072730000000 1.0
C      1  0.4600500000000  0.4827120000000  0.4683310000000 1.0
C      1  0.4674230000000  0.4317210000000  0.5405220000000 1.0
C      1  0.4319920000000  0.5362030000000  0.5064660000000 1.0
C      1  0.4889690000000  0.4918510000000  0.4942590000000 1.0
C      1  0.5159990000000  0.4201070000000  0.5192710000000 1.0
C      1  0.4519410000000  0.5241900000000  0.4740920000000 1.0
C      1  0.5578580000000  0.5218120000000  0.4838240000000 1.0
C      1  0.5267670000000  0.5592240000000  0.5129630000000 1.0
C      1  0.4951840000000  0.5855790000000  0.4666360000000 1.0
C      1  0.4620950000000  0.5743190000000  0.5000580000000 1.0
C      1  0.5785750000000  0.5041040000000  0.4968280000000 1.0
C      1  0.5570130000000  0.4548460000000  0.4826630000000 1.0
C      1  0.4258710000000  0.4555140000000  0.5331560000000 1.0
C      1  0.4604120000000  0.4743750000000  0.5398150000000 1.0
C      1  0.5218910000000  0.4973390000000  0.4175500000000 1.0
C      1  0.4677560000000  0.5135730000000  0.5419570000000 1.0
C      1  0.4440950000000  0.5549650000000  0.4847010000000 1.0
C      1  0.5232560000000  0.4998110000000  0.5230950000000 1.0
C      1  0.4363670000000  0.4714860000000  0.5607540000000 1.0
C      1  0.5172300000000  0.5745500000000  0.4861370000000 1.0
C      1  0.4829390000000  0.5152490000000  0.5724800000000 1.0
C      1  0.4969130000000  0.4696390000000  0.5553780000000 1.0
C      1  0.5301380000000  0.5218030000000  0.4389720000000 1.0
C      1  0.5447790000000  0.5700940000000  0.4718290000000 1.0
C      1  0.5023470000000  0.5247520000000  0.4113940000000 1.0
C      1  0.5737530000000  0.4698890000000  0.5983920000000 1.0
C      1  0.5753370000000  0.4847010000000  0.5510220000000 1.0
C      1  0.4790330000000  0.5347940000000  0.4584680000000 1.0
END
