TITL C-2778430-5657-267 0.00257093272508491 125000 -570.218557496069 0 0 100 (C1) n - 1
REM
REM in /home/nfs/bkarasulu/CARBON/AIRSS/Generating-Clusters/REBO/Only-C1/SD-CG/HFTN-CG
REM
REM
REM
REM
REM
REM ./C.cell (11c1c37f851c82e70ff6c80c92926a4b)
REM
REM compiler GCC version 9.2.1 20190827 (Red Hat 9.2.1-1)
REM options -cpp -mtune=generic -march=x86-64 -g -O0 -fpre-include=/usr/include/finclude/math-vector-fortran.h
REM seed 2103507342 1209746958 -1196897238 144900455 1013761253 -1385280961 1659706169 842115280 -744477477 -607233061 356364842 -316509739 -1633916911 395161256 -1702973122 -143665681 -162147154 431784267 -2081293235 418554525 -544284053 -382960481 12089191 1687208800 -1852019276 -866351872 268076273 -553418525 347343860 -12604789 1609397761 -672290339 -1850921873
REM
CELL 1.54180   50.00000   50.00000   50.00000   90.00000   90.00000   90.00000
LATT -1
SFAC C  
C      1  0.4806530000000  0.4937930000000  0.5486530000000 1.0
C      1  0.5726800000000  0.5239080000000  0.5042770000000 1.0
C      1  0.5584370000000  0.5418940000000  0.5284090000000 1.0
C      1  0.5200640000000  0.4270010000000  0.4533990000000 1.0
C      1  0.4743010000000  0.5538120000000  0.4805680000000 1.0
C      1  0.4469760000000  0.4644300000000  0.5239360000000 1.0
C      1  0.5072470000000  0.4869510000000  0.4969210000000 1.0
C      1  0.5699450000000  0.4597500000000  0.5370290000000 1.0
C      1  0.4872510000000  0.5715970000000  0.5285140000000 1.0
C      1  0.4524490000000  0.5609220000000  0.4294640000000 1.0
C      1  0.5092290000000  0.5347330000000  0.4718840000000 1.0
C      1  0.4785090000000  0.5721930000000  0.4339580000000 1.0
C      1  0.4206410000000  0.4821330000000  0.5173390000000 1.0
C      1  0.5504870000000  0.5097070000000  0.4085570000000 1.0
C      1  0.4866120000000  0.5642920000000  0.5675570000000 1.0
C      1  0.5253740000000  0.4429670000000  0.5341460000000 1.0
C      1  0.5849800000000  0.4784620000000  0.5217630000000 1.0
C      1  0.5016320000000  0.5560910000000  0.4217200000000 1.0
C      1  0.4524290000000  0.4660080000000  0.5533050000000 1.0
C      1  0.5660090000000  0.5183070000000  0.4536280000000 1.0
C      1  0.4067570000000  0.5231880000000  0.4766770000000 1.0
C      1  0.5786000000000  0.5044070000000  0.4782860000000 1.0
C      1  0.5397150000000  0.5295220000000  0.5774420000000 1.0
C      1  0.4681660000000  0.5296870000000  0.5447850000000 1.0
C      1  0.4879730000000  0.5351700000000  0.4452420000000 1.0
C      1  0.4463090000000  0.4559030000000  0.4762540000000 1.0
C      1  0.4649740000000  0.4325560000000  0.4461900000000 1.0
C      1  0.4343360000000  0.5254090000000  0.5458420000000 1.0
C      1  0.5298070000000  0.4704120000000  0.5163960000000 1.0
C      1  0.5593020000000  0.5456690000000  0.4573720000000 1.0
C      1  0.5237150000000  0.5157470000000  0.5321450000000 1.0
C      1  0.4929930000000  0.4984950000000  0.4707160000000 1.0
C      1  0.5506300000000  0.4310510000000  0.4679890000000 1.0
C      1  0.4662090000000  0.4976200000000  0.5778880000000 1.0
C      1  0.4798260000000  0.5351340000000  0.5763120000000 1.0
C      1  0.5397980000000  0.5248580000000  0.4956990000000 1.0
C      1  0.4725160000000  0.4565630000000  0.5054600000000 1.0
C      1  0.5116960000000  0.4250310000000  0.5012680000000 1.0
C      1  0.4570130000000  0.4838190000000  0.4232350000000 1.0
C      1  0.5051300000000  0.4805140000000  0.4160890000000 1.0
C      1  0.4977960000000  0.5077130000000  0.4168560000000 1.0
C      1  0.5084630000000  0.5242890000000  0.5046500000000 1.0
C      1  0.4579570000000  0.5249150000000  0.5953640000000 1.0
C      1  0.5459230000000  0.5024410000000  0.4357280000000 1.0
C      1  0.4412380000000  0.5525090000000  0.5264270000000 1.0
C      1  0.4951220000000  0.5532880000000  0.5042760000000 1.0
C      1  0.5106470000000  0.4941600000000  0.5513710000000 1.0
C      1  0.4922210000000  0.4420570000000  0.4569220000000 1.0
C      1  0.4349260000000  0.5102680000000  0.5755720000000 1.0
C      1  0.5693090000000  0.4549250000000  0.4820010000000 1.0
C      1  0.5425890000000  0.4263770000000  0.4981330000000 1.0
C      1  0.4641920000000  0.4868580000000  0.4958720000000 1.0
C      1  0.4813130000000  0.4656870000000  0.4124490000000 1.0
C      1  0.5384610000000  0.4652190000000  0.4847260000000 1.0
C      1  0.5481470000000  0.4977170000000  0.5238100000000 1.0
C      1  0.5500000000000  0.4938120000000  0.4913070000000 1.0
C      1  0.4071750000000  0.5023130000000  0.4938010000000 1.0
C      1  0.4677280000000  0.5129590000000  0.4290460000000 1.0
C      1  0.4758760000000  0.4695830000000  0.4679330000000 1.0
C      1  0.4283370000000  0.5254950000000  0.4561500000000 1.0
C      1  0.5178910000000  0.5100450000000  0.4512800000000 1.0
C      1  0.5155610000000  0.4649920000000  0.4645420000000 1.0
C      1  0.5241800000000  0.4634040000000  0.5565570000000 1.0
C      1  0.5360150000000  0.5554150000000  0.4792020000000 1.0
C      1  0.4513420000000  0.4180630000000  0.4649170000000 1.0
C      1  0.5065570000000  0.4187530000000  0.5337280000000 1.0
C      1  0.4304370000000  0.4915960000000  0.5476030000000 1.0
C      1  0.4798190000000  0.4180280000000  0.5124960000000 1.0
C      1  0.4604990000000  0.5798300000000  0.5248710000000 1.0
C      1  0.4868290000000  0.5738460000000  0.4613350000000 1.0
C      1  0.4935620000000  0.4858280000000  0.5864300000000 1.0
C      1  0.5789130000000  0.5078160000000  0.5317500000000 1.0
C      1  0.4548240000000  0.5587220000000  0.5573500000000 1.0
C      1  0.4737750000000  0.4491630000000  0.5612410000000 1.0
C      1  0.4565710000000  0.4505950000000  0.4262100000000 1.0
C      1  0.5014210000000  0.4535250000000  0.4940050000000 1.0
C      1  0.5130030000000  0.5807020000000  0.4998710000000 1.0
C      1  0.4771810000000  0.4258800000000  0.5455990000000 1.0
C      1  0.5201230000000  0.5033990000000  0.5828680000000 1.0
C      1  0.4454180000000  0.5342310000000  0.4361640000000 1.0
C      1  0.4692520000000  0.5068670000000  0.5193950000000 1.0
C      1  0.5165180000000  0.5296030000000  0.4201180000000 1.0
C      1  0.5284680000000  0.5830860000000  0.5249380000000 1.0
C      1  0.5855920000000  0.4757690000000  0.4930500000000 1.0
C      1  0.4427980000000  0.5047600000000  0.4758240000000 1.0
C      1  0.5314790000000  0.5423050000000  0.5492770000000 1.0
C      1  0.5545090000000  0.4710610000000  0.5593460000000 1.0
C      1  0.5137110000000  0.5802190000000  0.4700170000000 1.0
C      1  0.5279890000000  0.4748730000000  0.4355400000000 1.0
C      1  0.4557080000000  0.4288780000000  0.4948540000000 1.0
C      1  0.5411180000000  0.4467830000000  0.4398390000000 1.0
C      1  0.5482410000000  0.5651790000000  0.5096560000000 1.0
C      1  0.5549050000000  0.4398580000000  0.5221520000000 1.0
C      1  0.4715230000000  0.5208490000000  0.4766460000000 1.0
C      1  0.4972400000000  0.4611330000000  0.5728430000000 1.0
C      1  0.5661460000000  0.5240790000000  0.5565790000000 1.0
C      1  0.5526290000000  0.4979450000000  0.5736620000000 1.0
C      1  0.4591770000000  0.5358990000000  0.5054280000000 1.0
C      1  0.4272320000000  0.4769230000000  0.4847090000000 1.0
C      1  0.5130570000000  0.5678100000000  0.5494020000000 1.0
END
