TITL C-2778427-5640-241 0.00516905075543169 125000 -1046.13488525735 0 0 184 (C1) n - 1
REM
REM in /home/nfs/bkarasulu/CARBON/AIRSS/Generating-Clusters/REBO/Only-C1/SD-CG/HFTN-CG
REM
REM
REM
REM
REM
REM ./C.cell (11c1c37f851c82e70ff6c80c92926a4b)
REM
REM compiler GCC version 9.2.1 20190827 (Red Hat 9.2.1-1)
REM options -cpp -mtune=generic -march=x86-64 -g -O0 -fpre-include=/usr/include/finclude/math-vector-fortran.h
REM seed 1042316598 1144429245 1249475490 -42017652 1827855479 835546263 649874000 -1112646335 -768671625 -724608571 77240505 -51315546 1548692713 -704444732 1870183538 906796055 1870492356 834678696 -322999919 1430958691 -1994180792 -675167721 -1066225661 -1739188948 1966798985 1509488624 698594462 -493768704 901158312 1318690254 540552187 -916256370 1854474731
REM
CELL 1.54180   50.00000   50.00000   50.00000   90.00000   90.00000   90.00000
LATT -1
SFAC C  
C      1  0.4979360000000  0.5387810000000  0.5520410000000 1.0
C      1  0.4474780000000  0.5041440000000  0.4051900000000 1.0
C      1  0.5336330000000  0.4532780000000  0.5834750000000 1.0
C      1  0.4977160000000  0.5506780000000  0.4652070000000 1.0
C      1  0.4744950000000  0.5181940000000  0.5589380000000 1.0
C      1  0.4929960000000  0.5178500000000  0.4529090000000 1.0
C      1  0.5312080000000  0.4957090000000  0.4185880000000 1.0
C      1  0.5460050000000  0.5939300000000  0.4742580000000 1.0
C      1  0.5910180000000  0.5864600000000  0.4342190000000 1.0
C      1  0.3921750000000  0.4691740000000  0.4856020000000 1.0
C      1  0.4744410000000  0.5214330000000  0.5252210000000 1.0
C      1  0.5563710000000  0.6017280000000  0.5060630000000 1.0
C      1  0.5984280000000  0.4990850000000  0.5611230000000 1.0
C      1  0.4785930000000  0.5621670000000  0.5668740000000 1.0
C      1  0.5076650000000  0.4295610000000  0.4981180000000 1.0
C      1  0.4093130000000  0.5570780000000  0.5197030000000 1.0
C      1  0.4117930000000  0.4981230000000  0.5580620000000 1.0
C      1  0.4825510000000  0.5834580000000  0.5326450000000 1.0
C      1  0.5646080000000  0.5740860000000  0.5635130000000 1.0
C      1  0.4589340000000  0.5177830000000  0.4543850000000 1.0
C      1  0.4303520000000  0.4174540000000  0.5498950000000 1.0
C      1  0.4218160000000  0.5470920000000  0.4269860000000 1.0
C      1  0.4213120000000  0.5498400000000  0.5506190000000 1.0
C      1  0.4409920000000  0.5034780000000  0.5747250000000 1.0
C      1  0.4427240000000  0.5251530000000  0.5490640000000 1.0
C      1  0.5068970000000  0.4210350000000  0.5291980000000 1.0
C      1  0.4450380000000  0.4759490000000  0.5278650000000 1.0
C      1  0.4953410000000  0.4809550000000  0.5904140000000 1.0
C      1  0.4366210000000  0.5774210000000  0.5223460000000 1.0
C      1  0.5834480000000  0.5837370000000  0.5458860000000 1.0
C      1  0.4049420000000  0.4646970000000  0.4554570000000 1.0
C      1  0.4564850000000  0.5805860000000  0.4680190000000 1.0
C      1  0.5508570000000  0.5009530000000  0.5011760000000 1.0
C      1  0.4781070000000  0.5319010000000  0.4868130000000 1.0
C      1  0.5821280000000  0.4982150000000  0.4343500000000 1.0
C      1  0.5573880000000  0.5580870000000  0.4938790000000 1.0
C      1  0.5236160000000  0.5270320000000  0.4656510000000 1.0
C      1  0.5723630000000  0.4399330000000  0.5458220000000 1.0
C      1  0.4614470000000  0.4001190000000  0.4648290000000 1.0
C      1  0.4926300000000  0.5002290000000  0.4268000000000 1.0
C      1  0.4149440000000  0.4892650000000  0.5253260000000 1.0
C      1  0.3939890000000  0.4981820000000  0.5021960000000 1.0
C      1  0.4742610000000  0.5645110000000  0.4446790000000 1.0
C      1  0.4467170000000  0.4742130000000  0.4882000000000 1.0
C      1  0.6026630000000  0.5094090000000  0.4511000000000 1.0
C      1  0.5834490000000  0.5287090000000  0.5395240000000 1.0
C      1  0.5240100000000  0.5204100000000  0.5403570000000 1.0
C      1  0.4970160000000  0.4496600000000  0.4413900000000 1.0
C      1  0.4388600000000  0.4492350000000  0.5093210000000 1.0
C      1  0.5110110000000  0.4074980000000  0.4766660000000 1.0
C      1  0.4622990000000  0.4053650000000  0.5503330000000 1.0
C      1  0.5100420000000  0.4221000000000  0.4155360000000 1.0
C      1  0.5320080000000  0.4782140000000  0.6048960000000 1.0
C      1  0.5426480000000  0.4039080000000  0.4721260000000 1.0
C      1  0.5117060000000  0.5979890000000  0.4938370000000 1.0
C      1  0.4926430000000  0.5211120000000  0.4041450000000 1.0
C      1  0.5367090000000  0.4366010000000  0.4062990000000 1.0
C      1  0.4954200000000  0.4070180000000  0.5543540000000 1.0
C      1  0.4837750000000  0.6019260000000  0.5070490000000 1.0
C      1  0.4824170000000  0.4204660000000  0.4142250000000 1.0
C      1  0.5313020000000  0.5786250000000  0.5645300000000 1.0
C      1  0.4230520000000  0.4684610000000  0.5705070000000 1.0
C      1  0.5078030000000  0.5616800000000  0.5827660000000 1.0
C      1  0.4452040000000  0.5578980000000  0.5718420000000 1.0
C      1  0.3941010000000  0.5302520000000  0.5078890000000 1.0
C      1  0.5013610000000  0.4521580000000  0.5314340000000 1.0
C      1  0.5089350000000  0.6021870000000  0.4609610000000 1.0
C      1  0.6133290000000  0.4946300000000  0.4717980000000 1.0
C      1  0.4769830000000  0.5204080000000  0.6087720000000 1.0
C      1  0.4690190000000  0.4942910000000  0.4769640000000 1.0
C      1  0.4668550000000  0.4471230000000  0.3998830000000 1.0
C      1  0.4213110000000  0.4222720000000  0.5186840000000 1.0
C      1  0.5467170000000  0.4512310000000  0.4940400000000 1.0
C      1  0.4445090000000  0.4797930000000  0.4367020000000 1.0
C      1  0.6076250000000  0.5066220000000  0.5299590000000 1.0
C      1  0.5886650000000  0.5679330000000  0.4862890000000 1.0
C      1  0.5644460000000  0.4761680000000  0.4816120000000 1.0
C      1  0.5364760000000  0.4372820000000  0.4692260000000 1.0
C      1  0.5287060000000  0.5001480000000  0.4502490000000 1.0
C      1  0.4546830000000  0.4791310000000  0.5575990000000 1.0
C      1  0.5669050000000  0.5011860000000  0.5284980000000 1.0
C      1  0.4026670000000  0.5241370000000  0.5404190000000 1.0
C      1  0.5641670000000  0.4599510000000  0.5719130000000 1.0
C      1  0.5085880000000  0.4301590000000  0.5841590000000 1.0
C      1  0.4045540000000  0.4572360000000  0.5282260000000 1.0
C      1  0.4692150000000  0.5546890000000  0.5184300000000 1.0
C      1  0.5767460000000  0.4478350000000  0.4655750000000 1.0
C      1  0.4947160000000  0.4182660000000  0.4522150000000 1.0
C      1  0.4263900000000  0.5445620000000  0.4798220000000 1.0
C      1  0.5234480000000  0.5728280000000  0.4600450000000 1.0
C      1  0.4439780000000  0.4109770000000  0.4991110000000 1.0
C      1  0.5265080000000  0.4590880000000  0.4494990000000 1.0
C      1  0.5612350000000  0.4865440000000  0.4153130000000 1.0
C      1  0.4440020000000  0.5729630000000  0.4060960000000 1.0
C      1  0.5505030000000  0.5119680000000  0.5548160000000 1.0
C      1  0.4757160000000  0.4223670000000  0.5774000000000 1.0
C      1  0.5923670000000  0.5696940000000  0.4541250000000 1.0
C      1  0.4172660000000  0.5683620000000  0.4391960000000 1.0
C      1  0.4942600000000  0.4575550000000  0.5788390000000 1.0
C      1  0.4530690000000  0.4783440000000  0.3977460000000 1.0
C      1  0.4811340000000  0.3969680000000  0.4862480000000 1.0
C      1  0.4671190000000  0.4364700000000  0.5192320000000 1.0
C      1  0.5217770000000  0.5215000000000  0.4049290000000 1.0
C      1  0.5774180000000  0.5527730000000  0.5214070000000 1.0
C      1  0.4705130000000  0.4016620000000  0.4354350000000 1.0
C      1  0.5495570000000  0.5433420000000  0.5607810000000 1.0
C      1  0.4777550000000  0.6063240000000  0.4746600000000 1.0
C      1  0.4489870000000  0.5291960000000  0.4957550000000 1.0
C      1  0.4824270000000  0.5960200000000  0.4424540000000 1.0
C      1  0.5301060000000  0.5069080000000  0.5888470000000 1.0
C      1  0.6060270000000  0.5418600000000  0.4941530000000 1.0
C      1  0.4667370000000  0.4376270000000  0.4524390000000 1.0
C      1  0.4136250000000  0.4463280000000  0.5526350000000 1.0
C      1  0.5830270000000  0.5255700000000  0.5735200000000 1.0
C      1  0.4210270000000  0.4872700000000  0.4842650000000 1.0
C      1  0.6196370000000  0.5338220000000  0.5171430000000 1.0
C      1  0.4528980000000  0.4422680000000  0.5479360000000 1.0
C      1  0.4502680000000  0.4996700000000  0.6052010000000 1.0
C      1  0.5284810000000  0.5734960000000  0.5033730000000 1.0
C      1  0.4799570000000  0.4585680000000  0.5534170000000 1.0
C      1  0.4653090000000  0.5293640000000  0.4052150000000 1.0
C      1  0.5367550000000  0.5460930000000  0.5903080000000 1.0
C      1  0.4950100000000  0.4617980000000  0.3934070000000 1.0
C      1  0.5008840000000  0.4600550000000  0.4908080000000 1.0
C      1  0.5349310000000  0.6222200000000  0.4896380000000 1.0
C      1  0.5859370000000  0.4685350000000  0.5059600000000 1.0
C      1  0.4154650000000  0.4405280000000  0.4709340000000 1.0
C      1  0.4978880000000  0.5043100000000  0.4901530000000 1.0
C      1  0.5817850000000  0.5856140000000  0.5131690000000 1.0
C      1  0.5427760000000  0.4274240000000  0.5454620000000 1.0
C      1  0.5584430000000  0.4912880000000  0.4545320000000 1.0
C      1  0.5409050000000  0.5866780000000  0.5324830000000 1.0
C      1  0.4006490000000  0.4411450000000  0.5008390000000 1.0
C      1  0.5701530000000  0.4707510000000  0.5334580000000 1.0
C      1  0.5187210000000  0.5018360000000  0.5122910000000 1.0
C      1  0.5500990000000  0.5285760000000  0.4828750000000 1.0
C      1  0.4152650000000  0.5794190000000  0.4958950000000 1.0
C      1  0.5272680000000  0.5408650000000  0.5128780000000 1.0
C      1  0.5700580000000  0.4203130000000  0.4847360000000 1.0
C      1  0.4242280000000  0.5124120000000  0.4693820000000 1.0
C      1  0.5063400000000  0.4723730000000  0.4178400000000 1.0
C      1  0.5896600000000  0.6033200000000  0.4142010000000 1.0
C      1  0.5267050000000  0.4819100000000  0.5656400000000 1.0
C      1  0.5606260000000  0.5219140000000  0.5920900000000 1.0
C      1  0.4546150000000  0.5777870000000  0.5473620000000 1.0
C      1  0.4042620000000  0.5153450000000  0.4435240000000 1.0
C      1  0.4985160000000  0.5425240000000  0.5193660000000 1.0
C      1  0.4359610000000  0.5155620000000  0.5192560000000 1.0
C      1  0.4752940000000  0.4824740000000  0.4472800000000 1.0
C      1  0.6000320000000  0.4950640000000  0.5013780000000 1.0
C      1  0.4603350000000  0.5543430000000  0.4190140000000 1.0
C      1  0.4749980000000  0.4648620000000  0.5041860000000 1.0
C      1  0.5257980000000  0.4622810000000  0.5118840000000 1.0
C      1  0.5368960000000  0.4094780000000  0.5197910000000 1.0
C      1  0.5727090000000  0.4375600000000  0.5117550000000 1.0
C      1  0.5362960000000  0.4224300000000  0.4374820000000 1.0
C      1  0.5757820000000  0.4540430000000  0.4362740000000 1.0
C      1  0.4418340000000  0.4255140000000  0.4708130000000 1.0
C      1  0.5047030000000  0.4809950000000  0.4649850000000 1.0
C      1  0.4607700000000  0.5800390000000  0.4993950000000 1.0
C      1  0.5046000000000  0.5865850000000  0.5489790000000 1.0
C      1  0.4707640000000  0.4044600000000  0.5169800000000 1.0
C      1  0.4551090000000  0.4532890000000  0.4288230000000 1.0
C      1  0.4826090000000  0.5041710000000  0.5831000000000 1.0
C      1  0.5076670000000  0.5310040000000  0.5982500000000 1.0
C      1  0.4443150000000  0.4686060000000  0.5945690000000 1.0
C      1  0.5351810000000  0.5629300000000  0.4328090000000 1.0
C      1  0.5261430000000  0.4121990000000  0.5650500000000 1.0
C      1  0.5389430000000  0.4610910000000  0.5413300000000 1.0
C      1  0.5986590000000  0.5388290000000  0.4609820000000 1.0
C      1  0.4761250000000  0.4899040000000  0.5256230000000 1.0
C      1  0.5700960000000  0.4882760000000  0.5690970000000 1.0
C      1  0.3962380000000  0.5298960000000  0.4737640000000 1.0
C      1  0.4591770000000  0.4449870000000  0.5932420000000 1.0
C      1  0.5480850000000  0.5551200000000  0.5326050000000 1.0
C      1  0.4365220000000  0.5186710000000  0.4318760000000 1.0
C      1  0.4176950000000  0.4846880000000  0.4413450000000 1.0
C      1  0.5661420000000  0.4182320000000  0.4511820000000 1.0
C      1  0.5826940000000  0.5190530000000  0.4842780000000 1.0
C      1  0.4276020000000  0.5728800000000  0.4677280000000 1.0
C      1  0.5342690000000  0.5454310000000  0.4125300000000 1.0
C      1  0.5495360000000  0.3898180000000  0.5087370000000 1.0
C      1  0.5461090000000  0.4593550000000  0.4257070000000 1.0
C      1  0.5067550000000  0.4844800000000  0.5390110000000 1.0
END
