TITL C-2778422-5617-1168 -0.00182985662570747 125000 -465.428117005021 0 0 83 (C1) n - 1
REM
REM in /home/nfs/bkarasulu/CARBON/AIRSS/Generating-Clusters/REBO/Only-C1/SD-CG/HFTN-CG
REM
REM
REM
REM
REM
REM ./C.cell (11c1c37f851c82e70ff6c80c92926a4b)
REM
REM compiler GCC version 9.2.1 20190827 (Red Hat 9.2.1-1)
REM options -cpp -mtune=generic -march=x86-64 -g -O0 -fpre-include=/usr/include/finclude/math-vector-fortran.h
REM seed -356881782 2046917355 2106684426 -1111511449 -64284405 138381131 2031064444 -1767679349 -1878161301 1995979351 877257634 1094729233 -521055820 -2133696094 -414513360 1185651290 -1707740578 -1484277775 -1154323582 471296211 -953449598 231505116 -1452602913 19955733 -285226992 410678900 1281934551 -1804186368 714617825 -939819916 1673947806 2047712030 2030053567
REM
CELL 1.54180   50.00000   50.00000   50.00000   90.00000   90.00000   90.00000
LATT -1
SFAC C  
C      1  0.4317420000000  0.4769420000000  0.5407040000000 1.0
C      1  0.4457040000000  0.5405490000000  0.5233510000000 1.0
C      1  0.5451460000000  0.5607800000000  0.5036130000000 1.0
C      1  0.5265850000000  0.4691200000000  0.5601570000000 1.0
C      1  0.5181240000000  0.5445320000000  0.4714490000000 1.0
C      1  0.4500580000000  0.4918410000000  0.5654420000000 1.0
C      1  0.5022180000000  0.4480800000000  0.4776610000000 1.0
C      1  0.4955600000000  0.5189570000000  0.4351170000000 1.0
C      1  0.5262820000000  0.4216260000000  0.4603600000000 1.0
C      1  0.4507230000000  0.5435000000000  0.4518110000000 1.0
C      1  0.5740840000000  0.5367610000000  0.5415710000000 1.0
C      1  0.5007450000000  0.4836760000000  0.5753660000000 1.0
C      1  0.5773220000000  0.4637240000000  0.4965790000000 1.0
C      1  0.5007580000000  0.5092520000000  0.5446240000000 1.0
C      1  0.4624270000000  0.5136170000000  0.4431630000000 1.0
C      1  0.4436700000000  0.5654900000000  0.5018090000000 1.0
C      1  0.5394360000000  0.5364170000000  0.4519050000000 1.0
C      1  0.5636850000000  0.5083410000000  0.5404430000000 1.0
C      1  0.5161560000000  0.4790800000000  0.4728930000000 1.0
C      1  0.4976140000000  0.4257110000000  0.5345550000000 1.0
C      1  0.4597910000000  0.5552720000000  0.5495460000000 1.0
C      1  0.5458230000000  0.4600900000000  0.5335150000000 1.0
C      1  0.4276180000000  0.4428200000000  0.4995260000000 1.0
C      1  0.5043640000000  0.4621680000000  0.5070930000000 1.0
C      1  0.4348920000000  0.5095810000000  0.4969680000000 1.0
C      1  0.5153740000000  0.5754480000000  0.4972470000000 1.0
C      1  0.5506140000000  0.5301380000000  0.4894950000000 1.0
C      1  0.4963360000000  0.5271320000000  0.5229130000000 1.0
C      1  0.4754150000000  0.4692320000000  0.5625040000000 1.0
C      1  0.5490890000000  0.4212450000000  0.5254430000000 1.0
C      1  0.5644390000000  0.4510780000000  0.4728910000000 1.0
C      1  0.4720090000000  0.4550520000000  0.5113260000000 1.0
C      1  0.5493890000000  0.5813050000000  0.4770900000000 1.0
C      1  0.5777840000000  0.4953240000000  0.4933510000000 1.0
C      1  0.5107940000000  0.4904040000000  0.4438070000000 1.0
C      1  0.4820400000000  0.5703400000000  0.4922880000000 1.0
C      1  0.5354620000000  0.5281210000000  0.5388990000000 1.0
C      1  0.5355980000000  0.4651930000000  0.4252080000000 1.0
C      1  0.4952020000000  0.5129670000000  0.5750040000000 1.0
C      1  0.5182970000000  0.5313830000000  0.5010510000000 1.0
C      1  0.5596260000000  0.5539940000000  0.4671600000000 1.0
C      1  0.4418460000000  0.4896960000000  0.4510980000000 1.0
C      1  0.5094270000000  0.4540840000000  0.4253820000000 1.0
C      1  0.5498540000000  0.5579280000000  0.5333270000000 1.0
C      1  0.5132780000000  0.5520320000000  0.5488890000000 1.0
C      1  0.4553770000000  0.5715100000000  0.4706550000000 1.0
C      1  0.5494520000000  0.4870110000000  0.4361680000000 1.0
C      1  0.5002920000000  0.4474240000000  0.5595530000000 1.0
C      1  0.5016140000000  0.5721910000000  0.5264210000000 1.0
C      1  0.4971820000000  0.4352480000000  0.4492260000000 1.0
C      1  0.4758400000000  0.5396980000000  0.4822760000000 1.0
C      1  0.5316030000000  0.4441310000000  0.5068400000000 1.0
C      1  0.4666220000000  0.4461800000000  0.4595750000000 1.0
C      1  0.4675650000000  0.4243080000000  0.5214970000000 1.0
C      1  0.4521590000000  0.4577560000000  0.4865850000000 1.0
C      1  0.4415780000000  0.5365140000000  0.4838370000000 1.0
C      1  0.4846740000000  0.5456000000000  0.4501160000000 1.0
C      1  0.4695990000000  0.5247450000000  0.5096460000000 1.0
C      1  0.5411980000000  0.4363760000000  0.4783680000000 1.0
C      1  0.4947910000000  0.4242210000000  0.5006670000000 1.0
C      1  0.5395250000000  0.4981770000000  0.4839880000000 1.0
C      1  0.4528460000000  0.4652720000000  0.4391050000000 1.0
C      1  0.4826800000000  0.4665390000000  0.4291860000000 1.0
C      1  0.4585720000000  0.5217860000000  0.5558750000000 1.0
C      1  0.4811950000000  0.4880490000000  0.4557550000000 1.0
C      1  0.4393140000000  0.5081550000000  0.5307110000000 1.0
C      1  0.4698310000000  0.4948630000000  0.5087410000000 1.0
C      1  0.5299320000000  0.5148330000000  0.4342530000000 1.0
C      1  0.4688620000000  0.5729240000000  0.5236590000000 1.0
C      1  0.5663180000000  0.4825670000000  0.5231160000000 1.0
C      1  0.5045570000000  0.5693050000000  0.4593810000000 1.0
C      1  0.4635190000000  0.4756500000000  0.5325410000000 1.0
C      1  0.4862600000000  0.4833430000000  0.4871360000000 1.0
C      1  0.5222680000000  0.5918260000000  0.4681510000000 1.0
C      1  0.4200120000000  0.4516640000000  0.5298180000000 1.0
C      1  0.5275520000000  0.4328310000000  0.5448290000000 1.0
C      1  0.4374230000000  0.4243020000000  0.5235010000000 1.0
C      1  0.5343450000000  0.5783740000000  0.5539700000000 1.0
C      1  0.4399110000000  0.4865930000000  0.4799680000000 1.0
C      1  0.4862500000000  0.5414890000000  0.5629540000000 1.0
C      1  0.5339340000000  0.5042110000000  0.5144520000000 1.0
C      1  0.5210310000000  0.4909660000000  0.5385600000000 1.0
C      1  0.5619090000000  0.4833430000000  0.4653260000000 1.0
END
