TITL C-2778422-5617-666 0.0002039409969195 125000 -879.491601197068 0 0 149 (C1) n - 1
REM
REM in /home/nfs/bkarasulu/CARBON/AIRSS/Generating-Clusters/REBO/Only-C1/SD-CG/HFTN-CG
REM
REM
REM
REM
REM
REM ./C.cell (11c1c37f851c82e70ff6c80c92926a4b)
REM
REM compiler GCC version 9.2.1 20190827 (Red Hat 9.2.1-1)
REM options -cpp -mtune=generic -march=x86-64 -g -O0 -fpre-include=/usr/include/finclude/math-vector-fortran.h
REM seed -1776223838 -1211008168 -486831875 -649896391 -505541833 1702897115 1447423049 -1905949024 -834019175 964282987 -1791163942 1630172607 -81196075 -378542705 758832089 1157722115 -930027031 1611198182 345464010 186179049 1824083093 -2125468121 741725340 103545685 -1607802014 -212156667 962620344 269244359 2069738781 355880442 -1805563107 -1548219452 164372196
REM
CELL 1.54180   50.00000   50.00000   50.00000   90.00000   90.00000   90.00000
LATT -1
SFAC C  
C      1  0.5170880000000  0.5134320000000  0.5607480000000 1.0
C      1  0.4514010000000  0.5897680000000  0.5151910000000 1.0
C      1  0.4465890000000  0.4382800000000  0.4868070000000 1.0
C      1  0.5368210000000  0.5250260000000  0.4116500000000 1.0
C      1  0.5243660000000  0.4570670000000  0.4045900000000 1.0
C      1  0.5485410000000  0.4360910000000  0.4494840000000 1.0
C      1  0.4006890000000  0.4614440000000  0.5051290000000 1.0
C      1  0.6408950000000  0.5467710000000  0.4837150000000 1.0
C      1  0.5533840000000  0.4684150000000  0.5880260000000 1.0
C      1  0.4799380000000  0.4206590000000  0.5147470000000 1.0
C      1  0.5671120000000  0.4705200000000  0.3856680000000 1.0
C      1  0.5017740000000  0.5777700000000  0.5169670000000 1.0
C      1  0.4570440000000  0.4661190000000  0.5792530000000 1.0
C      1  0.3999090000000  0.4926230000000  0.5154520000000 1.0
C      1  0.5980460000000  0.5057300000000  0.5329280000000 1.0
C      1  0.5964820000000  0.4965730000000  0.4902630000000 1.0
C      1  0.5547250000000  0.6233870000000  0.5422970000000 1.0
C      1  0.5476430000000  0.5246470000000  0.4729680000000 1.0
C      1  0.5301630000000  0.5898400000000  0.5143990000000 1.0
C      1  0.4803730000000  0.5816040000000  0.4454340000000 1.0
C      1  0.4255550000000  0.5379870000000  0.5431860000000 1.0
C      1  0.5629930000000  0.4585620000000  0.4328730000000 1.0
C      1  0.5281560000000  0.4539650000000  0.4644970000000 1.0
C      1  0.4430560000000  0.5199200000000  0.5027220000000 1.0
C      1  0.5548770000000  0.5259240000000  0.5611010000000 1.0
C      1  0.4640820000000  0.5580820000000  0.4943730000000 1.0
C      1  0.5086850000000  0.4485290000000  0.5708790000000 1.0
C      1  0.4298750000000  0.5257240000000  0.4283630000000 1.0
C      1  0.4396060000000  0.5636420000000  0.4748360000000 1.0
C      1  0.5189630000000  0.5190060000000  0.4630410000000 1.0
C      1  0.5058950000000  0.5687710000000  0.5650220000000 1.0
C      1  0.4509800000000  0.5200850000000  0.4522830000000 1.0
C      1  0.5354020000000  0.5623090000000  0.4717590000000 1.0
C      1  0.5110760000000  0.5346770000000  0.6060720000000 1.0
C      1  0.5319500000000  0.5495580000000  0.5541640000000 1.0
C      1  0.4817320000000  0.4764070000000  0.5021860000000 1.0
C      1  0.5321080000000  0.5238570000000  0.5868850000000 1.0
C      1  0.5200380000000  0.5760700000000  0.4127760000000 1.0
C      1  0.4956800000000  0.4302080000000  0.4331060000000 1.0
C      1  0.4818370000000  0.4945600000000  0.5914110000000 1.0
C      1  0.4737650000000  0.4172150000000  0.5836660000000 1.0
C      1  0.5220520000000  0.3966970000000  0.4928970000000 1.0
C      1  0.5765690000000  0.4543580000000  0.4933890000000 1.0
C      1  0.4755780000000  0.4702140000000  0.4146190000000 1.0
C      1  0.4291740000000  0.5753900000000  0.5031400000000 1.0
C      1  0.4595300000000  0.5396950000000  0.5219760000000 1.0
C      1  0.4259830000000  0.4756950000000  0.4421670000000 1.0
C      1  0.5668920000000  0.5314550000000  0.4478830000000 1.0
C      1  0.4355060000000  0.4313440000000  0.4567280000000 1.0
C      1  0.5278920000000  0.4729200000000  0.4922300000000 1.0
C      1  0.5299420000000  0.5251330000000  0.3850210000000 1.0
C      1  0.5224710000000  0.4239210000000  0.6061510000000 1.0
C      1  0.4863930000000  0.5161250000000  0.5646480000000 1.0
C      1  0.6159720000000  0.5194000000000  0.5165730000000 1.0
C      1  0.5259810000000  0.5263370000000  0.5295800000000 1.0
C      1  0.5347730000000  0.4837920000000  0.4531300000000 1.0
C      1  0.5521530000000  0.4614830000000  0.4064890000000 1.0
C      1  0.4737410000000  0.4987730000000  0.4373080000000 1.0
C      1  0.4525610000000  0.4563610000000  0.4334120000000 1.0
C      1  0.4815220000000  0.5104700000000  0.5058990000000 1.0
C      1  0.6228200000000  0.5274370000000  0.4898310000000 1.0
C      1  0.5120530000000  0.4947250000000  0.5262900000000 1.0
C      1  0.5007320000000  0.4260940000000  0.5872030000000 1.0
C      1  0.4991460000000  0.4518800000000  0.4151520000000 1.0
C      1  0.4726760000000  0.4949120000000  0.4769600000000 1.0
C      1  0.4662100000000  0.4037390000000  0.4909900000000 1.0
C      1  0.4222590000000  0.5077760000000  0.5366480000000 1.0
C      1  0.5512450000000  0.4251520000000  0.5208300000000 1.0
C      1  0.4405230000000  0.5440850000000  0.5670150000000 1.0
C      1  0.4081480000000  0.4927320000000  0.5638630000000 1.0
C      1  0.3983460000000  0.4762510000000  0.5418420000000 1.0
C      1  0.5480370000000  0.5818470000000  0.4510640000000 1.0
C      1  0.5748200000000  0.4813700000000  0.4444710000000 1.0
C      1  0.4550890000000  0.4807680000000  0.4568060000000 1.0
C      1  0.4714680000000  0.4540480000000  0.4815330000000 1.0
C      1  0.5329720000000  0.4042160000000  0.4676810000000 1.0
C      1  0.4516280000000  0.5699920000000  0.5724480000000 1.0
C      1  0.5067810000000  0.4629150000000  0.5150070000000 1.0
C      1  0.4019410000000  0.5017450000000  0.4599860000000 1.0
C      1  0.5612380000000  0.4153760000000  0.4713990000000 1.0
C      1  0.4475710000000  0.4938480000000  0.5927570000000 1.0
C      1  0.4562570000000  0.4683090000000  0.5482770000000 1.0
C      1  0.4475080000000  0.4207900000000  0.5131150000000 1.0
C      1  0.5598500000000  0.4725310000000  0.5338420000000 1.0
C      1  0.4631070000000  0.5693960000000  0.5343150000000 1.0
C      1  0.4046780000000  0.5262400000000  0.4723660000000 1.0
C      1  0.5452040000000  0.5707240000000  0.4252580000000 1.0
C      1  0.4506070000000  0.4387970000000  0.5879040000000 1.0
C      1  0.4348210000000  0.5326020000000  0.4763620000000 1.0
C      1  0.5999410000000  0.4687580000000  0.4888050000000 1.0
C      1  0.5182060000000  0.4201890000000  0.4456550000000 1.0
C      1  0.5874660000000  0.5107410000000  0.4466210000000 1.0
C      1  0.4993060000000  0.5534390000000  0.5287660000000 1.0
C      1  0.5346070000000  0.5820110000000  0.5603940000000 1.0
C      1  0.4895820000000  0.4713310000000  0.5697220000000 1.0
C      1  0.5170720000000  0.5958670000000  0.4834260000000 1.0
C      1  0.5253680000000  0.4150460000000  0.5146180000000 1.0
C      1  0.4814060000000  0.5346430000000  0.4825350000000 1.0
C      1  0.5512320000000  0.4445110000000  0.5425750000000 1.0
C      1  0.5022220000000  0.4863490000000  0.4406160000000 1.0
C      1  0.5649010000000  0.5122070000000  0.5343100000000 1.0
C      1  0.4641120000000  0.4046590000000  0.4644930000000 1.0
C      1  0.5483310000000  0.5664990000000  0.5008360000000 1.0
C      1  0.4846000000000  0.4849290000000  0.5403600000000 1.0
C      1  0.4780740000000  0.4960340000000  0.3976880000000 1.0
C      1  0.5038220000000  0.4327200000000  0.5187170000000 1.0
C      1  0.4199570000000  0.4796860000000  0.4756580000000 1.0
C      1  0.5469340000000  0.5341190000000  0.5056300000000 1.0
C      1  0.4787590000000  0.5444950000000  0.4168840000000 1.0
C      1  0.4535550000000  0.4959260000000  0.5304830000000 1.0
C      1  0.4163860000000  0.4484030000000  0.4792510000000 1.0
C      1  0.5392690000000  0.4926980000000  0.5453710000000 1.0
C      1  0.4790890000000  0.5741940000000  0.5599800000000 1.0
C      1  0.4657480000000  0.4271020000000  0.4414770000000 1.0
C      1  0.4525340000000  0.5705570000000  0.4475980000000 1.0
C      1  0.4186700000000  0.5563250000000  0.5221980000000 1.0
C      1  0.5423160000000  0.4431870000000  0.6056700000000 1.0
C      1  0.5079850000000  0.5479580000000  0.4695670000000 1.0
C      1  0.5573680000000  0.5021830000000  0.5854970000000 1.0
C      1  0.5817510000000  0.4817430000000  0.5755210000000 1.0
C      1  0.4355090000000  0.4610010000000  0.5245420000000 1.0
C      1  0.6069370000000  0.5131290000000  0.4681180000000 1.0
C      1  0.5694970000000  0.5087450000000  0.5019360000000 1.0
C      1  0.4366460000000  0.4865450000000  0.5020070000000 1.0
C      1  0.5863700000000  0.4811570000000  0.5470110000000 1.0
C      1  0.4998110000000  0.5797320000000  0.4675150000000 1.0
C      1  0.5544390000000  0.5433150000000  0.4244130000000 1.0
C      1  0.4791480000000  0.5345160000000  0.4484340000000 1.0
C      1  0.4121030000000  0.5031740000000  0.4307640000000 1.0
C      1  0.4462850000000  0.4189050000000  0.5637070000000 1.0
C      1  0.4063890000000  0.4456900000000  0.5342100000000 1.0
C      1  0.5245900000000  0.5081570000000  0.4316680000000 1.0
C      1  0.5407250000000  0.5998050000000  0.5400600000000 1.0
C      1  0.4810100000000  0.5205150000000  0.3981800000000 1.0
C      1  0.4931350000000  0.5720650000000  0.4200000000000 1.0
C      1  0.4849280000000  0.5261610000000  0.6030800000000 1.0
C      1  0.5686260000000  0.4270930000000  0.4966910000000 1.0
C      1  0.4483010000000  0.5504220000000  0.4266000000000 1.0
C      1  0.4977490000000  0.4654960000000  0.4670590000000 1.0
C      1  0.4797340000000  0.5850470000000  0.5016190000000 1.0
C      1  0.5069840000000  0.4964320000000  0.4788050000000 1.0
C      1  0.5367800000000  0.4505200000000  0.5667530000000 1.0
C      1  0.4172390000000  0.4940420000000  0.5889620000000 1.0
C      1  0.4849130000000  0.5244460000000  0.5345510000000 1.0
C      1  0.4338660000000  0.4286660000000  0.5385180000000 1.0
C      1  0.5508450000000  0.5956580000000  0.4810320000000 1.0
C      1  0.5562200000000  0.4714540000000  0.5039950000000 1.0
C      1  0.5609860000000  0.4946930000000  0.4719190000000 1.0
C      1  0.4579490000000  0.5242310000000  0.5815590000000 1.0
END
