TITL C-2778422-5617-107 0.00517905623998308 125000 -1143.6118334879 0 0 197 (C1) n - 1
REM
REM in /home/nfs/bkarasulu/CARBON/AIRSS/Generating-Clusters/REBO/Only-C1/SD-CG/HFTN-CG
REM
REM
REM
REM
REM
REM ./C.cell (11c1c37f851c82e70ff6c80c92926a4b)
REM
REM compiler GCC version 9.2.1 20190827 (Red Hat 9.2.1-1)
REM options -cpp -mtune=generic -march=x86-64 -g -O0 -fpre-include=/usr/include/finclude/math-vector-fortran.h
REM seed 1186774708 1022447561 -483558970 -294200023 -750294856 -1987977772 1137048056 -1706301124 510830360 5437972 1708517385 1671954103 72242974 1463242958 -1967395944 -1574148301 2125388089 1111526442 -1269464967 -1166483822 1461428296 388186344 -549834114 414198499 -395091501 -1967506657 1674913780 1525274789 -892118999 -1060659324 938475764 899010991 -1351514161
REM
CELL 1.54180   50.00000   50.00000   50.00000   90.00000   90.00000   90.00000
LATT -1
SFAC C  
C      1  0.5604300000000  0.4720140000000  0.5708390000000 1.0
C      1  0.5844910000000  0.4303280000000  0.5054640000000 1.0
C      1  0.4858590000000  0.4833230000000  0.4695980000000 1.0
C      1  0.5478040000000  0.6027840000000  0.5124830000000 1.0
C      1  0.5673720000000  0.5880640000000  0.4910860000000 1.0
C      1  0.4136970000000  0.4532620000000  0.5365660000000 1.0
C      1  0.4549070000000  0.5819930000000  0.5635960000000 1.0
C      1  0.5551860000000  0.5449930000000  0.4937810000000 1.0
C      1  0.4143670000000  0.5787040000000  0.4949000000000 1.0
C      1  0.5389880000000  0.5861120000000  0.4496670000000 1.0
C      1  0.4454860000000  0.4024240000000  0.4662830000000 1.0
C      1  0.4548020000000  0.4452460000000  0.5324030000000 1.0
C      1  0.4745680000000  0.4641130000000  0.4037460000000 1.0
C      1  0.5752070000000  0.5049380000000  0.5418650000000 1.0
C      1  0.4710610000000  0.5135480000000  0.6021240000000 1.0
C      1  0.4730280000000  0.4487270000000  0.5781340000000 1.0
C      1  0.4556360000000  0.4168030000000  0.4371670000000 1.0
C      1  0.4160060000000  0.5562660000000  0.4301830000000 1.0
C      1  0.5809210000000  0.5034680000000  0.5099110000000 1.0
C      1  0.4009410000000  0.4903150000000  0.5066180000000 1.0
C      1  0.5629480000000  0.4820520000000  0.4899490000000 1.0
C      1  0.3990930000000  0.5456220000000  0.4580830000000 1.0
C      1  0.5158890000000  0.5431320000000  0.5371190000000 1.0
C      1  0.4846980000000  0.4643090000000  0.4347340000000 1.0
C      1  0.4266570000000  0.4866820000000  0.4870220000000 1.0
C      1  0.5451560000000  0.5716820000000  0.3994010000000 1.0
C      1  0.5425640000000  0.4947610000000  0.6248760000000 1.0
C      1  0.4962220000000  0.4953110000000  0.4285380000000 1.0
C      1  0.5493640000000  0.5010690000000  0.3817970000000 1.0
C      1  0.5843520000000  0.5636160000000  0.5325170000000 1.0
C      1  0.4427220000000  0.5275610000000  0.5776510000000 1.0
C      1  0.6015650000000  0.5455730000000  0.5456410000000 1.0
C      1  0.4676780000000  0.6033930000000  0.4710040000000 1.0
C      1  0.5362510000000  0.5250450000000  0.3829210000000 1.0
C      1  0.4966070000000  0.4805120000000  0.5734300000000 1.0
C      1  0.5883850000000  0.5094950000000  0.4485410000000 1.0
C      1  0.5690410000000  0.4043020000000  0.4607270000000 1.0
C      1  0.5111540000000  0.3881390000000  0.5181000000000 1.0
C      1  0.4981760000000  0.4064260000000  0.5438090000000 1.0
C      1  0.3736040000000  0.4722390000000  0.4977540000000 1.0
C      1  0.5950090000000  0.5434720000000  0.4802980000000 1.0
C      1  0.5315470000000  0.5589420000000  0.5834480000000 1.0
C      1  0.5212110000000  0.6038920000000  0.5304990000000 1.0
C      1  0.4765260000000  0.4435420000000  0.4759490000000 1.0
C      1  0.5125830000000  0.4761240000000  0.4058790000000 1.0
C      1  0.5481390000000  0.5444050000000  0.4004510000000 1.0
C      1  0.5734150000000  0.4681380000000  0.4142980000000 1.0
C      1  0.5190700000000  0.5483430000000  0.4772680000000 1.0
C      1  0.3928350000000  0.4681910000000  0.4744220000000 1.0
C      1  0.4760700000000  0.4314490000000  0.4137900000000 1.0
C      1  0.5699720000000  0.4306680000000  0.5362420000000 1.0
C      1  0.5534280000000  0.5313540000000  0.5441710000000 1.0
C      1  0.4690950000000  0.5448980000000  0.5887230000000 1.0
C      1  0.5048010000000  0.4390540000000  0.5385320000000 1.0
C      1  0.5050590000000  0.5443450000000  0.5696030000000 1.0
C      1  0.4031800000000  0.5236950000000  0.5469040000000 1.0
C      1  0.4576550000000  0.5405580000000  0.5336590000000 1.0
C      1  0.5817190000000  0.5620550000000  0.5030720000000 1.0
C      1  0.5152710000000  0.4539070000000  0.6127980000000 1.0
C      1  0.5230270000000  0.4635320000000  0.5346850000000 1.0
C      1  0.4295950000000  0.5667830000000  0.5553260000000 1.0
C      1  0.5105810000000  0.4710600000000  0.4563790000000 1.0
C      1  0.4301620000000  0.4606630000000  0.4345080000000 1.0
C      1  0.5229340000000  0.5803180000000  0.4209760000000 1.0
C      1  0.5319640000000  0.4497460000000  0.4468320000000 1.0
C      1  0.5279420000000  0.5854010000000  0.4958850000000 1.0
C      1  0.4452810000000  0.4777300000000  0.5375030000000 1.0
C      1  0.5688700000000  0.4281770000000  0.4401060000000 1.0
C      1  0.4785730000000  0.3981270000000  0.5200640000000 1.0
C      1  0.4799370000000  0.5504380000000  0.4092190000000 1.0
C      1  0.4282020000000  0.5037060000000  0.5230740000000 1.0
C      1  0.6011420000000  0.4747820000000  0.5290840000000 1.0
C      1  0.5178490000000  0.3797040000000  0.4895160000000 1.0
C      1  0.5794420000000  0.4811990000000  0.4436820000000 1.0
C      1  0.5704050000000  0.5291080000000  0.5934050000000 1.0
C      1  0.5514290000000  0.4581100000000  0.5440130000000 1.0
C      1  0.5201610000000  0.4297240000000  0.5676320000000 1.0
C      1  0.5212290000000  0.4695200000000  0.5034190000000 1.0
C      1  0.5590550000000  0.4425050000000  0.4184670000000 1.0
C      1  0.4944320000000  0.6022910000000  0.4579410000000 1.0
C      1  0.5034540000000  0.5801930000000  0.5478980000000 1.0
C      1  0.3938470000000  0.5267180000000  0.5153620000000 1.0
C      1  0.4514200000000  0.5855550000000  0.4544000000000 1.0
C      1  0.4892590000000  0.5309840000000  0.4450190000000 1.0
C      1  0.4811630000000  0.5196790000000  0.5702250000000 1.0
C      1  0.4228110000000  0.5714740000000  0.5254020000000 1.0
C      1  0.4390560000000  0.4754630000000  0.6061530000000 1.0
C      1  0.4805550000000  0.4743310000000  0.5006620000000 1.0
C      1  0.4765480000000  0.5676850000000  0.5332960000000 1.0
C      1  0.4521200000000  0.4157470000000  0.5195200000000 1.0
C      1  0.5082790000000  0.4441060000000  0.4857760000000 1.0
C      1  0.5283470000000  0.4252550000000  0.4668920000000 1.0
C      1  0.4568970000000  0.6066180000000  0.5016850000000 1.0
C      1  0.5052770000000  0.4259990000000  0.4047580000000 1.0
C      1  0.5438440000000  0.4185490000000  0.5521260000000 1.0
C      1  0.4295860000000  0.4953740000000  0.4111870000000 1.0
C      1  0.4653720000000  0.4787960000000  0.5641180000000 1.0
C      1  0.4354350000000  0.4797800000000  0.4580970000000 1.0
C      1  0.4385660000000  0.4146020000000  0.4914740000000 1.0
C      1  0.4743640000000  0.5076000000000  0.4986180000000 1.0
C      1  0.5412890000000  0.5340140000000  0.4292430000000 1.0
C      1  0.4551660000000  0.4989460000000  0.4017630000000 1.0
C      1  0.4603900000000  0.4897730000000  0.6181180000000 1.0
C      1  0.5998850000000  0.5154310000000  0.4748450000000 1.0
C      1  0.5806870000000  0.4353570000000  0.4715030000000 1.0
C      1  0.4646050000000  0.4465430000000  0.4490020000000 1.0
C      1  0.6167960000000  0.5007310000000  0.5273400000000 1.0
C      1  0.4214560000000  0.4446710000000  0.5103370000000 1.0
C      1  0.5612060000000  0.5749350000000  0.5439270000000 1.0
C      1  0.4452490000000  0.5454590000000  0.4281740000000 1.0
C      1  0.4510250000000  0.4451600000000  0.4929300000000 1.0
C      1  0.4508240000000  0.5210860000000  0.4492090000000 1.0
C      1  0.4514750000000  0.5893180000000  0.5305740000000 1.0
C      1  0.5547150000000  0.5461500000000  0.5707480000000 1.0
C      1  0.5059900000000  0.4517470000000  0.5861740000000 1.0
C      1  0.4942090000000  0.5925160000000  0.4300970000000 1.0
C      1  0.5265920000000  0.4467450000000  0.4139020000000 1.0
C      1  0.5689190000000  0.4039090000000  0.4929370000000 1.0
C      1  0.5430460000000  0.5002460000000  0.5486650000000 1.0
C      1  0.5645970000000  0.4900170000000  0.5994000000000 1.0
C      1  0.4226100000000  0.5404220000000  0.5625010000000 1.0
C      1  0.3967180000000  0.4937480000000  0.4615380000000 1.0
C      1  0.4293060000000  0.5610470000000  0.4612140000000 1.0
C      1  0.5943120000000  0.5359820000000  0.5707290000000 1.0
C      1  0.4110840000000  0.4994530000000  0.4333350000000 1.0
C      1  0.6172480000000  0.5274210000000  0.5306000000000 1.0
C      1  0.4262020000000  0.5383290000000  0.4864360000000 1.0
C      1  0.5875830000000  0.4682840000000  0.5574600000000 1.0
C      1  0.5057600000000  0.5213100000000  0.3927750000000 1.0
C      1  0.5169380000000  0.4132940000000  0.4407580000000 1.0
C      1  0.4899480000000  0.5154700000000  0.4690240000000 1.0
C      1  0.5838870000000  0.5040080000000  0.5748180000000 1.0
C      1  0.5455990000000  0.4214800000000  0.5060370000000 1.0
C      1  0.4621910000000  0.5570450000000  0.4835760000000 1.0
C      1  0.4815350000000  0.4811590000000  0.6341550000000 1.0
C      1  0.5269790000000  0.5556200000000  0.5091390000000 1.0
C      1  0.4181030000000  0.4832660000000  0.5798650000000 1.0
C      1  0.5139930000000  0.5227440000000  0.4258020000000 1.0
C      1  0.4295550000000  0.5384120000000  0.5207460000000 1.0
C      1  0.4942830000000  0.5646370000000  0.4711250000000 1.0
C      1  0.4211220000000  0.5225420000000  0.4500360000000 1.0
C      1  0.3968960000000  0.5212520000000  0.4817050000000 1.0
C      1  0.4014410000000  0.4961170000000  0.5560670000000 1.0
C      1  0.5343410000000  0.4072960000000  0.5272500000000 1.0
C      1  0.4746200000000  0.5192190000000  0.4173140000000 1.0
C      1  0.4731140000000  0.5783270000000  0.4160990000000 1.0
C      1  0.5054640000000  0.5240800000000  0.4975240000000 1.0
C      1  0.4841780000000  0.4437220000000  0.5151040000000 1.0
C      1  0.5201860000000  0.5212470000000  0.5904270000000 1.0
C      1  0.3990370000000  0.4778450000000  0.5349580000000 1.0
C      1  0.4830590000000  0.4166890000000  0.4934780000000 1.0
C      1  0.5642960000000  0.5801270000000  0.4624730000000 1.0
C      1  0.4964130000000  0.6026080000000  0.5138870000000 1.0
C      1  0.5000290000000  0.4992750000000  0.5987220000000 1.0
C      1  0.5446530000000  0.4824390000000  0.4057940000000 1.0
C      1  0.5399630000000  0.3958820000000  0.4762830000000 1.0
C      1  0.5458320000000  0.4799900000000  0.4398800000000 1.0
C      1  0.5463470000000  0.4494910000000  0.5053840000000 1.0
C      1  0.5462290000000  0.5241030000000  0.6123080000000 1.0
C      1  0.5816940000000  0.5578470000000  0.4569000000000 1.0
C      1  0.5200960000000  0.5950470000000  0.4697840000000 1.0
C      1  0.5527800000000  0.5195060000000  0.5121740000000 1.0
C      1  0.4955100000000  0.3741330000000  0.4736260000000 1.0
C      1  0.4776400000000  0.3986220000000  0.4650750000000 1.0
C      1  0.5367810000000  0.4869400000000  0.4712270000000 1.0
C      1  0.5712680000000  0.5325790000000  0.4410900000000 1.0
C      1  0.4869350000000  0.4928810000000  0.3901220000000 1.0
C      1  0.4456750000000  0.5125170000000  0.4955390000000 1.0
C      1  0.5287840000000  0.5025600000000  0.5003740000000 1.0
C      1  0.4431280000000  0.4578890000000  0.4095730000000 1.0
C      1  0.5845610000000  0.4660570000000  0.4703890000000 1.0
C      1  0.4440330000000  0.5796470000000  0.4928380000000 1.0
C      1  0.5707190000000  0.4663050000000  0.5190940000000 1.0
C      1  0.6048710000000  0.4548040000000  0.5029090000000 1.0
C      1  0.5320870000000  0.5533760000000  0.6111500000000 1.0
C      1  0.4134340000000  0.4476090000000  0.4798190000000 1.0
C      1  0.5009830000000  0.5147010000000  0.5359800000000 1.0
C      1  0.4851950000000  0.5497430000000  0.5068540000000 1.0
C      1  0.4450020000000  0.4996970000000  0.5752100000000 1.0
C      1  0.5135750000000  0.4832260000000  0.6238780000000 1.0
C      1  0.4483090000000  0.4739570000000  0.5057360000000 1.0
C      1  0.5457400000000  0.5413130000000  0.4619900000000 1.0
C      1  0.4316650000000  0.4403380000000  0.4583130000000 1.0
C      1  0.4823250000000  0.5699600000000  0.5726300000000 1.0
C      1  0.5385600000000  0.4970460000000  0.5799030000000 1.0
C      1  0.6024130000000  0.4866160000000  0.4909460000000 1.0
C      1  0.4883640000000  0.5826970000000  0.4982330000000 1.0
C      1  0.4435760000000  0.4532680000000  0.5859070000000 1.0
C      1  0.4892140000000  0.4112990000000  0.4382120000000 1.0
C      1  0.5095090000000  0.5544680000000  0.4026690000000 1.0
C      1  0.5351750000000  0.5699770000000  0.5453560000000 1.0
C      1  0.5130640000000  0.4892190000000  0.5490920000000 1.0
C      1  0.4869840000000  0.4214860000000  0.5696700000000 1.0
C      1  0.4688180000000  0.5566420000000  0.4492160000000 1.0
C      1  0.4713820000000  0.5172540000000  0.5413630000000 1.0
C      1  0.4235320000000  0.4535040000000  0.5636090000000 1.0
C      1  0.4595610000000  0.4946230000000  0.4539230000000 1.0
END
