TITL C-2778434-4341-834 -0.00232117972147809 125000 -677.285750783606 0 0 116 (C1) n - 1
REM
REM in /home/nfs/bkarasulu/CARBON/AIRSS/Generating-Clusters/REBO/Only-C1/SD-CG/HFTN-CG
REM
REM
REM
REM
REM
REM ./C.cell (11c1c37f851c82e70ff6c80c92926a4b)
REM
REM compiler GCC version 9.2.1 20190827 (Red Hat 9.2.1-1)
REM options -cpp -mtune=generic -march=x86-64 -g -O0 -fpre-include=/usr/include/finclude/math-vector-fortran.h
REM seed -1473036448 -36421598 1356930768 -121676402 19963676 923364434 -766153270 465243155 2010024139 293255298 1944710074 -835185288 1661747252 -530188745 642588014 -744046218 1876477036 1918819569 -1538740207 928287369 734663412 1097185381 -991339413 1062087983 -922155006 400869528 1772862121 -1282680156 765194698 -1144533482 -344276152 -2004903329 1417170637
REM
CELL 1.54180   50.00000   50.00000   50.00000   90.00000   90.00000   90.00000
LATT -1
SFAC C  
C      1  0.4259870000000  0.5400070000000  0.4394420000000 1.0
C      1  0.5004170000000  0.4664940000000  0.5232720000000 1.0
C      1  0.5014510000000  0.4327120000000  0.5284990000000 1.0
C      1  0.4175290000000  0.4993430000000  0.4854870000000 1.0
C      1  0.5035250000000  0.5886890000000  0.4657590000000 1.0
C      1  0.5331410000000  0.5033460000000  0.5885410000000 1.0
C      1  0.5548610000000  0.5304980000000  0.4579310000000 1.0
C      1  0.4811510000000  0.4855050000000  0.4671940000000 1.0
C      1  0.4730740000000  0.5338690000000  0.4832230000000 1.0
C      1  0.4229540000000  0.4562160000000  0.5010860000000 1.0
C      1  0.4352860000000  0.4857910000000  0.4663650000000 1.0
C      1  0.5582740000000  0.4618970000000  0.5117700000000 1.0
C      1  0.4427470000000  0.5876420000000  0.5695080000000 1.0
C      1  0.4455330000000  0.5845960000000  0.5367140000000 1.0
C      1  0.5926920000000  0.4739830000000  0.5280490000000 1.0
C      1  0.5048310000000  0.4723030000000  0.5651460000000 1.0
C      1  0.5136100000000  0.5316770000000  0.5509200000000 1.0
C      1  0.5050750000000  0.5040240000000  0.5936270000000 1.0
C      1  0.4685320000000  0.5856080000000  0.5190630000000 1.0
C      1  0.4733040000000  0.4200560000000  0.5247000000000 1.0
C      1  0.5159840000000  0.5640040000000  0.5529410000000 1.0
C      1  0.4745690000000  0.4799110000000  0.5402670000000 1.0
C      1  0.5673610000000  0.4203410000000  0.5226310000000 1.0
C      1  0.4730730000000  0.5883750000000  0.4638680000000 1.0
C      1  0.4792080000000  0.4669760000000  0.5777800000000 1.0
C      1  0.4891280000000  0.5636080000000  0.4463400000000 1.0
C      1  0.4494280000000  0.6010210000000  0.5907700000000 1.0
C      1  0.4995660000000  0.4959230000000  0.4888420000000 1.0
C      1  0.4271320000000  0.5326550000000  0.5645290000000 1.0
C      1  0.4126940000000  0.4821040000000  0.5093790000000 1.0
C      1  0.5584730000000  0.5743640000000  0.4757210000000 1.0
C      1  0.4522960000000  0.5530920000000  0.4823270000000 1.0
C      1  0.5618980000000  0.4947450000000  0.5139850000000 1.0
C      1  0.5621940000000  0.4642970000000  0.4382250000000 1.0
C      1  0.5632780000000  0.4909440000000  0.4334900000000 1.0
C      1  0.4295410000000  0.5238790000000  0.4971900000000 1.0
C      1  0.5071030000000  0.3894620000000  0.4960830000000 1.0
C      1  0.5217280000000  0.5624500000000  0.4421160000000 1.0
C      1  0.4470710000000  0.5286470000000  0.4264480000000 1.0
C      1  0.5214250000000  0.4364560000000  0.4358540000000 1.0
C      1  0.5025810000000  0.5209020000000  0.4208110000000 1.0
C      1  0.5113520000000  0.5003880000000  0.4456670000000 1.0
C      1  0.4603450000000  0.5800540000000  0.4878490000000 1.0
C      1  0.4905880000000  0.5187250000000  0.5016790000000 1.0
C      1  0.5518590000000  0.4967210000000  0.4837570000000 1.0
C      1  0.5042920000000  0.5375960000000  0.5204430000000 1.0
C      1  0.5191790000000  0.4172820000000  0.5068700000000 1.0
C      1  0.5463070000000  0.4548920000000  0.5492230000000 1.0
C      1  0.4466910000000  0.4684090000000  0.4136880000000 1.0
C      1  0.4723260000000  0.4730770000000  0.6032490000000 1.0
C      1  0.4267520000000  0.5614800000000  0.5571560000000 1.0
C      1  0.4807260000000  0.4540970000000  0.4990660000000 1.0
C      1  0.5490000000000  0.5707390000000  0.5511290000000 1.0
C      1  0.5307490000000  0.5340240000000  0.4350980000000 1.0
C      1  0.5537040000000  0.4458380000000  0.4825640000000 1.0
C      1  0.5689410000000  0.5170940000000  0.5544490000000 1.0
C      1  0.5138450000000  0.5818700000000  0.4899270000000 1.0
C      1  0.4297880000000  0.5490140000000  0.4652510000000 1.0
C      1  0.5176690000000  0.4482700000000  0.5540870000000 1.0
C      1  0.4929700000000  0.4173030000000  0.4630340000000 1.0
C      1  0.5744250000000  0.5245430000000  0.5012830000000 1.0
C      1  0.5107120000000  0.4695510000000  0.4552440000000 1.0
C      1  0.4745180000000  0.5329730000000  0.4434750000000 1.0
C      1  0.5513660000000  0.5321730000000  0.5218870000000 1.0
C      1  0.5792220000000  0.4901570000000  0.5501410000000 1.0
C      1  0.4601980000000  0.4556290000000  0.5574260000000 1.0
C      1  0.5298390000000  0.5784090000000  0.5243020000000 1.0
C      1  0.5802820000000  0.4453860000000  0.5305510000000 1.0
C      1  0.4519280000000  0.4362150000000  0.5388680000000 1.0
C      1  0.4211990000000  0.5662240000000  0.5252440000000 1.0
C      1  0.4634830000000  0.5007450000000  0.5597410000000 1.0
C      1  0.5377050000000  0.5027600000000  0.4236720000000 1.0
C      1  0.4368120000000  0.4577790000000  0.4741830000000 1.0
C      1  0.5123890000000  0.4976770000000  0.5548360000000 1.0
C      1  0.5055620000000  0.4543690000000  0.4182710000000 1.0
C      1  0.4225170000000  0.4618920000000  0.4061370000000 1.0
C      1  0.4529560000000  0.5054400000000  0.5028420000000 1.0
C      1  0.5274050000000  0.5397610000000  0.4757510000000 1.0
C      1  0.5862200000000  0.4529370000000  0.4846900000000 1.0
C      1  0.4695970000000  0.4279820000000  0.4415840000000 1.0
C      1  0.5169540000000  0.4846800000000  0.4093630000000 1.0
C      1  0.4364180000000  0.5080050000000  0.5541980000000 1.0
C      1  0.5211050000000  0.4101210000000  0.4350160000000 1.0
C      1  0.4493540000000  0.4483670000000  0.5109140000000 1.0
C      1  0.5301190000000  0.4737000000000  0.5259200000000 1.0
C      1  0.5396540000000  0.4525560000000  0.4567000000000 1.0
C      1  0.5261280000000  0.4944970000000  0.4822680000000 1.0
C      1  0.4983250000000  0.5873410000000  0.5355480000000 1.0
C      1  0.4842120000000  0.4807380000000  0.4122080000000 1.0
C      1  0.4809470000000  0.4550090000000  0.4590820000000 1.0
C      1  0.4561640000000  0.6145090000000  0.6122070000000 1.0
C      1  0.4809560000000  0.5067900000000  0.5810640000000 1.0
C      1  0.4604080000000  0.5027900000000  0.4534560000000 1.0
C      1  0.4588980000000  0.4981010000000  0.4207170000000 1.0
C      1  0.4207960000000  0.4935840000000  0.5346790000000 1.0
C      1  0.5949850000000  0.4758490000000  0.4980770000000 1.0
C      1  0.4727610000000  0.4489870000000  0.4187220000000 1.0
C      1  0.5643640000000  0.5473440000000  0.5464440000000 1.0
C      1  0.4674290000000  0.4838050000000  0.5093130000000 1.0
C      1  0.4986380000000  0.4317860000000  0.4863600000000 1.0
C      1  0.5308030000000  0.5497370000000  0.5058650000000 1.0
C      1  0.5858900000000  0.5001810000000  0.4826070000000 1.0
C      1  0.4946440000000  0.5660980000000  0.5105590000000 1.0
C      1  0.5410750000000  0.5217100000000  0.5680290000000 1.0
C      1  0.5011590000000  0.5272260000000  0.4640770000000 1.0
C      1  0.5404050000000  0.5780700000000  0.4549720000000 1.0
C      1  0.4653400000000  0.4125650000000  0.4969440000000 1.0
C      1  0.5364990000000  0.5050490000000  0.5321310000000 1.0
C      1  0.5742170000000  0.5078820000000  0.4532400000000 1.0
C      1  0.5659360000000  0.5486830000000  0.4813320000000 1.0
C      1  0.4804120000000  0.3895260000000  0.4888930000000 1.0
C      1  0.5477230000000  0.4229200000000  0.5035850000000 1.0
C      1  0.5630660000000  0.4708910000000  0.5660490000000 1.0
C      1  0.4580710000000  0.4340080000000  0.4730800000000 1.0
C      1  0.5508040000000  0.4809180000000  0.5901160000000 1.0
C      1  0.4202200000000  0.5480920000000  0.5060530000000 1.0
END
