TITL C-2778424-3986-1392 -0.00268131047984485 125000 -548.724049443513 0 0 94 (C1) n - 1
REM
REM in /home/nfs/bkarasulu/CARBON/AIRSS/Generating-Clusters/REBO/Only-C1/SD-CG/HFTN-CG
REM
REM
REM
REM
REM
REM ./C.cell (11c1c37f851c82e70ff6c80c92926a4b)
REM
REM compiler GCC version 9.2.1 20190827 (Red Hat 9.2.1-1)
REM options -cpp -mtune=generic -march=x86-64 -g -O0 -fpre-include=/usr/include/finclude/math-vector-fortran.h
REM seed -1469595681 -2072465658 1158855673 -80569600 -1690340826 27105502 23272841 -1200353288 -997879759 -1603074476 -1498459669 -1903987370 1767380067 941192940 301164275 -2108674979 75505056 -486034283 1578839249 -1350136664 -1903086209 969030647 943837290 231455299 407870980 -1794542434 -1001791489 51881616 -496483825 576779921 1043381402 107747816 -111356335
REM
CELL 1.54180   50.00000   50.00000   50.00000   90.00000   90.00000   90.00000
LATT -1
SFAC C  
C      1  0.5221690000000  0.4557930000000  0.4163320000000 1.0
C      1  0.5399630000000  0.4662300000000  0.4795880000000 1.0
C      1  0.5041280000000  0.4720990000000  0.4130440000000 1.0
C      1  0.5208690000000  0.4701780000000  0.5238130000000 1.0
C      1  0.5370790000000  0.5185020000000  0.4743610000000 1.0
C      1  0.5001830000000  0.4428610000000  0.4497380000000 1.0
C      1  0.5098790000000  0.5181050000000  0.4390160000000 1.0
C      1  0.4932190000000  0.4311460000000  0.5295870000000 1.0
C      1  0.5387050000000  0.5436270000000  0.5540380000000 1.0
C      1  0.4401750000000  0.5122680000000  0.5661390000000 1.0
C      1  0.5410150000000  0.4420800000000  0.4384180000000 1.0
C      1  0.5225250000000  0.5219160000000  0.5246570000000 1.0
C      1  0.4258080000000  0.5180130000000  0.5431600000000 1.0
C      1  0.4950180000000  0.5165460000000  0.5533680000000 1.0
C      1  0.5645360000000  0.5333640000000  0.5501460000000 1.0
C      1  0.5215980000000  0.5263160000000  0.5674760000000 1.0
C      1  0.5440150000000  0.5646870000000  0.4568040000000 1.0
C      1  0.5681520000000  0.4387590000000  0.4938890000000 1.0
C      1  0.4813420000000  0.4493830000000  0.4865060000000 1.0
C      1  0.5838310000000  0.5162770000000  0.5281170000000 1.0
C      1  0.4517640000000  0.5329660000000  0.4386210000000 1.0
C      1  0.5008840000000  0.5475920000000  0.5007720000000 1.0
C      1  0.5588070000000  0.5256710000000  0.4277050000000 1.0
C      1  0.4767780000000  0.4816390000000  0.5199890000000 1.0
C      1  0.5248990000000  0.5579270000000  0.5309960000000 1.0
C      1  0.4537370000000  0.4972460000000  0.5040450000000 1.0
C      1  0.4564670000000  0.5665050000000  0.4881660000000 1.0
C      1  0.5107300000000  0.4644910000000  0.4945900000000 1.0
C      1  0.4982870000000  0.4175560000000  0.5037620000000 1.0
C      1  0.4184780000000  0.4673800000000  0.5233860000000 1.0
C      1  0.5786670000000  0.4675650000000  0.4927810000000 1.0
C      1  0.5458500000000  0.4563740000000  0.5624700000000 1.0
C      1  0.5306340000000  0.5368740000000  0.4978320000000 1.0
C      1  0.4942900000000  0.5093160000000  0.5102060000000 1.0
C      1  0.4314980000000  0.4655910000000  0.4739470000000 1.0
C      1  0.4907630000000  0.4891760000000  0.5824290000000 1.0
C      1  0.4994420000000  0.4878700000000  0.5434190000000 1.0
C      1  0.4980400000000  0.5742720000000  0.5302610000000 1.0
C      1  0.4717160000000  0.5160190000000  0.5748930000000 1.0
C      1  0.4177040000000  0.5109250000000  0.4933590000000 1.0
C      1  0.4567790000000  0.4856710000000  0.5787530000000 1.0
C      1  0.4543110000000  0.5267560000000  0.4920240000000 1.0
C      1  0.5021080000000  0.4633340000000  0.5661900000000 1.0
C      1  0.4238700000000  0.5433670000000  0.5292140000000 1.0
C      1  0.4426470000000  0.4363710000000  0.5167500000000 1.0
C      1  0.5126090000000  0.4394980000000  0.5480990000000 1.0
C      1  0.5458820000000  0.4291600000000  0.5074550000000 1.0
C      1  0.5668040000000  0.4931950000000  0.5117910000000 1.0
C      1  0.5230450000000  0.4265440000000  0.4621140000000 1.0
C      1  0.4835730000000  0.5044200000000  0.4557490000000 1.0
C      1  0.5215600000000  0.4977600000000  0.5766290000000 1.0
C      1  0.4705600000000  0.5607080000000  0.5450870000000 1.0
C      1  0.4801250000000  0.4886430000000  0.4257520000000 1.0
C      1  0.4598330000000  0.4933150000000  0.4708130000000 1.0
C      1  0.4267300000000  0.4958650000000  0.4717840000000 1.0
C      1  0.5461900000000  0.4757290000000  0.4412360000000 1.0
C      1  0.4690950000000  0.5686380000000  0.5125770000000 1.0
C      1  0.5186400000000  0.5503160000000  0.4459850000000 1.0
C      1  0.5728510000000  0.4790760000000  0.4611330000000 1.0
C      1  0.4758050000000  0.4586760000000  0.4378300000000 1.0
C      1  0.4593160000000  0.5569860000000  0.4553340000000 1.0
C      1  0.4253690000000  0.4963900000000  0.5211860000000 1.0
C      1  0.5027320000000  0.5798870000000  0.4942510000000 1.0
C      1  0.5439800000000  0.4831380000000  0.5678180000000 1.0
C      1  0.4276550000000  0.5398420000000  0.5004350000000 1.0
C      1  0.4558670000000  0.5626190000000  0.5674440000000 1.0
C      1  0.5235480000000  0.4208320000000  0.4904770000000 1.0
C      1  0.5430080000000  0.5655750000000  0.5036630000000 1.0
C      1  0.4861420000000  0.5362760000000  0.5293450000000 1.0
C      1  0.4757680000000  0.4455870000000  0.5619870000000 1.0
C      1  0.5622140000000  0.4467040000000  0.4629580000000 1.0
C      1  0.4628440000000  0.4616790000000  0.4658160000000 1.0
C      1  0.4222840000000  0.4527900000000  0.4971460000000 1.0
C      1  0.4582710000000  0.5127790000000  0.4260410000000 1.0
C      1  0.5546870000000  0.5349180000000  0.4535580000000 1.0
C      1  0.5044660000000  0.4711810000000  0.4624570000000 1.0
C      1  0.5489910000000  0.5780000000000  0.4801810000000 1.0
C      1  0.5395200000000  0.4441640000000  0.5328310000000 1.0
C      1  0.5053380000000  0.5130340000000  0.4783200000000 1.0
C      1  0.5642280000000  0.5001920000000  0.5509910000000 1.0
C      1  0.4678880000000  0.4253630000000  0.4993520000000 1.0
C      1  0.5769310000000  0.5293870000000  0.4757810000000 1.0
C      1  0.4792090000000  0.5339990000000  0.4822200000000 1.0
C      1  0.4937940000000  0.5903380000000  0.4698320000000 1.0
C      1  0.5861610000000  0.5253160000000  0.4979190000000 1.0
C      1  0.4323040000000  0.4527300000000  0.5453410000000 1.0
C      1  0.4632720000000  0.5888450000000  0.4663080000000 1.0
C      1  0.5527800000000  0.4954580000000  0.4825880000000 1.0
C      1  0.4960980000000  0.5441600000000  0.4219330000000 1.0
C      1  0.4900100000000  0.5675730000000  0.4460090000000 1.0
C      1  0.5212750000000  0.4892420000000  0.4474950000000 1.0
C      1  0.4688690000000  0.4517220000000  0.5291930000000 1.0
C      1  0.4497860000000  0.4593380000000  0.5659190000000 1.0
C      1  0.5387340000000  0.4958100000000  0.5290820000000 1.0
END
