TITL C-2778423-5760-331 0.0036895472370624 125000 -1066.92567714261 0 0 183 (C1) n - 1
REM
REM in /home/nfs/bkarasulu/CARBON/AIRSS/Generating-Clusters/REBO/Only-C1/SD-CG/HFTN-CG
REM
REM
REM
REM
REM
REM ./C.cell (11c1c37f851c82e70ff6c80c92926a4b)
REM
REM compiler GCC version 9.2.1 20190827 (Red Hat 9.2.1-1)
REM options -cpp -mtune=generic -march=x86-64 -g -O0 -fpre-include=/usr/include/finclude/math-vector-fortran.h
REM seed 14444495 769868082 -732054489 -1539759942 -2027411531 -1654423525 -2093325453 2085054669 917811374 -373328073 -617818425 -1824092878 -1427888087 -1450329007 -411717735 2108602808 -685750035 -702033611 -1770704147 654818142 1411054826 -802007569 1416148092 -142579888 51413523 -967713943 1696102133 -1319007917 -1129399441 -1539937636 2089424862 -351731368 -1882433082
REM
CELL 1.54180   50.00000   50.00000   50.00000   90.00000   90.00000   90.00000
LATT -1
SFAC C  
C      1  0.5317650000000  0.5639220000000  0.5443360000000 1.0
C      1  0.4959710000000  0.4959440000000  0.4393290000000 1.0
C      1  0.5072730000000  0.3970290000000  0.4434850000000 1.0
C      1  0.4600340000000  0.5328650000000  0.6109590000000 1.0
C      1  0.5614900000000  0.5178470000000  0.5703920000000 1.0
C      1  0.5478340000000  0.4089920000000  0.4898980000000 1.0
C      1  0.3896220000000  0.4209260000000  0.5113390000000 1.0
C      1  0.5695900000000  0.5331820000000  0.4683520000000 1.0
C      1  0.5835300000000  0.5394070000000  0.5198830000000 1.0
C      1  0.5570040000000  0.4644150000000  0.5841200000000 1.0
C      1  0.4986380000000  0.3918150000000  0.4985900000000 1.0
C      1  0.4069960000000  0.5318660000000  0.5006080000000 1.0
C      1  0.5292450000000  0.4247160000000  0.5772570000000 1.0
C      1  0.4769590000000  0.4152480000000  0.5549370000000 1.0
C      1  0.5425090000000  0.4913750000000  0.5729990000000 1.0
C      1  0.4371390000000  0.4625250000000  0.5427660000000 1.0
C      1  0.4857470000000  0.5123670000000  0.5888470000000 1.0
C      1  0.4379660000000  0.5843630000000  0.5112700000000 1.0
C      1  0.5665940000000  0.5943990000000  0.5150630000000 1.0
C      1  0.5772660000000  0.5551030000000  0.4432120000000 1.0
C      1  0.5097950000000  0.5049180000000  0.3833720000000 1.0
C      1  0.5419730000000  0.4338930000000  0.5501170000000 1.0
C      1  0.5573510000000  0.5717550000000  0.5587860000000 1.0
C      1  0.5765840000000  0.4012860000000  0.4986400000000 1.0
C      1  0.4652330000000  0.4935650000000  0.4454320000000 1.0
C      1  0.4548910000000  0.5781740000000  0.5328390000000 1.0
C      1  0.4953440000000  0.5779430000000  0.4440140000000 1.0
C      1  0.5490870000000  0.5742710000000  0.4418200000000 1.0
C      1  0.4269090000000  0.5055310000000  0.5040560000000 1.0
C      1  0.5833200000000  0.5544770000000  0.5473830000000 1.0
C      1  0.5680370000000  0.5728850000000  0.4701410000000 1.0
C      1  0.4877920000000  0.4820660000000  0.6148270000000 1.0
C      1  0.5943260000000  0.4390010000000  0.5219000000000 1.0
C      1  0.4675580000000  0.4727330000000  0.5407560000000 1.0
C      1  0.3965540000000  0.4799200000000  0.5087520000000 1.0
C      1  0.5623880000000  0.3998560000000  0.5451640000000 1.0
C      1  0.4602960000000  0.5061820000000  0.5105110000000 1.0
C      1  0.4147890000000  0.5105460000000  0.4320660000000 1.0
C      1  0.4556490000000  0.4970350000000  0.4779230000000 1.0
C      1  0.4224640000000  0.4815100000000  0.5672170000000 1.0
C      1  0.5534150000000  0.5357450000000  0.4320670000000 1.0
C      1  0.5072610000000  0.4341890000000  0.5905200000000 1.0
C      1  0.4989400000000  0.5162570000000  0.5507520000000 1.0
C      1  0.4146050000000  0.5796440000000  0.4800060000000 1.0
C      1  0.4929490000000  0.5643370000000  0.5084190000000 1.0
C      1  0.4635200000000  0.5004700000000  0.5712950000000 1.0
C      1  0.5572030000000  0.5967760000000  0.4862520000000 1.0
C      1  0.4695470000000  0.5038490000000  0.5390310000000 1.0
C      1  0.4236700000000  0.5493130000000  0.4806170000000 1.0
C      1  0.5136190000000  0.5874280000000  0.5177650000000 1.0
C      1  0.5649250000000  0.5515260000000  0.4966710000000 1.0
C      1  0.5401350000000  0.3977380000000  0.5332190000000 1.0
C      1  0.4505160000000  0.5211840000000  0.4465420000000 1.0
C      1  0.4853130000000  0.5505480000000  0.4345260000000 1.0
C      1  0.4961900000000  0.4633740000000  0.4293210000000 1.0
C      1  0.5091680000000  0.4920830000000  0.5209630000000 1.0
C      1  0.5131190000000  0.5508190000000  0.4063780000000 1.0
C      1  0.4117700000000  0.4842750000000  0.5355340000000 1.0
C      1  0.3955770000000  0.5156770000000  0.4597930000000 1.0
C      1  0.4051410000000  0.5797280000000  0.5129250000000 1.0
C      1  0.5036080000000  0.4684670000000  0.4993990000000 1.0
C      1  0.5914460000000  0.4876020000000  0.4573080000000 1.0
C      1  0.4652730000000  0.4901110000000  0.4006120000000 1.0
C      1  0.5969620000000  0.4908040000000  0.5061090000000 1.0
C      1  0.4355050000000  0.6102690000000  0.5464060000000 1.0
C      1  0.5148360000000  0.5192940000000  0.5793590000000 1.0
C      1  0.4909780000000  0.4640180000000  0.5584660000000 1.0
C      1  0.5105590000000  0.6153070000000  0.5009430000000 1.0
C      1  0.5284610000000  0.5368730000000  0.5271730000000 1.0
C      1  0.5757060000000  0.4289170000000  0.5469110000000 1.0
C      1  0.4709890000000  0.5388970000000  0.4612470000000 1.0
C      1  0.5347680000000  0.4733040000000  0.4861740000000 1.0
C      1  0.4669850000000  0.4013880000000  0.4999490000000 1.0
C      1  0.5288460000000  0.4705040000000  0.4358130000000 1.0
C      1  0.4749340000000  0.4592190000000  0.5123140000000 1.0
C      1  0.5586470000000  0.4291460000000  0.4609760000000 1.0
C      1  0.4675880000000  0.5715290000000  0.4627630000000 1.0
C      1  0.5760230000000  0.4441170000000  0.4328680000000 1.0
C      1  0.5153360000000  0.4190360000000  0.4681750000000 1.0
C      1  0.5889980000000  0.5137530000000  0.4482610000000 1.0
C      1  0.5380230000000  0.5403790000000  0.5932140000000 1.0
C      1  0.4883110000000  0.4898840000000  0.4778600000000 1.0
C      1  0.5865560000000  0.5168340000000  0.4202090000000 1.0
C      1  0.5265140000000  0.5967000000000  0.4811000000000 1.0
C      1  0.4439880000000  0.4719480000000  0.4085820000000 1.0
C      1  0.4981550000000  0.5900060000000  0.5456410000000 1.0
C      1  0.4199850000000  0.5114500000000  0.5787090000000 1.0
C      1  0.4218920000000  0.5353540000000  0.4550540000000 1.0
C      1  0.4812590000000  0.4291290000000  0.5793260000000 1.0
C      1  0.5938620000000  0.4232930000000  0.4983680000000 1.0
C      1  0.5786000000000  0.4756860000000  0.5445290000000 1.0
C      1  0.4358660000000  0.5318740000000  0.4179860000000 1.0
C      1  0.4117420000000  0.4506900000000  0.4604510000000 1.0
C      1  0.5965640000000  0.4616370000000  0.4470050000000 1.0
C      1  0.4837150000000  0.5372690000000  0.4077320000000 1.0
C      1  0.5258230000000  0.5521420000000  0.4354970000000 1.0
C      1  0.4689890000000  0.6042730000000  0.5449350000000 1.0
C      1  0.5207300000000  0.4899050000000  0.5522340000000 1.0
C      1  0.4308430000000  0.4512300000000  0.4322350000000 1.0
C      1  0.5124670000000  0.4603340000000  0.6094200000000 1.0
C      1  0.5381460000000  0.4646920000000  0.5190140000000 1.0
C      1  0.5183670000000  0.4572860000000  0.5425560000000 1.0
C      1  0.6067120000000  0.5195900000000  0.5125110000000 1.0
C      1  0.5330250000000  0.4428330000000  0.4073870000000 1.0
C      1  0.5672850000000  0.5474920000000  0.5773610000000 1.0
C      1  0.5495990000000  0.5008040000000  0.4836660000000 1.0
C      1  0.5548320000000  0.4877230000000  0.5305140000000 1.0
C      1  0.5095880000000  0.5716030000000  0.5647750000000 1.0
C      1  0.5044610000000  0.4461250000000  0.4557950000000 1.0
C      1  0.5774380000000  0.4850250000000  0.4835940000000 1.0
C      1  0.4542870000000  0.4306550000000  0.4447140000000 1.0
C      1  0.5423610000000  0.5713940000000  0.5129610000000 1.0
C      1  0.4449190000000  0.5212050000000  0.5892970000000 1.0
C      1  0.5029930000000  0.5209920000000  0.5112910000000 1.0
C      1  0.4873760000000  0.5456390000000  0.5992110000000 1.0
C      1  0.4769700000000  0.5283520000000  0.4905290000000 1.0
C      1  0.4381130000000  0.5321590000000  0.5312440000000 1.0
C      1  0.4100340000000  0.4813100000000  0.4465260000000 1.0
C      1  0.4924840000000  0.4819510000000  0.3920750000000 1.0
C      1  0.4433740000000  0.5969440000000  0.4812450000000 1.0
C      1  0.4620720000000  0.5189530000000  0.4049720000000 1.0
C      1  0.4315450000000  0.5635710000000  0.4287210000000 1.0
C      1  0.5507520000000  0.4401240000000  0.5012570000000 1.0
C      1  0.5033570000000  0.5165130000000  0.4656180000000 1.0
C      1  0.4857820000000  0.6212160000000  0.5239790000000 1.0
C      1  0.5793200000000  0.5875930000000  0.5399560000000 1.0
C      1  0.5234600000000  0.5094270000000  0.4318930000000 1.0
C      1  0.5408800000000  0.4890230000000  0.4108790000000 1.0
C      1  0.3892920000000  0.5057240000000  0.4901930000000 1.0
C      1  0.3927430000000  0.4749490000000  0.4752200000000 1.0
C      1  0.5975840000000  0.4682840000000  0.5243170000000 1.0
C      1  0.4346790000000  0.4316670000000  0.5311010000000 1.0
C      1  0.4516370000000  0.4578450000000  0.4915480000000 1.0
C      1  0.4472580000000  0.5418270000000  0.5012310000000 1.0
C      1  0.6246000000000  0.5182090000000  0.5349140000000 1.0
C      1  0.4687860000000  0.4347250000000  0.5291070000000 1.0
C      1  0.3957330000000  0.5514850000000  0.5204310000000 1.0
C      1  0.5207090000000  0.5887890000000  0.4503160000000 1.0
C      1  0.4723650000000  0.5819430000000  0.4913900000000 1.0
C      1  0.5228650000000  0.4314680000000  0.4311660000000 1.0
C      1  0.4145030000000  0.4289230000000  0.5086830000000 1.0
C      1  0.3930690000000  0.5378180000000  0.5443820000000 1.0
C      1  0.4597960000000  0.5513350000000  0.5383970000000 1.0
C      1  0.4790600000000  0.5091960000000  0.6222280000000 1.0
C      1  0.5407820000000  0.5175470000000  0.4583200000000 1.0
C      1  0.4135360000000  0.6020910000000  0.5372340000000 1.0
C      1  0.4804350000000  0.4331850000000  0.4267760000000 1.0
C      1  0.4922600000000  0.4708270000000  0.5849650000000 1.0
C      1  0.4274330000000  0.4725130000000  0.5008570000000 1.0
C      1  0.5618160000000  0.4431090000000  0.4085370000000 1.0
C      1  0.4514730000000  0.4713570000000  0.5788870000000 1.0
C      1  0.6200770000000  0.5298880000000  0.4892930000000 1.0
C      1  0.4592110000000  0.4638340000000  0.4444150000000 1.0
C      1  0.5728110000000  0.4554160000000  0.5637040000000 1.0
C      1  0.4557560000000  0.4046090000000  0.5301610000000 1.0
C      1  0.5597800000000  0.5140390000000  0.4094950000000 1.0
C      1  0.5723970000000  0.4552870000000  0.4877470000000 1.0
C      1  0.4915500000000  0.4079190000000  0.4236750000000 1.0
C      1  0.4776160000000  0.4582130000000  0.4708270000000 1.0
C      1  0.5126840000000  0.5455060000000  0.4631290000000 1.0
C      1  0.5196760000000  0.4674850000000  0.3972790000000 1.0
C      1  0.5471790000000  0.5140220000000  0.5099810000000 1.0
C      1  0.5392940000000  0.4741850000000  0.6082440000000 1.0
C      1  0.4601530000000  0.4471360000000  0.5858700000000 1.0
C      1  0.4879580000000  0.5423870000000  0.5318320000000 1.0
C      1  0.5281640000000  0.4248140000000  0.5208880000000 1.0
C      1  0.5369900000000  0.5075680000000  0.6021660000000 1.0
C      1  0.5490590000000  0.5165180000000  0.5427700000000 1.0
C      1  0.5112890000000  0.4349970000000  0.4974680000000 1.0
C      1  0.5407500000000  0.4561680000000  0.4622040000000 1.0
C      1  0.5911200000000  0.4369950000000  0.4690690000000 1.0
C      1  0.4240030000000  0.4992850000000  0.4714810000000 1.0
C      1  0.4154540000000  0.5154280000000  0.5472710000000 1.0
C      1  0.4533420000000  0.4191950000000  0.4739510000000 1.0
C      1  0.4278090000000  0.4369440000000  0.4826650000000 1.0
C      1  0.5104750000000  0.5577430000000  0.5888920000000 1.0
C      1  0.5234390000000  0.3929660000000  0.4971970000000 1.0
C      1  0.4819970000000  0.4283150000000  0.4880070000000 1.0
C      1  0.4787300000000  0.6125300000000  0.4935960000000 1.0
C      1  0.4368280000000  0.5773630000000  0.4536360000000 1.0
C      1  0.5119910000000  0.5658760000000  0.4817850000000 1.0
C      1  0.5396140000000  0.4067310000000  0.4475400000000 1.0
C      1  0.5204310000000  0.5222440000000  0.4027490000000 1.0
END
