TITL C-2778424-3986-1094 0.00106210012670471 125000 -791.216809281774 0 0 138 (C1) n - 1
REM
REM in /home/nfs/bkarasulu/CARBON/AIRSS/Generating-Clusters/REBO/Only-C1/SD-CG/HFTN-CG
REM
REM
REM
REM
REM
REM ./C.cell (11c1c37f851c82e70ff6c80c92926a4b)
REM
REM compiler GCC version 9.2.1 20190827 (Red Hat 9.2.1-1)
REM options -cpp -mtune=generic -march=x86-64 -g -O0 -fpre-include=/usr/include/finclude/math-vector-fortran.h
REM seed -161048651 -1679443351 516659097 292406166 -1657184518 687189887 514265464 -1068233437 1250153988 1760498215 -1025798624 294998095 -981138527 -1264616249 -1732028793 -1954866723 1481011349 -636352136 -317180616 -807661285 1635789859 1649479418 334152542 34791708 -244220569 -1244549443 1879181444 2136438348 -1625088042 -516054454 1886500720 -2117462904 1609321737
REM
CELL 1.54180   50.00000   50.00000   50.00000   90.00000   90.00000   90.00000
LATT -1
SFAC C  
C      1  0.4518470000000  0.5857690000000  0.4648270000000 1.0
C      1  0.4582570000000  0.5745130000000  0.5615480000000 1.0
C      1  0.5365880000000  0.5757590000000  0.4381330000000 1.0
C      1  0.5542850000000  0.5221640000000  0.5730020000000 1.0
C      1  0.4646790000000  0.6020980000000  0.5103170000000 1.0
C      1  0.4492780000000  0.4847560000000  0.4170910000000 1.0
C      1  0.5324180000000  0.4883750000000  0.4934170000000 1.0
C      1  0.4746030000000  0.4217900000000  0.5313700000000 1.0
C      1  0.4732070000000  0.5896610000000  0.5406070000000 1.0
C      1  0.5700370000000  0.4839070000000  0.5138980000000 1.0
C      1  0.4627780000000  0.5039600000000  0.5301550000000 1.0
C      1  0.5906330000000  0.4604050000000  0.5279870000000 1.0
C      1  0.4507970000000  0.5174010000000  0.4185610000000 1.0
C      1  0.4830040000000  0.4986800000000  0.4329960000000 1.0
C      1  0.4578210000000  0.6113350000000  0.4814570000000 1.0
C      1  0.5135060000000  0.5557250000000  0.5123980000000 1.0
C      1  0.5090980000000  0.5745430000000  0.4390750000000 1.0
C      1  0.4435380000000  0.5171500000000  0.4913740000000 1.0
C      1  0.5051420000000  0.5067880000000  0.4571740000000 1.0
C      1  0.5457980000000  0.5481880000000  0.5537020000000 1.0
C      1  0.4197560000000  0.4387940000000  0.4702710000000 1.0
C      1  0.4335600000000  0.4383650000000  0.4984210000000 1.0
C      1  0.5574300000000  0.5350480000000  0.4169190000000 1.0
C      1  0.5289300000000  0.5283170000000  0.4103250000000 1.0
C      1  0.6110460000000  0.5331030000000  0.5424380000000 1.0
C      1  0.4219510000000  0.5413600000000  0.4809160000000 1.0
C      1  0.5419920000000  0.4102520000000  0.4968890000000 1.0
C      1  0.5624630000000  0.4528120000000  0.4300020000000 1.0
C      1  0.5127080000000  0.5258800000000  0.5539470000000 1.0
C      1  0.4354060000000  0.5228370000000  0.4485160000000 1.0
C      1  0.4001560000000  0.5299540000000  0.5278320000000 1.0
C      1  0.4262570000000  0.4717490000000  0.4992620000000 1.0
C      1  0.4496370000000  0.4898610000000  0.4953440000000 1.0
C      1  0.4432430000000  0.5477080000000  0.5700560000000 1.0
C      1  0.4758800000000  0.4796300000000  0.5105730000000 1.0
C      1  0.5035340000000  0.4686940000000  0.5483790000000 1.0
C      1  0.5098120000000  0.4809010000000  0.4093140000000 1.0
C      1  0.5771080000000  0.4460720000000  0.4563910000000 1.0
C      1  0.5335230000000  0.4682610000000  0.4241360000000 1.0
C      1  0.5364200000000  0.4571810000000  0.5786700000000 1.0
C      1  0.5093280000000  0.4386610000000  0.5737950000000 1.0
C      1  0.4812760000000  0.4892710000000  0.4716050000000 1.0
C      1  0.4786840000000  0.5603420000000  0.5835540000000 1.0
C      1  0.4902400000000  0.4666090000000  0.5779920000000 1.0
C      1  0.5243670000000  0.5379890000000  0.4422630000000 1.0
C      1  0.4224650000000  0.5358330000000  0.5531090000000 1.0
C      1  0.4310270000000  0.4804780000000  0.5672750000000 1.0
C      1  0.5911440000000  0.5130130000000  0.5313390000000 1.0
C      1  0.4883820000000  0.4048210000000  0.4983140000000 1.0
C      1  0.5314490000000  0.5334380000000  0.5265970000000 1.0
C      1  0.5533950000000  0.4400950000000  0.5538650000000 1.0
C      1  0.5696580000000  0.5023830000000  0.5532960000000 1.0
C      1  0.5694300000000  0.5085680000000  0.4204540000000 1.0
C      1  0.4508260000000  0.5756720000000  0.4973420000000 1.0
C      1  0.5628450000000  0.4184230000000  0.4707900000000 1.0
C      1  0.5056750000000  0.4922640000000  0.5082530000000 1.0
C      1  0.4960770000000  0.5464800000000  0.4250760000000 1.0
C      1  0.4126360000000  0.4664000000000  0.4624140000000 1.0
C      1  0.4953600000000  0.5911900000000  0.5138070000000 1.0
C      1  0.4384620000000  0.4726940000000  0.4466860000000 1.0
C      1  0.5591570000000  0.5568370000000  0.4366010000000 1.0
C      1  0.4042810000000  0.5505230000000  0.5070280000000 1.0
C      1  0.4384100000000  0.5321990000000  0.5166300000000 1.0
C      1  0.5346530000000  0.4173920000000  0.4582950000000 1.0
C      1  0.4940010000000  0.5529150000000  0.5562180000000 1.0
C      1  0.4717090000000  0.5151830000000  0.5668440000000 1.0
C      1  0.4334330000000  0.4243150000000  0.4510280000000 1.0
C      1  0.4666500000000  0.4615510000000  0.4623380000000 1.0
C      1  0.5101980000000  0.5087920000000  0.4028840000000 1.0
C      1  0.5147720000000  0.4988580000000  0.5373280000000 1.0
C      1  0.4167070000000  0.4528150000000  0.5247990000000 1.0
C      1  0.5201930000000  0.4157730000000  0.5502690000000 1.0
C      1  0.4661530000000  0.4530000000000  0.5281160000000 1.0
C      1  0.5344570000000  0.4578400000000  0.4888410000000 1.0
C      1  0.5247220000000  0.4406260000000  0.4375210000000 1.0
C      1  0.4963850000000  0.5368020000000  0.4706240000000 1.0
C      1  0.5392220000000  0.6018700000000  0.4912090000000 1.0
C      1  0.4534020000000  0.4755680000000  0.5432170000000 1.0
C      1  0.5523240000000  0.4916780000000  0.4347630000000 1.0
C      1  0.5221560000000  0.5548980000000  0.4713700000000 1.0
C      1  0.4029930000000  0.4898180000000  0.4853010000000 1.0
C      1  0.5642670000000  0.4901600000000  0.4821130000000 1.0
C      1  0.5723870000000  0.5492460000000  0.4608710000000 1.0
C      1  0.5382110000000  0.5098620000000  0.4556940000000 1.0
C      1  0.5458700000000  0.5481380000000  0.4906550000000 1.0
C      1  0.4770680000000  0.5310230000000  0.5370980000000 1.0
C      1  0.5031180000000  0.4401510000000  0.5340900000000 1.0
C      1  0.4097130000000  0.5139000000000  0.4668930000000 1.0
C      1  0.5668090000000  0.5207410000000  0.4706470000000 1.0
C      1  0.5156310000000  0.5819220000000  0.4910190000000 1.0
C      1  0.6043210000000  0.4872690000000  0.5152810000000 1.0
C      1  0.4782010000000  0.5691440000000  0.4522190000000 1.0
C      1  0.4616200000000  0.4254140000000  0.5000090000000 1.0
C      1  0.4831060000000  0.4094560000000  0.4648640000000 1.0
C      1  0.4409650000000  0.5555020000000  0.4567800000000 1.0
C      1  0.4317470000000  0.5085140000000  0.5389360000000 1.0
C      1  0.5035230000000  0.4283110000000  0.4187360000000 1.0
C      1  0.4824480000000  0.5214350000000  0.4088320000000 1.0
C      1  0.5475260000000  0.4909120000000  0.5333860000000 1.0
C      1  0.5053680000000  0.5795240000000  0.5430750000000 1.0
C      1  0.5143710000000  0.4131460000000  0.5165700000000 1.0
C      1  0.4793610000000  0.4697170000000  0.4155270000000 1.0
C      1  0.4131580000000  0.4811770000000  0.5382600000000 1.0
C      1  0.5350760000000  0.5719280000000  0.5353280000000 1.0
C      1  0.4871320000000  0.4824590000000  0.6037850000000 1.0
C      1  0.4846830000000  0.4401660000000  0.4794680000000 1.0
C      1  0.5389240000000  0.4446120000000  0.5170790000000 1.0
C      1  0.4883980000000  0.5131470000000  0.4927510000000 1.0
C      1  0.4627130000000  0.5464510000000  0.4321890000000 1.0
C      1  0.4646170000000  0.4858600000000  0.5710130000000 1.0
C      1  0.5509190000000  0.5759390000000  0.5087720000000 1.0
C      1  0.5415270000000  0.4910550000000  0.5793770000000 1.0
C      1  0.4325210000000  0.5611620000000  0.5139140000000 1.0
C      1  0.5648440000000  0.4459560000000  0.4872040000000 1.0
C      1  0.4394660000000  0.4385630000000  0.5378680000000 1.0
C      1  0.4879670000000  0.4152020000000  0.5611290000000 1.0
C      1  0.5645930000000  0.4706650000000  0.5645070000000 1.0
C      1  0.6111840000000  0.4797300000000  0.4851140000000 1.0
C      1  0.4637750000000  0.4309520000000  0.4470310000000 1.0
C      1  0.3992360000000  0.5017280000000  0.5170510000000 1.0
C      1  0.4865850000000  0.5412720000000  0.5089770000000 1.0
C      1  0.5773750000000  0.5212780000000  0.5031870000000 1.0
C      1  0.5879800000000  0.4734330000000  0.4702030000000 1.0
C      1  0.5341150000000  0.4643110000000  0.5396490000000 1.0
C      1  0.5341280000000  0.5469240000000  0.5847940000000 1.0
C      1  0.5169650000000  0.5111650000000  0.5818780000000 1.0
C      1  0.5740420000000  0.5668680000000  0.4857040000000 1.0
C      1  0.5449150000000  0.5176390000000  0.5037640000000 1.0
C      1  0.4560840000000  0.4990180000000  0.4534680000000 1.0
C      1  0.5521040000000  0.4161790000000  0.5293120000000 1.0
C      1  0.5141830000000  0.4033130000000  0.4779120000000 1.0
C      1  0.5732720000000  0.4388350000000  0.5163540000000 1.0
C      1  0.5155130000000  0.4431440000000  0.4703310000000 1.0
C      1  0.4728790000000  0.5576650000000  0.4838030000000 1.0
C      1  0.5037270000000  0.5410930000000  0.5931390000000 1.0
C      1  0.4785190000000  0.4401240000000  0.4212800000000 1.0
C      1  0.4646720000000  0.5325370000000  0.5922830000000 1.0
C      1  0.4897490000000  0.5113440000000  0.6020840000000 1.0
END
