TITL C-2778427-5640-1306 0.00267377869120888 125000 -1076.76185420333 0 0 184 (C1) n - 1
REM
REM in /home/nfs/bkarasulu/CARBON/AIRSS/Generating-Clusters/REBO/Only-C1/SD-CG/HFTN-CG
REM
REM
REM
REM
REM
REM ./C.cell (11c1c37f851c82e70ff6c80c92926a4b)
REM
REM compiler GCC version 9.2.1 20190827 (Red Hat 9.2.1-1)
REM options -cpp -mtune=generic -march=x86-64 -g -O0 -fpre-include=/usr/include/finclude/math-vector-fortran.h
REM seed 143942334 -345859747 1889932329 -1622762851 559738792 1577533563 2020120280 -1366396460 -51419418 -1151487603 -137647451 -2054798914 -39324485 -45465760 1890021672 623202696 -856645403 1040770572 -1470732254 -1794462394 -1281049310 370081041 649198730 1851052696 -1717326261 -737592543 571499491 -1799512232 836004761 2047021111 -1188461924 -370308782 -43900119
REM
CELL 1.54180   50.00000   50.00000   50.00000   90.00000   90.00000   90.00000
LATT -1
SFAC C  
C      1  0.4366200000000  0.5571040000000  0.4912990000000 1.0
C      1  0.4997090000000  0.5854250000000  0.5651480000000 1.0
C      1  0.5176530000000  0.4951740000000  0.4431860000000 1.0
C      1  0.4606390000000  0.5263710000000  0.4975710000000 1.0
C      1  0.5546700000000  0.4989660000000  0.4049190000000 1.0
C      1  0.5629550000000  0.4477880000000  0.5675230000000 1.0
C      1  0.5512430000000  0.4494900000000  0.4433510000000 1.0
C      1  0.4752840000000  0.4725140000000  0.5719930000000 1.0
C      1  0.5988830000000  0.4413050000000  0.5342230000000 1.0
C      1  0.4745390000000  0.5621910000000  0.4199390000000 1.0
C      1  0.4389150000000  0.5428440000000  0.4111610000000 1.0
C      1  0.4535100000000  0.5307480000000  0.3910640000000 1.0
C      1  0.4762130000000  0.4891040000000  0.4184930000000 1.0
C      1  0.4400010000000  0.4157830000000  0.4936320000000 1.0
C      1  0.5247470000000  0.5612570000000  0.5188220000000 1.0
C      1  0.5297940000000  0.4870320000000  0.3873640000000 1.0
C      1  0.4928840000000  0.5215370000000  0.5328270000000 1.0
C      1  0.4677290000000  0.3816240000000  0.4690540000000 1.0
C      1  0.3860520000000  0.4749820000000  0.5206690000000 1.0
C      1  0.4255920000000  0.5522550000000  0.5624860000000 1.0
C      1  0.5059990000000  0.5070050000000  0.3914320000000 1.0
C      1  0.4801970000000  0.5205410000000  0.3924750000000 1.0
C      1  0.4392060000000  0.4297240000000  0.5401310000000 1.0
C      1  0.5425410000000  0.5095810000000  0.5931140000000 1.0
C      1  0.5681620000000  0.4037570000000  0.4967350000000 1.0
C      1  0.4038460000000  0.5515320000000  0.5437500000000 1.0
C      1  0.6028000000000  0.4987100000000  0.5295770000000 1.0
C      1  0.5479000000000  0.5969870000000  0.4552310000000 1.0
C      1  0.5781140000000  0.4527740000000  0.4277880000000 1.0
C      1  0.4760440000000  0.6056690000000  0.5292210000000 1.0
C      1  0.4181240000000  0.4402530000000  0.4941310000000 1.0
C      1  0.4770330000000  0.5565300000000  0.5946830000000 1.0
C      1  0.4979190000000  0.4041620000000  0.5472180000000 1.0
C      1  0.4681030000000  0.4126470000000  0.4287920000000 1.0
C      1  0.5564830000000  0.4509770000000  0.4762450000000 1.0
C      1  0.4744240000000  0.5317610000000  0.4457100000000 1.0
C      1  0.5091390000000  0.4662030000000  0.5963880000000 1.0
C      1  0.4143650000000  0.4899460000000  0.5445890000000 1.0
C      1  0.5878520000000  0.4386060000000  0.4548430000000 1.0
C      1  0.5733880000000  0.4768110000000  0.4861910000000 1.0
C      1  0.4843960000000  0.4176350000000  0.5681360000000 1.0
C      1  0.4702040000000  0.4962980000000  0.5045320000000 1.0
C      1  0.4509000000000  0.5694600000000  0.4382280000000 1.0
C      1  0.3901600000000  0.5394500000000  0.4713430000000 1.0
C      1  0.3855920000000  0.5024560000000  0.5189290000000 1.0
C      1  0.5357750000000  0.4033800000000  0.5091340000000 1.0
C      1  0.5510810000000  0.4311630000000  0.4963620000000 1.0
C      1  0.5802400000000  0.4232850000000  0.5221800000000 1.0
C      1  0.5442650000000  0.5929030000000  0.5042480000000 1.0
C      1  0.5860770000000  0.4961010000000  0.4410660000000 1.0
C      1  0.5373990000000  0.4591730000000  0.5212820000000 1.0
C      1  0.5503380000000  0.4330290000000  0.5307400000000 1.0
C      1  0.4488720000000  0.6120800000000  0.5147910000000 1.0
C      1  0.4312660000000  0.5076490000000  0.4278660000000 1.0
C      1  0.4454070000000  0.4855430000000  0.5493390000000 1.0
C      1  0.4993460000000  0.5671520000000  0.5037550000000 1.0
C      1  0.4278330000000  0.5199120000000  0.5391100000000 1.0
C      1  0.4198120000000  0.5003720000000  0.4845470000000 1.0
C      1  0.5795800000000  0.5212830000000  0.4107810000000 1.0
C      1  0.4692110000000  0.4976190000000  0.4705110000000 1.0
C      1  0.4715810000000  0.4574500000000  0.5139170000000 1.0
C      1  0.5403780000000  0.4789020000000  0.4528450000000 1.0
C      1  0.5538770000000  0.4950290000000  0.5412280000000 1.0
C      1  0.5348060000000  0.4301790000000  0.4253470000000 1.0
C      1  0.5716910000000  0.5378290000000  0.5733160000000 1.0
C      1  0.5471070000000  0.4100390000000  0.4478400000000 1.0
C      1  0.4740680000000  0.5739600000000  0.5713390000000 1.0
C      1  0.3972360000000  0.5206710000000  0.4941830000000 1.0
C      1  0.5495410000000  0.5483600000000  0.4410680000000 1.0
C      1  0.5280630000000  0.4637720000000  0.4779190000000 1.0
C      1  0.4964370000000  0.4814490000000  0.4942980000000 1.0
C      1  0.4566200000000  0.4614890000000  0.4851320000000 1.0
C      1  0.3868370000000  0.5647420000000  0.4297210000000 1.0
C      1  0.4520950000000  0.4607700000000  0.4329070000000 1.0
C      1  0.5011200000000  0.5999950000000  0.5409150000000 1.0
C      1  0.5046530000000  0.5989130000000  0.4917090000000 1.0
C      1  0.4004760000000  0.5498820000000  0.4485780000000 1.0
C      1  0.5056960000000  0.4188390000000  0.5108650000000 1.0
C      1  0.6052000000000  0.5141740000000  0.4831880000000 1.0
C      1  0.4903460000000  0.5442290000000  0.5505720000000 1.0
C      1  0.5095500000000  0.5175170000000  0.5994110000000 1.0
C      1  0.4233540000000  0.4959030000000  0.4537730000000 1.0
C      1  0.4821350000000  0.5496540000000  0.4660420000000 1.0
C      1  0.3838950000000  0.5248460000000  0.5760610000000 1.0
C      1  0.3928380000000  0.5334530000000  0.5254470000000 1.0
C      1  0.4464860000000  0.4651480000000  0.4065820000000 1.0
C      1  0.5957590000000  0.5195220000000  0.5104230000000 1.0
C      1  0.4681510000000  0.5896890000000  0.4581150000000 1.0
C      1  0.5273570000000  0.4847970000000  0.5027230000000 1.0
C      1  0.4974030000000  0.3959680000000  0.4294270000000 1.0
C      1  0.4433660000000  0.5432350000000  0.5216880000000 1.0
C      1  0.5467040000000  0.5741440000000  0.5392650000000 1.0
C      1  0.5257840000000  0.5115890000000  0.4182700000000 1.0
C      1  0.4904230000000  0.5341740000000  0.5048650000000 1.0
C      1  0.5553910000000  0.5251570000000  0.4608040000000 1.0
C      1  0.4835490000000  0.4735830000000  0.6108120000000 1.0
C      1  0.5641960000000  0.4963800000000  0.4623430000000 1.0
C      1  0.5244340000000  0.5254990000000  0.5589150000000 1.0
C      1  0.5058250000000  0.5441480000000  0.5810800000000 1.0
C      1  0.4573430000000  0.4572630000000  0.5397290000000 1.0
C      1  0.4012970000000  0.5151780000000  0.5599810000000 1.0
C      1  0.5202270000000  0.4409830000000  0.4045370000000 1.0
C      1  0.5871350000000  0.5606130000000  0.4704760000000 1.0
C      1  0.4366960000000  0.5280290000000  0.4734880000000 1.0
C      1  0.4784040000000  0.5047940000000  0.6050320000000 1.0
C      1  0.4449500000000  0.5075150000000  0.5984850000000 1.0
C      1  0.4558860000000  0.4343520000000  0.4429370000000 1.0
C      1  0.5339320000000  0.4311760000000  0.5667390000000 1.0
C      1  0.4304160000000  0.5440760000000  0.4441540000000 1.0
C      1  0.5152190000000  0.5315110000000  0.4841820000000 1.0
C      1  0.5054720000000  0.4532010000000  0.5122190000000 1.0
C      1  0.4900290000000  0.4791480000000  0.4419900000000 1.0
C      1  0.4736940000000  0.4933450000000  0.5351270000000 1.0
C      1  0.4552290000000  0.5263980000000  0.5557750000000 1.0
C      1  0.4205790000000  0.4537310000000  0.5246630000000 1.0
C      1  0.5959230000000  0.5235860000000  0.4368410000000 1.0
C      1  0.5786630000000  0.4798820000000  0.4188840000000 1.0
C      1  0.4192550000000  0.4428090000000  0.5632240000000 1.0
C      1  0.4680030000000  0.5649460000000  0.4901520000000 1.0
C      1  0.5703810000000  0.4153930000000  0.4646680000000 1.0
C      1  0.4792550000000  0.4034080000000  0.4826080000000 1.0
C      1  0.5983730000000  0.4592360000000  0.4725040000000 1.0
C      1  0.4698810000000  0.3825290000000  0.4406420000000 1.0
C      1  0.5546610000000  0.4803100000000  0.5688920000000 1.0
C      1  0.5704240000000  0.5425170000000  0.5449060000000 1.0
C      1  0.5645900000000  0.5723650000000  0.4478310000000 1.0
C      1  0.5726990000000  0.5064160000000  0.5774420000000 1.0
C      1  0.3988070000000  0.4626420000000  0.5475930000000 1.0
C      1  0.4282440000000  0.4733010000000  0.4975900000000 1.0
C      1  0.4793610000000  0.4009000000000  0.5240430000000 1.0
C      1  0.3902780000000  0.4584490000000  0.4990190000000 1.0
C      1  0.4694110000000  0.4396830000000  0.5650060000000 1.0
C      1  0.5848650000000  0.5675530000000  0.5024870000000 1.0
C      1  0.4513710000000  0.4834560000000  0.4523700000000 1.0
C      1  0.5566990000000  0.5587740000000  0.5861250000000 1.0
C      1  0.5500150000000  0.5826450000000  0.5656830000000 1.0
C      1  0.6183280000000  0.4794020000000  0.5129910000000 1.0
C      1  0.5396420000000  0.4574200000000  0.5891200000000 1.0
C      1  0.5286550000000  0.4099380000000  0.5421480000000 1.0
C      1  0.5108810000000  0.4976790000000  0.5488680000000 1.0
C      1  0.5024870000000  0.5048030000000  0.4700160000000 1.0
C      1  0.4825250000000  0.4608480000000  0.4630210000000 1.0
C      1  0.4598740000000  0.5121540000000  0.4258690000000 1.0
C      1  0.5748010000000  0.5405560000000  0.5142680000000 1.0
C      1  0.5377060000000  0.5072350000000  0.5185970000000 1.0
C      1  0.5136610000000  0.5594710000000  0.4674210000000 1.0
C      1  0.4241390000000  0.6225210000000  0.5154190000000 1.0
C      1  0.5646960000000  0.4786260000000  0.5153150000000 1.0
C      1  0.5564190000000  0.5509900000000  0.4803380000000 1.0
C      1  0.5077870000000  0.4500140000000  0.5673730000000 1.0
C      1  0.5716680000000  0.5900560000000  0.5111980000000 1.0
C      1  0.5197540000000  0.6072700000000  0.4638430000000 1.0
C      1  0.5034730000000  0.5697480000000  0.4291460000000 1.0
C      1  0.5038840000000  0.4173690000000  0.4710080000000 1.0
C      1  0.5243900000000  0.5436690000000  0.4250300000000 1.0
C      1  0.5876190000000  0.4594130000000  0.5539030000000 1.0
C      1  0.5205540000000  0.6008590000000  0.5198560000000 1.0
C      1  0.4838090000000  0.4739820000000  0.3953670000000 1.0
C      1  0.4925750000000  0.5337020000000  0.4178650000000 1.0
C      1  0.4603710000000  0.4572180000000  0.5989110000000 1.0
C      1  0.4726250000000  0.5959130000000  0.4972220000000 1.0
C      1  0.5108760000000  0.4643240000000  0.3915410000000 1.0
C      1  0.4318660000000  0.4548570000000  0.5862460000000 1.0
C      1  0.4771760000000  0.4301160000000  0.4977200000000 1.0
C      1  0.5446600000000  0.5306530000000  0.5014750000000 1.0
C      1  0.5387510000000  0.5756440000000  0.4787600000000 1.0
C      1  0.5392010000000  0.5412760000000  0.5394380000000 1.0
C      1  0.6017270000000  0.5345030000000  0.4626110000000 1.0
C      1  0.4737350000000  0.5055340000000  0.5713430000000 1.0
C      1  0.6212180000000  0.4524880000000  0.5211600000000 1.0
C      1  0.5181910000000  0.4922180000000  0.5800500000000 1.0
C      1  0.5248110000000  0.5711490000000  0.5830990000000 1.0
C      1  0.5909490000000  0.4885820000000  0.5545390000000 1.0
C      1  0.4513850000000  0.4093960000000  0.5198830000000 1.0
C      1  0.4356680000000  0.5294720000000  0.5817470000000 1.0
C      1  0.4381420000000  0.5796870000000  0.4683490000000 1.0
C      1  0.4555980000000  0.5599740000000  0.5490170000000 1.0
C      1  0.4493700000000  0.4334070000000  0.4702720000000 1.0
C      1  0.4958080000000  0.4695270000000  0.5454370000000 1.0
C      1  0.5170480000000  0.4037880000000  0.4492760000000 1.0
C      1  0.5047590000000  0.4460210000000  0.4728950000000 1.0
C      1  0.4974100000000  0.5864930000000  0.4545640000000 1.0
C      1  0.6125220000000  0.4846220000000  0.4844470000000 1.0
C      1  0.4376790000000  0.4846060000000  0.5812070000000 1.0
END
