TITL C-2778428-5639-1280 -0.0042164665122614 125000 -415.122880339982 0 0 73 (C1) n - 1
REM
REM in /home/nfs/bkarasulu/CARBON/AIRSS/Generating-Clusters/REBO/Only-C1/SD-CG/HFTN-CG
REM
REM
REM
REM
REM
REM ./C.cell (11c1c37f851c82e70ff6c80c92926a4b)
REM
REM compiler GCC version 9.2.1 20190827 (Red Hat 9.2.1-1)
REM options -cpp -mtune=generic -march=x86-64 -g -O0 -fpre-include=/usr/include/finclude/math-vector-fortran.h
REM seed 951159969 -1303256081 1509678957 1953996022 1812291482 212820219 -1363965660 -663576235 1730840217 299497541 1012045206 1315262736 1014611938 529093867 695796082 -536148925 -1475468899 -461924367 -653679148 -1629568848 966542492 1643037645 394383851 786296275 -486806369 -2048815681 2037101305 480168971 -723406351 -1606765144 -1283969756 -2125095608 706366410
REM
CELL 1.54180   50.00000   50.00000   50.00000   90.00000   90.00000   90.00000
LATT -1
SFAC C  
C      1  0.4452750000000  0.5647400000000  0.5078020000000 1.0
C      1  0.5266910000000  0.5664170000000  0.4634710000000 1.0
C      1  0.4808040000000  0.5446250000000  0.4724780000000 1.0
C      1  0.4977110000000  0.5736480000000  0.5346480000000 1.0
C      1  0.4498310000000  0.5549480000000  0.5341300000000 1.0
C      1  0.5483210000000  0.5155130000000  0.4852950000000 1.0
C      1  0.4504950000000  0.5359510000000  0.4640880000000 1.0
C      1  0.5578410000000  0.4514300000000  0.5389620000000 1.0
C      1  0.5041850000000  0.4879930000000  0.4244610000000 1.0
C      1  0.4533840000000  0.4622700000000  0.4487350000000 1.0
C      1  0.4717910000000  0.4234590000000  0.4938220000000 1.0
C      1  0.5098600000000  0.4904260000000  0.5584970000000 1.0
C      1  0.4992070000000  0.4115120000000  0.5029850000000 1.0
C      1  0.4433330000000  0.4881400000000  0.4472130000000 1.0
C      1  0.4991060000000  0.4206000000000  0.5314910000000 1.0
C      1  0.4992850000000  0.5011880000000  0.5296400000000 1.0
C      1  0.4913080000000  0.5132350000000  0.4286720000000 1.0
C      1  0.4868550000000  0.4741450000000  0.5158980000000 1.0
C      1  0.4932540000000  0.4440690000000  0.4810560000000 1.0
C      1  0.5411040000000  0.5005090000000  0.5645090000000 1.0
C      1  0.4511040000000  0.5167300000000  0.5224280000000 1.0
C      1  0.5401100000000  0.5642660000000  0.5148220000000 1.0
C      1  0.5445440000000  0.4688020000000  0.4407460000000 1.0
C      1  0.5051920000000  0.4639160000000  0.4373640000000 1.0
C      1  0.4321250000000  0.5332140000000  0.5450820000000 1.0
C      1  0.5226470000000  0.5282180000000  0.5578760000000 1.0
C      1  0.5179450000000  0.4138840000000  0.5497810000000 1.0
C      1  0.5709880000000  0.5351260000000  0.4946300000000 1.0
C      1  0.5346560000000  0.4688580000000  0.5564750000000 1.0
C      1  0.4849380000000  0.4916910000000  0.4678040000000 1.0
C      1  0.5465910000000  0.4927550000000  0.4614770000000 1.0
C      1  0.5179050000000  0.5232700000000  0.4930350000000 1.0
C      1  0.4777840000000  0.4989530000000  0.5632550000000 1.0
C      1  0.4757520000000  0.5776930000000  0.4656910000000 1.0
C      1  0.5146270000000  0.5007010000000  0.4699740000000 1.0
C      1  0.4783760000000  0.4685410000000  0.5484130000000 1.0
C      1  0.4796580000000  0.5511120000000  0.5451920000000 1.0
C      1  0.5384380000000  0.4455010000000  0.4831810000000 1.0
C      1  0.5175770000000  0.4208210000000  0.4758990000000 1.0
C      1  0.5731650000000  0.4797830000000  0.4756200000000 1.0
C      1  0.5781820000000  0.4845960000000  0.5062790000000 1.0
C      1  0.4192020000000  0.4691020000000  0.5037690000000 1.0
C      1  0.5242060000000  0.4930350000000  0.5078690000000 1.0
C      1  0.4995320000000  0.5590180000000  0.4497770000000 1.0
C      1  0.5554670000000  0.5024700000000  0.5153720000000 1.0
C      1  0.4674130000000  0.5110520000000  0.4486600000000 1.0
C      1  0.4332450000000  0.5100810000000  0.4691060000000 1.0
C      1  0.4110660000000  0.4989080000000  0.4901480000000 1.0
C      1  0.5761120000000  0.4555340000000  0.5180470000000 1.0
C      1  0.4811370000000  0.5260290000000  0.5222850000000 1.0
C      1  0.4478880000000  0.5650240000000  0.4805720000000 1.0
C      1  0.3885760000000  0.4771740000000  0.5034130000000 1.0
C      1  0.4831220000000  0.4607080000000  0.4591440000000 1.0
C      1  0.4437520000000  0.5008180000000  0.4993740000000 1.0
C      1  0.4775800000000  0.4407120000000  0.5358570000000 1.0
C      1  0.5149200000000  0.4602830000000  0.5029310000000 1.0
C      1  0.4955610000000  0.5276240000000  0.5594240000000 1.0
C      1  0.5271120000000  0.4489870000000  0.5308590000000 1.0
C      1  0.5013720000000  0.5708710000000  0.5075860000000 1.0
C      1  0.4675230000000  0.4813020000000  0.4931040000000 1.0
C      1  0.4492300000000  0.5076400000000  0.5551600000000 1.0
C      1  0.5888190000000  0.5455940000000  0.4763960000000 1.0
C      1  0.5270360000000  0.4429890000000  0.4514600000000 1.0
C      1  0.4574130000000  0.4375990000000  0.5144380000000 1.0
C      1  0.5665890000000  0.4518940000000  0.4878250000000 1.0
C      1  0.5364060000000  0.5676790000000  0.4885600000000 1.0
C      1  0.4447940000000  0.4611790000000  0.5046030000000 1.0
C      1  0.4942890000000  0.5896530000000  0.4886880000000 1.0
C      1  0.4953530000000  0.5409700000000  0.4985270000000 1.0
C      1  0.5706010000000  0.5396970000000  0.5223940000000 1.0
C      1  0.5576330000000  0.5164150000000  0.5430680000000 1.0
C      1  0.5440890000000  0.5478760000000  0.5424310000000 1.0
C      1  0.5010160000000  0.5388350000000  0.4262770000000 1.0
END
