TITL C-2778431-5191-195 0.00906811812048095 125000 -443.018704168996 0 0 78 (C1) n - 1
REM
REM in /home/nfs/bkarasulu/CARBON/AIRSS/Generating-Clusters/REBO/Only-C1/SD-CG/HFTN-CG
REM
REM
REM
REM
REM
REM ./C.cell (11c1c37f851c82e70ff6c80c92926a4b)
REM
REM compiler GCC version 9.2.1 20190827 (Red Hat 9.2.1-1)
REM options -cpp -mtune=generic -march=x86-64 -g -O0 -fpre-include=/usr/include/finclude/math-vector-fortran.h
REM seed -2013165697 316693553 1203571073 1818589032 1014659538 1069246745 -1907176317 1991803290 -1494542294 1811557745 -505086492 -1122889884 -155607842 156146359 -163160642 575936088 -872277420 -1649923091 243561242 -1120623104 -818728501 2139437880 -1698536242 1956896871 576864129 282081228 1088366573 1570552428 1254112168 -694746396 -137305988 1812827826 908505182
REM
CELL 1.54180   50.00000   50.00000   50.00000   90.00000   90.00000   90.00000
LATT -1
SFAC C  
C      1  0.4529980000000  0.5349830000000  0.5442870000000 1.0
C      1  0.5168860000000  0.5371150000000  0.4898720000000 1.0
C      1  0.4468040000000  0.5567830000000  0.4638250000000 1.0
C      1  0.4951900000000  0.4597540000000  0.5786740000000 1.0
C      1  0.5927790000000  0.6031450000000  0.4960710000000 1.0
C      1  0.5319340000000  0.4723910000000  0.4959200000000 1.0
C      1  0.4506120000000  0.5527460000000  0.5240470000000 1.0
C      1  0.5430220000000  0.5272500000000  0.5054040000000 1.0
C      1  0.4119090000000  0.4550670000000  0.4606130000000 1.0
C      1  0.4558610000000  0.4520160000000  0.5448370000000 1.0
C      1  0.4718790000000  0.5647000000000  0.4789240000000 1.0
C      1  0.5418430000000  0.4526010000000  0.5536910000000 1.0
C      1  0.5100400000000  0.4151430000000  0.5392790000000 1.0
C      1  0.4144230000000  0.5160230000000  0.4765300000000 1.0
C      1  0.4694320000000  0.4987190000000  0.5644460000000 1.0
C      1  0.4779330000000  0.5209290000000  0.4485120000000 1.0
C      1  0.5055200000000  0.5041100000000  0.5295850000000 1.0
C      1  0.5179700000000  0.5806400000000  0.5192470000000 1.0
C      1  0.4511610000000  0.4823020000000  0.5333680000000 1.0
C      1  0.5316610000000  0.5033130000000  0.4555950000000 1.0
C      1  0.5532070000000  0.4904860000000  0.4765210000000 1.0
C      1  0.5256450000000  0.4654480000000  0.5731380000000 1.0
C      1  0.5445050000000  0.5117020000000  0.5577640000000 1.0
C      1  0.5706770000000  0.4668630000000  0.5034340000000 1.0
C      1  0.5367610000000  0.5158720000000  0.5305590000000 1.0
C      1  0.5019120000000  0.5280810000000  0.5529050000000 1.0
C      1  0.4712270000000  0.5309000000000  0.4166720000000 1.0
C      1  0.5602210000000  0.4574280000000  0.4723500000000 1.0
C      1  0.5548080000000  0.4649000000000  0.5274960000000 1.0
C      1  0.4900890000000  0.5047050000000  0.4134340000000 1.0
C      1  0.4724940000000  0.5490920000000  0.3960610000000 1.0
C      1  0.4609940000000  0.4076090000000  0.4840310000000 1.0
C      1  0.4860410000000  0.4795410000000  0.4797330000000 1.0
C      1  0.4922440000000  0.5907770000000  0.5205190000000 1.0
C      1  0.5039580000000  0.5695910000000  0.4709000000000 1.0
C      1  0.4397290000000  0.5070890000000  0.5501490000000 1.0
C      1  0.5416240000000  0.5324970000000  0.4522870000000 1.0
C      1  0.4910510000000  0.5386130000000  0.4678040000000 1.0
C      1  0.4767650000000  0.4538390000000  0.4964220000000 1.0
C      1  0.5596490000000  0.5412150000000  0.4716460000000 1.0
C      1  0.5235410000000  0.5459890000000  0.5554930000000 1.0
C      1  0.4701190000000  0.4918490000000  0.4557130000000 1.0
C      1  0.4839340000000  0.4800430000000  0.5399390000000 1.0
C      1  0.5745900000000  0.5851950000000  0.4902590000000 1.0
C      1  0.4841980000000  0.4668530000000  0.4418920000000 1.0
C      1  0.5215410000000  0.4737300000000  0.5265250000000 1.0
C      1  0.5309790000000  0.4407360000000  0.5063570000000 1.0
C      1  0.5264820000000  0.5690240000000  0.4929590000000 1.0
C      1  0.4712630000000  0.4490270000000  0.5685020000000 1.0
C      1  0.4635510000000  0.5117450000000  0.4852660000000 1.0
C      1  0.4647520000000  0.6056310000000  0.5159420000000 1.0
C      1  0.5295840000000  0.4831330000000  0.4332130000000 1.0
C      1  0.5294210000000  0.5690670000000  0.5421980000000 1.0
C      1  0.5271260000000  0.4968220000000  0.5746570000000 1.0
C      1  0.4586260000000  0.4319850000000  0.5262650000000 1.0
C      1  0.5355150000000  0.4389510000000  0.4577890000000 1.0
C      1  0.5093670000000  0.4269020000000  0.4937370000000 1.0
C      1  0.5845360000000  0.4911110000000  0.5012980000000 1.0
C      1  0.5683370000000  0.5162750000000  0.4893510000000 1.0
C      1  0.4135490000000  0.5065430000000  0.5586790000000 1.0
C      1  0.4345240000000  0.4457830000000  0.4679360000000 1.0
C      1  0.4943530000000  0.4533570000000  0.5248710000000 1.0
C      1  0.5470590000000  0.4619080000000  0.4405710000000 1.0
C      1  0.4399070000000  0.5249500000000  0.4701190000000 1.0
C      1  0.4625830000000  0.4837020000000  0.5044990000000 1.0
C      1  0.5554440000000  0.5663010000000  0.4841400000000 1.0
C      1  0.4615700000000  0.4346790000000  0.4766950000000 1.0
C      1  0.4664050000000  0.5730010000000  0.5069380000000 1.0
C      1  0.4955970000000  0.4910760000000  0.5776760000000 1.0
C      1  0.4463020000000  0.5352120000000  0.4381830000000 1.0
C      1  0.5136930000000  0.4926120000000  0.4803400000000 1.0
C      1  0.4852210000000  0.4431170000000  0.4569330000000 1.0
C      1  0.5325620000000  0.4323040000000  0.5338660000000 1.0
C      1  0.5023360000000  0.4812230000000  0.4238830000000 1.0
C      1  0.4869090000000  0.4207840000000  0.5164950000000 1.0
C      1  0.5097130000000  0.4322100000000  0.4662230000000 1.0
C      1  0.4765700000000  0.5376360000000  0.5593360000000 1.0
C      1  0.4947840000000  0.5135560000000  0.4987150000000 1.0
END
