TITL C-2778423-5760-1187 -0.00290455188737298 125000 -953.562185137974 0 0 166 (C1) n - 1
REM
REM in /home/nfs/bkarasulu/CARBON/AIRSS/Generating-Clusters/REBO/Only-C1/SD-CG/HFTN-CG
REM
REM
REM
REM
REM
REM ./C.cell (11c1c37f851c82e70ff6c80c92926a4b)
REM
REM compiler GCC version 9.2.1 20190827 (Red Hat 9.2.1-1)
REM options -cpp -mtune=generic -march=x86-64 -g -O0 -fpre-include=/usr/include/finclude/math-vector-fortran.h
REM seed -250328042 -2111745072 -2006572770 -1895820642 2128877992 766281159 -839971800 1640554754 1058357560 -1432465495 880071836 -1243118359 222185048 -1142532819 -509198648 -85029255 70119303 -794604812 1322232298 -1117619204 -462291484 483959022 -1843872487 1371099691 1848823773 551003484 -1291632318 1296143972 -908570593 1034562104 -396375058 -1513643008 -625474475
REM
CELL 1.54180   50.00000   50.00000   50.00000   90.00000   90.00000   90.00000
LATT -1
SFAC C  
C      1  0.5419570000000  0.4272750000000  0.4599150000000 1.0
C      1  0.5640020000000  0.5383720000000  0.4319830000000 1.0
C      1  0.5361870000000  0.5325910000000  0.5928090000000 1.0
C      1  0.4896470000000  0.4562260000000  0.3935850000000 1.0
C      1  0.5179480000000  0.5007720000000  0.5658560000000 1.0
C      1  0.5590460000000  0.5026320000000  0.4669170000000 1.0
C      1  0.4884400000000  0.5507510000000  0.4641400000000 1.0
C      1  0.4260970000000  0.5192000000000  0.4393730000000 1.0
C      1  0.4920400000000  0.4919180000000  0.5839720000000 1.0
C      1  0.4707450000000  0.5656360000000  0.4210010000000 1.0
C      1  0.4266500000000  0.5739280000000  0.4821650000000 1.0
C      1  0.4454650000000  0.4566210000000  0.5416760000000 1.0
C      1  0.4568300000000  0.5302070000000  0.4327470000000 1.0
C      1  0.5331510000000  0.4741750000000  0.4835540000000 1.0
C      1  0.4424300000000  0.4945650000000  0.4220780000000 1.0
C      1  0.4923930000000  0.5963750000000  0.4842850000000 1.0
C      1  0.4001190000000  0.4660440000000  0.4813070000000 1.0
C      1  0.5199050000000  0.4009520000000  0.4997840000000 1.0
C      1  0.4894710000000  0.4150630000000  0.5214570000000 1.0
C      1  0.5846770000000  0.5595930000000  0.5601820000000 1.0
C      1  0.4437890000000  0.5777390000000  0.5772590000000 1.0
C      1  0.5021370000000  0.5029400000000  0.5276150000000 1.0
C      1  0.4775140000000  0.4425210000000  0.4469550000000 1.0
C      1  0.5454580000000  0.5619370000000  0.4261430000000 1.0
C      1  0.4349060000000  0.5003210000000  0.5841580000000 1.0
C      1  0.5499220000000  0.4417470000000  0.5361830000000 1.0
C      1  0.4166030000000  0.4821490000000  0.5509260000000 1.0
C      1  0.4341090000000  0.5901460000000  0.5051200000000 1.0
C      1  0.4752060000000  0.5029080000000  0.5139010000000 1.0
C      1  0.5259020000000  0.4508790000000  0.5146370000000 1.0
C      1  0.4513820000000  0.4858520000000  0.5507700000000 1.0
C      1  0.4780240000000  0.4775210000000  0.4253830000000 1.0
C      1  0.5657600000000  0.4357140000000  0.4415140000000 1.0
C      1  0.4067470000000  0.5138800000000  0.5434110000000 1.0
C      1  0.5834970000000  0.4620770000000  0.4998150000000 1.0
C      1  0.5478090000000  0.4177600000000  0.5115750000000 1.0
C      1  0.5872300000000  0.4357180000000  0.4840810000000 1.0
C      1  0.4737530000000  0.5252910000000  0.5719620000000 1.0
C      1  0.5373000000000  0.4697440000000  0.5820110000000 1.0
C      1  0.5791730000000  0.5399650000000  0.4623810000000 1.0
C      1  0.5071000000000  0.4278260000000  0.5548810000000 1.0
C      1  0.5551230000000  0.4575770000000  0.4213370000000 1.0
C      1  0.4849450000000  0.5008700000000  0.4838950000000 1.0
C      1  0.5979870000000  0.5108240000000  0.4641100000000 1.0
C      1  0.5232740000000  0.5601210000000  0.5792550000000 1.0
C      1  0.4448740000000  0.5620290000000  0.4354310000000 1.0
C      1  0.5078030000000  0.4937730000000  0.4461350000000 1.0
C      1  0.5272140000000  0.4420130000000  0.4330120000000 1.0
C      1  0.4379500000000  0.5157120000000  0.5540020000000 1.0
C      1  0.6097380000000  0.5310560000000  0.5483530000000 1.0
C      1  0.4137800000000  0.4556910000000  0.5292640000000 1.0
C      1  0.5673350000000  0.4886000000000  0.4142060000000 1.0
C      1  0.4878090000000  0.5360610000000  0.5447010000000 1.0
C      1  0.5265120000000  0.5777910000000  0.5582120000000 1.0
C      1  0.5807850000000  0.4932060000000  0.5422010000000 1.0
C      1  0.4679660000000  0.4177230000000  0.5428460000000 1.0
C      1  0.5487400000000  0.4481190000000  0.5639860000000 1.0
C      1  0.5468400000000  0.4834820000000  0.4415390000000 1.0
C      1  0.5983860000000  0.4524800000000  0.5262560000000 1.0
C      1  0.4291740000000  0.4293810000000  0.5544910000000 1.0
C      1  0.5038370000000  0.4614010000000  0.4370880000000 1.0
C      1  0.4568400000000  0.4025540000000  0.4854030000000 1.0
C      1  0.4426930000000  0.4509850000000  0.4853780000000 1.0
C      1  0.4291860000000  0.4717520000000  0.5808140000000 1.0
C      1  0.4488440000000  0.5159840000000  0.5010710000000 1.0
C      1  0.4896260000000  0.5182030000000  0.3920450000000 1.0
C      1  0.5212300000000  0.5184880000000  0.5091310000000 1.0
C      1  0.5666170000000  0.5234200000000  0.5804290000000 1.0
C      1  0.5773190000000  0.4137970000000  0.4975120000000 1.0
C      1  0.5566820000000  0.5553330000000  0.4792390000000 1.0
C      1  0.4533840000000  0.5674850000000  0.5468540000000 1.0
C      1  0.4540120000000  0.5370050000000  0.5393690000000 1.0
C      1  0.5702340000000  0.5403260000000  0.5378110000000 1.0
C      1  0.4859420000000  0.3975640000000  0.4946280000000 1.0
C      1  0.5499170000000  0.5191370000000  0.5510220000000 1.0
C      1  0.4153520000000  0.4908950000000  0.4690090000000 1.0
C      1  0.4782210000000  0.4119710000000  0.4343370000000 1.0
C      1  0.5699830000000  0.5151730000000  0.4922360000000 1.0
C      1  0.4857670000000  0.5497260000000  0.5166630000000 1.0
C      1  0.4509320000000  0.4137270000000  0.4545420000000 1.0
C      1  0.4692580000000  0.4761360000000  0.4692310000000 1.0
C      1  0.4518000000000  0.4261270000000  0.5068980000000 1.0
C      1  0.3990740000000  0.5033350000000  0.5155240000000 1.0
C      1  0.5102370000000  0.5866670000000  0.4566700000000 1.0
C      1  0.5294800000000  0.5978500000000  0.5010240000000 1.0
C      1  0.4742340000000  0.5259370000000  0.4684140000000 1.0
C      1  0.4698110000000  0.4515040000000  0.5215540000000 1.0
C      1  0.5947420000000  0.4662320000000  0.5470790000000 1.0
C      1  0.5481610000000  0.4884620000000  0.5379730000000 1.0
C      1  0.5017860000000  0.4725090000000  0.4793930000000 1.0
C      1  0.5535820000000  0.4712060000000  0.5096420000000 1.0
C      1  0.5263630000000  0.4318220000000  0.5755910000000 1.0
C      1  0.4437190000000  0.5189700000000  0.4687840000000 1.0
C      1  0.4980530000000  0.4425330000000  0.5055810000000 1.0
C      1  0.5486980000000  0.3940240000000  0.5365870000000 1.0
C      1  0.5511620000000  0.5753660000000  0.5400530000000 1.0
C      1  0.5544520000000  0.5944450000000  0.5142860000000 1.0
C      1  0.5012530000000  0.5941820000000  0.5173880000000 1.0
C      1  0.4461080000000  0.4468400000000  0.4550600000000 1.0
C      1  0.4743920000000  0.5740520000000  0.4687110000000 1.0
C      1  0.5162020000000  0.4774710000000  0.5427890000000 1.0
C      1  0.5105680000000  0.5371070000000  0.3927120000000 1.0
C      1  0.4463610000000  0.5735100000000  0.4614440000000 1.0
C      1  0.4889430000000  0.5390750000000  0.4259970000000 1.0
C      1  0.4144890000000  0.4405310000000  0.4985980000000 1.0
C      1  0.4265060000000  0.4930470000000  0.4998170000000 1.0
C      1  0.5904340000000  0.5155360000000  0.5615710000000 1.0
C      1  0.4132970000000  0.5461840000000  0.4878230000000 1.0
C      1  0.5440170000000  0.5000250000000  0.5855270000000 1.0
C      1  0.5277180000000  0.3999120000000  0.4665900000000 1.0
C      1  0.4959030000000  0.4528510000000  0.5440620000000 1.0
C      1  0.5991270000000  0.5331700000000  0.4895500000000 1.0
C      1  0.5890040000000  0.4363710000000  0.4558440000000 1.0
C      1  0.4767650000000  0.5774900000000  0.5679570000000 1.0
C      1  0.4281110000000  0.5835200000000  0.5319950000000 1.0
C      1  0.4161900000000  0.5704580000000  0.5601840000000 1.0
C      1  0.4704300000000  0.5032920000000  0.4044510000000 1.0
C      1  0.4440160000000  0.4876390000000  0.4553470000000 1.0
C      1  0.4568000000000  0.4768440000000  0.5018780000000 1.0
C      1  0.5171970000000  0.4049210000000  0.5338050000000 1.0
C      1  0.5415990000000  0.5820850000000  0.4446790000000 1.0
C      1  0.5731220000000  0.5760040000000  0.4973860000000 1.0
C      1  0.5211900000000  0.5573260000000  0.4110980000000 1.0
C      1  0.4260890000000  0.4156150000000  0.4784290000000 1.0
C      1  0.5778980000000  0.5080730000000  0.4388170000000 1.0
C      1  0.5039240000000  0.5354430000000  0.6033440000000 1.0
C      1  0.5976780000000  0.4873390000000  0.4857130000000 1.0
C      1  0.5155080000000  0.5216110000000  0.4309360000000 1.0
C      1  0.5119930000000  0.4120640000000  0.4385430000000 1.0
C      1  0.5274400000000  0.5727070000000  0.4807320000000 1.0
C      1  0.5003960000000  0.5746000000000  0.4276500000000 1.0
C      1  0.4650100000000  0.4482590000000  0.4014810000000 1.0
C      1  0.5419520000000  0.4413000000000  0.4861930000000 1.0
C      1  0.4894220000000  0.5125080000000  0.6064410000000 1.0
C      1  0.3941720000000  0.4726110000000  0.5107750000000 1.0
C      1  0.5525950000000  0.5287080000000  0.5126060000000 1.0
C      1  0.4644870000000  0.5923350000000  0.5024730000000 1.0
C      1  0.5280890000000  0.4858150000000  0.4128630000000 1.0
C      1  0.5180300000000  0.5310470000000  0.5509040000000 1.0
C      1  0.5123300000000  0.5628190000000  0.5088930000000 1.0
C      1  0.5329080000000  0.5509760000000  0.5289420000000 1.0
C      1  0.4776380000000  0.5054760000000  0.4434650000000 1.0
C      1  0.5264140000000  0.5022180000000  0.4698260000000 1.0
C      1  0.5104820000000  0.4663020000000  0.5886370000000 1.0
C      1  0.4336740000000  0.5484960000000  0.5136650000000 1.0
C      1  0.4043550000000  0.5221950000000  0.4651230000000 1.0
C      1  0.5309660000000  0.5330920000000  0.4796940000000 1.0
C      1  0.4406280000000  0.4456740000000  0.5796940000000 1.0
C      1  0.4623460000000  0.5621880000000  0.5083490000000 1.0
C      1  0.5111950000000  0.4713730000000  0.3990710000000 1.0
C      1  0.4971540000000  0.4121120000000  0.4690940000000 1.0
C      1  0.6102560000000  0.5284550000000  0.5206920000000 1.0
C      1  0.5147640000000  0.5436700000000  0.4558100000000 1.0
C      1  0.3896520000000  0.5243170000000  0.4953470000000 1.0
C      1  0.4666080000000  0.4320090000000  0.5680620000000 1.0
C      1  0.5452030000000  0.5150240000000  0.4173180000000 1.0
C      1  0.5919280000000  0.5026520000000  0.5141660000000 1.0
C      1  0.4396460000000  0.4115260000000  0.5327560000000 1.0
C      1  0.4151310000000  0.5458130000000  0.5413170000000 1.0
C      1  0.4932430000000  0.4424940000000  0.4747570000000 1.0
C      1  0.5011190000000  0.5885320000000  0.5485640000000 1.0
C      1  0.4802080000000  0.4978120000000  0.5532560000000 1.0
C      1  0.4940000000000  0.5601620000000  0.5878030000000 1.0
C      1  0.5826030000000  0.5698220000000  0.5277170000000 1.0
C      1  0.4489200000000  0.4611800000000  0.4262170000000 1.0
C      1  0.4542130000000  0.5220390000000  0.5900300000000 1.0
END
