TITL C-2778434-4341-676 -4.37880608243175e-07 125000 -203.667363155581 0 0 36 (C1) n - 1
REM
REM in /home/nfs/bkarasulu/CARBON/AIRSS/Generating-Clusters/REBO/Only-C1/SD-CG/HFTN-CG
REM
REM
REM
REM
REM
REM ./C.cell (11c1c37f851c82e70ff6c80c92926a4b)
REM
REM compiler GCC version 9.2.1 20190827 (Red Hat 9.2.1-1)
REM options -cpp -mtune=generic -march=x86-64 -g -O0 -fpre-include=/usr/include/finclude/math-vector-fortran.h
REM seed 1003946861 -1534841478 405105338 1988589576 103694232 -714886027 734228915 1695970669 -717544457 1297329825 532299068 -534416567 1846966346 -531198714 370571032 562676731 -445897546 -970037339 -1988225209 1614655772 -1857157594 -913072852 24566797 858004749 547621354 -2066680610 -1535738125 -1306963610 -20503986 1052046571 -1398397464 -543046976 1514314458
REM
CELL 1.54180   50.00000   50.00000   50.00000   90.00000   90.00000   90.00000
LATT -1
SFAC C  
C      1  0.5370420000000  0.4801800000000  0.4601290000000 1.0
C      1  0.5015910000000  0.5350990000000  0.5613980000000 1.0
C      1  0.5300810000000  0.5356570000000  0.5647560000000 1.0
C      1  0.5413750000000  0.4705180000000  0.4361560000000 1.0
C      1  0.5313960000000  0.5345250000000  0.5162480000000 1.0
C      1  0.3956410000000  0.4757030000000  0.3857240000000 1.0
C      1  0.5066970000000  0.4990960000000  0.4949990000000 1.0
C      1  0.4264090000000  0.4790340000000  0.4291150000000 1.0
C      1  0.5009330000000  0.5009320000000  0.4393790000000 1.0
C      1  0.5419250000000  0.5527040000000  0.5834120000000 1.0
C      1  0.5800010000000  0.4951130000000  0.4999690000000 1.0
C      1  0.5453360000000  0.5173660000000  0.5495720000000 1.0
C      1  0.6056210000000  0.4966420000000  0.4946670000000 1.0
C      1  0.4653660000000  0.5120320000000  0.5381670000000 1.0
C      1  0.4547700000000  0.4858490000000  0.4428920000000 1.0
C      1  0.4909460000000  0.5212840000000  0.5385780000000 1.0
C      1  0.4850950000000  0.5468740000000  0.5796040000000 1.0
C      1  0.5530470000000  0.5687110000000  0.6009310000000 1.0
C      1  0.4361080000000  0.4737050000000  0.4880000000000 1.0
C      1  0.4469730000000  0.4596320000000  0.5426400000000 1.0
C      1  0.5526170000000  0.5499010000000  0.5159740000000 1.0
C      1  0.4614980000000  0.4783780000000  0.4998370000000 1.0
C      1  0.4303960000000  0.4758020000000  0.4608950000000 1.0
C      1  0.4935580000000  0.4721300000000  0.5352970000000 1.0
C      1  0.5528140000000  0.4934890000000  0.5055960000000 1.0
C      1  0.5418290000000  0.5177740000000  0.4104700000000 1.0
C      1  0.5086000000000  0.5180070000000  0.5165430000000 1.0
C      1  0.5324450000000  0.4904300000000  0.4855600000000 1.0
C      1  0.4280290000000  0.4498760000000  0.5578960000000 1.0
C      1  0.4821230000000  0.4897330000000  0.4832290000000 1.0
C      1  0.5191320000000  0.4795510000000  0.5371760000000 1.0
C      1  0.4671500000000  0.4700230000000  0.5263930000000 1.0
C      1  0.4107710000000  0.4773410000000  0.4070600000000 1.0
C      1  0.5418330000000  0.4954620000000  0.5322650000000 1.0
C      1  0.4793060000000  0.4920250000000  0.4546680000000 1.0
C      1  0.5215450000000  0.5094210000000  0.4248090000000 1.0
END
