TITL C-2778437-8639-186 -0.14249550550174 125000 -626.529862502057 0 0 107 (C1) n - 1
REM
REM in /home/nfs/bkarasulu/CARBON/AIRSS/Generating-Clusters/REBO/Only-C1/SD-CG/HFTN-CG
REM
REM
REM
REM
REM
REM ./C.cell (11c1c37f851c82e70ff6c80c92926a4b)
REM
REM compiler GCC version 9.2.1 20190827 (Red Hat 9.2.1-1)
REM options -cpp -mtune=generic -march=x86-64 -g -O0 -fpre-include=/usr/include/finclude/math-vector-fortran.h
REM seed 989685977 -891011557 1298821298 961187080 541315525 1101687641 121901721 1617605807 1097570676 1136816813 1169963911 1666430215 -1406609686 690015141 -1263399851 -365284093 -570737616 962580213 -810861613 1390688815 -1747266352 1243518052 1805014027 -667361798 764357792 -1124954985 -1173634376 -561423200 -230444909 -1001005632 -2100041960 -1508960934 1285517352
REM
CELL 1.54180   50.00000   50.00000   50.00000   90.00000   90.00000   90.00000
LATT -1
SFAC C  
C      1  0.4455630000000  0.4282310000000  0.4826150000000 1.0
C      1  0.4634300000000  0.4264560000000  0.4606790000000 1.0
C      1  0.5437430000000  0.5177640000000  0.5062400000000 1.0
C      1  0.4452910000000  0.5421530000000  0.5494780000000 1.0
C      1  0.4785910000000  0.5446150000000  0.4995320000000 1.0
C      1  0.4400400000000  0.5253090000000  0.4436100000000 1.0
C      1  0.5113890000000  0.4082120000000  0.4875970000000 1.0
C      1  0.5331890000000  0.5281080000000  0.5346560000000 1.0
C      1  0.4371990000000  0.5292850000000  0.5204700000000 1.0
C      1  0.5769860000000  0.5186600000000  0.5069330000000 1.0
C      1  0.5053330000000  0.4999740000000  0.4486030000000 1.0
C      1  0.5232150000000  0.5315880000000  0.5812910000000 1.0
C      1  0.4734740000000  0.5024470000000  0.4709990000000 1.0
C      1  0.5416170000000  0.5478630000000  0.4391290000000 1.0
C      1  0.5243260000000  0.5554810000000  0.5493580000000 1.0
C      1  0.5189260000000  0.5232130000000  0.4608270000000 1.0
C      1  0.4280540000000  0.4872550000000  0.5727630000000 1.0
C      1  0.5074950000000  0.4722930000000  0.5043170000000 1.0
C      1  0.4677570000000  0.4482280000000  0.4409100000000 1.0
C      1  0.4604840000000  0.4222490000000  0.5102480000000 1.0
C      1  0.5416590000000  0.5737210000000  0.5106500000000 1.0
C      1  0.4755740000000  0.4777690000000  0.5711540000000 1.0
C      1  0.5038460000000  0.4813590000000  0.5849380000000 1.0
C      1  0.5426680000000  0.5149450000000  0.4298000000000 1.0
C      1  0.4417560000000  0.5517440000000  0.4631120000000 1.0
C      1  0.4422500000000  0.4580070000000  0.5383160000000 1.0
C      1  0.4206330000000  0.5256640000000  0.4709410000000 1.0
C      1  0.4889420000000  0.5508190000000  0.5316190000000 1.0
C      1  0.5843210000000  0.4812650000000  0.4321300000000 1.0
C      1  0.4198290000000  0.4470730000000  0.5211200000000 1.0
C      1  0.4606910000000  0.5071880000000  0.5611800000000 1.0
C      1  0.4756930000000  0.5375730000000  0.5579250000000 1.0
C      1  0.4146190000000  0.4958860000000  0.4797310000000 1.0
C      1  0.4944510000000  0.5562990000000  0.4522560000000 1.0
C      1  0.4851420000000  0.5894460000000  0.4977090000000 1.0
C      1  0.5641760000000  0.4654670000000  0.4313410000000 1.0
C      1  0.5289710000000  0.4855970000000  0.4697840000000 1.0
C      1  0.5057550000000  0.5085910000000  0.5383190000000 1.0
C      1  0.4064850000000  0.5074000000000  0.5334990000000 1.0
C      1  0.5140580000000  0.4306360000000  0.5114530000000 1.0
C      1  0.5384110000000  0.4817190000000  0.4370730000000 1.0
C      1  0.5153060000000  0.4334240000000  0.4571100000000 1.0
C      1  0.5823530000000  0.4654070000000  0.5163270000000 1.0
C      1  0.4696430000000  0.5159890000000  0.4405460000000 1.0
C      1  0.5638950000000  0.4659030000000  0.5674710000000 1.0
C      1  0.5500110000000  0.5703740000000  0.5606900000000 1.0
C      1  0.5339500000000  0.5322820000000  0.4812210000000 1.0
C      1  0.4720240000000  0.4940090000000  0.4181320000000 1.0
C      1  0.5765110000000  0.4509550000000  0.5448320000000 1.0
C      1  0.5004020000000  0.4479390000000  0.4326330000000 1.0
C      1  0.5364730000000  0.4769960000000  0.5813010000000 1.0
C      1  0.4886030000000  0.4138590000000  0.4649990000000 1.0
C      1  0.5322370000000  0.4352040000000  0.5328710000000 1.0
C      1  0.4239170000000  0.4458240000000  0.4907650000000 1.0
C      1  0.4546180000000  0.4777330000000  0.4645030000000 1.0
C      1  0.5742890000000  0.5081080000000  0.4417060000000 1.0
C      1  0.4516070000000  0.4743650000000  0.4315600000000 1.0
C      1  0.5056600000000  0.4476910000000  0.4847080000000 1.0
C      1  0.4580960000000  0.4561670000000  0.5081690000000 1.0
C      1  0.5028160000000  0.4989270000000  0.4880410000000 1.0
C      1  0.4745480000000  0.5777590000000  0.5215310000000 1.0
C      1  0.4925630000000  0.5353130000000  0.4333820000000 1.0
C      1  0.4294410000000  0.4934680000000  0.4492110000000 1.0
C      1  0.5020170000000  0.5494840000000  0.5693840000000 1.0
C      1  0.4900440000000  0.4088270000000  0.5144310000000 1.0
C      1  0.4995210000000  0.4943300000000  0.4095010000000 1.0
C      1  0.5711480000000  0.5397070000000  0.5297780000000 1.0
C      1  0.5122170000000  0.5210940000000  0.4159520000000 1.0
C      1  0.5617160000000  0.4485140000000  0.4945650000000 1.0
C      1  0.5716620000000  0.5088010000000  0.4750360000000 1.0
C      1  0.4750110000000  0.4944730000000  0.5348700000000 1.0
C      1  0.4902100000000  0.4683570000000  0.5279950000000 1.0
C      1  0.4225250000000  0.5434830000000  0.4966860000000 1.0
C      1  0.5599720000000  0.5237040000000  0.5544550000000 1.0
C      1  0.4274480000000  0.5143580000000  0.5562200000000 1.0
C      1  0.5392150000000  0.4271690000000  0.4806170000000 1.0
C      1  0.5605000000000  0.4947560000000  0.5556030000000 1.0
C      1  0.5119680000000  0.5781170000000  0.4892910000000 1.0
C      1  0.4623880000000  0.5915970000000  0.4783530000000 1.0
C      1  0.5688960000000  0.5384590000000  0.4484060000000 1.0
C      1  0.4926050000000  0.4717050000000  0.4544620000000 1.0
C      1  0.5475850000000  0.5617570000000  0.4826170000000 1.0
C      1  0.4811850000000  0.4358950000000  0.5335410000000 1.0
C      1  0.4382410000000  0.5720890000000  0.4903190000000 1.0
C      1  0.5722990000000  0.5430850000000  0.4779120000000 1.0
C      1  0.4331060000000  0.4777640000000  0.4994070000000 1.0
C      1  0.4465930000000  0.4697660000000  0.5629070000000 1.0
C      1  0.5380340000000  0.4807800000000  0.5409790000000 1.0
C      1  0.4724070000000  0.5598790000000  0.4735050000000 1.0
C      1  0.4023280000000  0.5007350000000  0.5101490000000 1.0
C      1  0.5344130000000  0.4873330000000  0.5112970000000 1.0
C      1  0.5041080000000  0.5227660000000  0.5077360000000 1.0
C      1  0.5587910000000  0.4352080000000  0.5253360000000 1.0
C      1  0.4948530000000  0.4544130000000  0.5573980000000 1.0
C      1  0.5605140000000  0.5663120000000  0.5319520000000 1.0
C      1  0.4757660000000  0.4616970000000  0.4824850000000 1.0
C      1  0.5148590000000  0.4725030000000  0.4198960000000 1.0
C      1  0.5200350000000  0.5041350000000  0.5682460000000 1.0
C      1  0.4662990000000  0.5170400000000  0.4960920000000 1.0
C      1  0.5900160000000  0.4911480000000  0.5147170000000 1.0
C      1  0.4496200000000  0.5003090000000  0.5159580000000 1.0
C      1  0.5249290000000  0.4566180000000  0.5491860000000 1.0
C      1  0.5557370000000  0.4811390000000  0.4868680000000 1.0
C      1  0.5230670000000  0.5654580000000  0.4595980000000 1.0
C      1  0.4458980000000  0.5627790000000  0.5222320000000 1.0
C      1  0.5153630000000  0.5543130000000  0.5107760000000 1.0
C      1  0.5498940000000  0.5428980000000  0.5772730000000 1.0
END
