TITL C-2778430-5657-283 0.00419158834932534 125000 -682.856198650848 0 0 116 (C1) n - 1
REM
REM in /home/nfs/bkarasulu/CARBON/AIRSS/Generating-Clusters/REBO/Only-C1/SD-CG/HFTN-CG
REM
REM
REM
REM
REM
REM ./C.cell (11c1c37f851c82e70ff6c80c92926a4b)
REM
REM compiler GCC version 9.2.1 20190827 (Red Hat 9.2.1-1)
REM options -cpp -mtune=generic -march=x86-64 -g -O0 -fpre-include=/usr/include/finclude/math-vector-fortran.h
REM seed 1066256300 -1077294787 1983737255 1180433614 1650510980 -1731979354 -718306789 1203147795 -48499711 -1381186550 1298114098 1128681837 -1109257724 -1443475969 1076609539 -1791003071 -1949663419 1999286217 2106827627 438759659 -63864045 1919074039 -1080437816 118867407 1354295218 1235909141 -1849443104 -1992299641 -219869525 -15975521 -1673028883 -975434727 613043774
REM
CELL 1.54180   50.00000   50.00000   50.00000   90.00000   90.00000   90.00000
LATT -1
SFAC C  
C      1  0.5818400000000  0.4704750000000  0.5044620000000 1.0
C      1  0.5145990000000  0.4851140000000  0.5270780000000 1.0
C      1  0.5137750000000  0.5588670000000  0.5762220000000 1.0
C      1  0.5560470000000  0.5481410000000  0.4691130000000 1.0
C      1  0.4714880000000  0.4480170000000  0.5233460000000 1.0
C      1  0.4944060000000  0.5371490000000  0.5842190000000 1.0
C      1  0.4872030000000  0.5319640000000  0.4645020000000 1.0
C      1  0.4539860000000  0.5611890000000  0.5082560000000 1.0
C      1  0.4819650000000  0.4485090000000  0.4205430000000 1.0
C      1  0.4726790000000  0.4871850000000  0.4170950000000 1.0
C      1  0.5731420000000  0.5559200000000  0.5142730000000 1.0
C      1  0.5659490000000  0.5096190000000  0.5331320000000 1.0
C      1  0.4586100000000  0.4803970000000  0.5039300000000 1.0
C      1  0.5759260000000  0.5140550000000  0.4631550000000 1.0
C      1  0.5628220000000  0.5113470000000  0.5728450000000 1.0
C      1  0.4965040000000  0.4592870000000  0.5417400000000 1.0
C      1  0.4845180000000  0.4684240000000  0.4674260000000 1.0
C      1  0.4394720000000  0.5172410000000  0.4350740000000 1.0
C      1  0.5357190000000  0.5438430000000  0.4354380000000 1.0
C      1  0.4488130000000  0.5817710000000  0.4858330000000 1.0
C      1  0.5104040000000  0.4258450000000  0.4528730000000 1.0
C      1  0.5705880000000  0.4627780000000  0.4758220000000 1.0
C      1  0.4340920000000  0.4832060000000  0.5254000000000 1.0
C      1  0.5320590000000  0.4727160000000  0.4764320000000 1.0
C      1  0.5451200000000  0.5736870000000  0.5150050000000 1.0
C      1  0.4682720000000  0.5460960000000  0.5654080000000 1.0
C      1  0.4762760000000  0.5384870000000  0.4963770000000 1.0
C      1  0.5322590000000  0.4087310000000  0.5209320000000 1.0
C      1  0.5309320000000  0.5770500000000  0.4842770000000 1.0
C      1  0.5844990000000  0.4664130000000  0.5385570000000 1.0
C      1  0.4529130000000  0.4842760000000  0.5755480000000 1.0
C      1  0.4725500000000  0.4267880000000  0.4896100000000 1.0
C      1  0.5344380000000  0.5097060000000  0.5773810000000 1.0
C      1  0.4983990000000  0.5875510000000  0.4850600000000 1.0
C      1  0.5081850000000  0.5279790000000  0.4383540000000 1.0
C      1  0.4801990000000  0.4080660000000  0.5101820000000 1.0
C      1  0.4447350000000  0.4652580000000  0.4832850000000 1.0
C      1  0.5358990000000  0.4392130000000  0.4501360000000 1.0
C      1  0.4702720000000  0.4957690000000  0.4663010000000 1.0
C      1  0.5541410000000  0.4260920000000  0.5013250000000 1.0
C      1  0.4533760000000  0.4618030000000  0.4195750000000 1.0
C      1  0.5877390000000  0.5172600000000  0.4868400000000 1.0
C      1  0.5125660000000  0.4731390000000  0.4511450000000 1.0
C      1  0.5078180000000  0.4109220000000  0.4761950000000 1.0
C      1  0.5021410000000  0.5682090000000  0.4582390000000 1.0
C      1  0.4829490000000  0.4901220000000  0.5143060000000 1.0
C      1  0.4641390000000  0.5826970000000  0.5332480000000 1.0
C      1  0.5543080000000  0.4386550000000  0.4737230000000 1.0
C      1  0.5551580000000  0.5400770000000  0.4963780000000 1.0
C      1  0.5231960000000  0.5457290000000  0.4730850000000 1.0
C      1  0.4341430000000  0.5735970000000  0.4641970000000 1.0
C      1  0.4758960000000  0.5533970000000  0.4422960000000 1.0
C      1  0.4503000000000  0.5616690000000  0.5479990000000 1.0
C      1  0.5818670000000  0.5389320000000  0.5348600000000 1.0
C      1  0.5348550000000  0.4185330000000  0.5523040000000 1.0
C      1  0.5323010000000  0.4616650000000  0.4256780000000 1.0
C      1  0.5096930000000  0.5193920000000  0.4857760000000 1.0
C      1  0.4610180000000  0.4565710000000  0.5731840000000 1.0
C      1  0.4386830000000  0.4961910000000  0.5542740000000 1.0
C      1  0.4376320000000  0.4516700000000  0.5219530000000 1.0
C      1  0.5232980000000  0.5329030000000  0.5558140000000 1.0
C      1  0.4912390000000  0.5326510000000  0.5446610000000 1.0
C      1  0.4081010000000  0.5005750000000  0.5165950000000 1.0
C      1  0.5107550000000  0.4917550000000  0.4864360000000 1.0
C      1  0.5309150000000  0.4457610000000  0.5569940000000 1.0
C      1  0.5129310000000  0.4895010000000  0.5837590000000 1.0
C      1  0.4632960000000  0.5039330000000  0.5935800000000 1.0
C      1  0.4921570000000  0.5869590000000  0.5369950000000 1.0
C      1  0.4672220000000  0.5046240000000  0.4388160000000 1.0
C      1  0.5147710000000  0.4578350000000  0.5773330000000 1.0
C      1  0.5046350000000  0.5750040000000  0.5141720000000 1.0
C      1  0.5520010000000  0.5143790000000  0.4403780000000 1.0
C      1  0.5623380000000  0.4494320000000  0.5206080000000 1.0
C      1  0.4449840000000  0.4587220000000  0.4522000000000 1.0
C      1  0.4998170000000  0.4089340000000  0.5317290000000 1.0
C      1  0.4878010000000  0.4421700000000  0.4470710000000 1.0
C      1  0.5257020000000  0.5057350000000  0.3979050000000 1.0
C      1  0.5345730000000  0.4597790000000  0.5299300000000 1.0
C      1  0.4913980000000  0.5102510000000  0.5934830000000 1.0
C      1  0.5193840000000  0.4553150000000  0.5009270000000 1.0
C      1  0.5344190000000  0.5754280000000  0.4497830000000 1.0
C      1  0.4236550000000  0.5198190000000  0.5363100000000 1.0
C      1  0.5047970000000  0.5821840000000  0.5623930000000 1.0
C      1  0.4433840000000  0.5480940000000  0.4479600000000 1.0
C      1  0.5446880000000  0.5560320000000  0.5422020000000 1.0
C      1  0.4819690000000  0.5467580000000  0.4147670000000 1.0
C      1  0.5815300000000  0.5012460000000  0.5077720000000 1.0
C      1  0.4958350000000  0.4270630000000  0.5530550000000 1.0
C      1  0.5148860000000  0.4240680000000  0.4984050000000 1.0
C      1  0.5746350000000  0.4882550000000  0.5551170000000 1.0
C      1  0.4328840000000  0.4850580000000  0.4340480000000 1.0
C      1  0.4966720000000  0.4902170000000  0.3970190000000 1.0
C      1  0.4975940000000  0.5229850000000  0.4064070000000 1.0
C      1  0.4557020000000  0.4302920000000  0.4676750000000 1.0
C      1  0.4825120000000  0.5041900000000  0.5411110000000 1.0
C      1  0.4332520000000  0.5452590000000  0.5301760000000 1.0
C      1  0.5164980000000  0.4978380000000  0.4308950000000 1.0
C      1  0.4211960000000  0.4503760000000  0.4950860000000 1.0
C      1  0.4510570000000  0.4432660000000  0.5500680000000 1.0
C      1  0.5339490000000  0.5107500000000  0.5315070000000 1.0
C      1  0.5288420000000  0.5304710000000  0.5092370000000 1.0
C      1  0.4877520000000  0.4543570000000  0.4954120000000 1.0
C      1  0.4915460000000  0.4848100000000  0.5596700000000 1.0
C      1  0.5039950000000  0.4615400000000  0.4080870000000 1.0
C      1  0.5006070000000  0.5446220000000  0.5153890000000 1.0
C      1  0.3955320000000  0.4615880000000  0.4912700000000 1.0
C      1  0.5572460000000  0.4873500000000  0.4609590000000 1.0
C      1  0.5644040000000  0.5614200000000  0.4418890000000 1.0
C      1  0.4699980000000  0.5993230000000  0.4835770000000 1.0
C      1  0.4352870000000  0.5274410000000  0.4730730000000 1.0
C      1  0.5665790000000  0.5383110000000  0.5612800000000 1.0
C      1  0.3904130000000  0.4876230000000  0.4993610000000 1.0
C      1  0.4519240000000  0.5302640000000  0.5885650000000 1.0
C      1  0.5471680000000  0.4906790000000  0.4176330000000 1.0
C      1  0.4573790000000  0.5148490000000  0.4842220000000 1.0
C      1  0.4874210000000  0.4455110000000  0.5780310000000 1.0
END
