TITL C-2778422-5617-1437 0.000598347078490144 125000 -423.729982403084 0 0 75 (C1) n - 1
REM
REM in /home/nfs/bkarasulu/CARBON/AIRSS/Generating-Clusters/REBO/Only-C1/SD-CG/HFTN-CG
REM
REM
REM
REM
REM
REM ./C.cell (11c1c37f851c82e70ff6c80c92926a4b)
REM
REM compiler GCC version 9.2.1 20190827 (Red Hat 9.2.1-1)
REM options -cpp -mtune=generic -march=x86-64 -g -O0 -fpre-include=/usr/include/finclude/math-vector-fortran.h
REM seed -1935395602 1833985089 536189235 1631848368 2077544207 1757745310 -1953334454 1419758371 -587361697 557246767 -1058737170 -1370645112 880422744 1537973637 -256125187 -1770811278 -1940098417 -1280542357 50840498 -978706371 209450440 -836723064 1284273549 593796712 -1341448243 1738556530 -1922986548 1425142185 -461823893 383763589 -1437103214 2135873517 811832037
REM
CELL 1.54180   50.00000   50.00000   50.00000   90.00000   90.00000   90.00000
LATT -1
SFAC C  
C      1  0.4757060000000  0.4783810000000  0.5236630000000 1.0
C      1  0.4893220000000  0.4231270000000  0.5297010000000 1.0
C      1  0.4611080000000  0.5376550000000  0.4419450000000 1.0
C      1  0.4698860000000  0.4795890000000  0.4227070000000 1.0
C      1  0.4875610000000  0.5517030000000  0.4419840000000 1.0
C      1  0.5393800000000  0.4374440000000  0.5461840000000 1.0
C      1  0.4866210000000  0.4902110000000  0.5823680000000 1.0
C      1  0.5023850000000  0.5488260000000  0.5017320000000 1.0
C      1  0.4967290000000  0.5206290000000  0.4455910000000 1.0
C      1  0.4715290000000  0.4502320000000  0.4349510000000 1.0
C      1  0.4955820000000  0.5043750000000  0.5178250000000 1.0
C      1  0.4594410000000  0.5210820000000  0.4864940000000 1.0
C      1  0.4429050000000  0.5337360000000  0.5221850000000 1.0
C      1  0.5149720000000  0.4762570000000  0.5168810000000 1.0
C      1  0.5525980000000  0.5369930000000  0.4454770000000 1.0
C      1  0.5433530000000  0.5394060000000  0.5577320000000 1.0
C      1  0.4659660000000  0.5055490000000  0.4503690000000 1.0
C      1  0.5392620000000  0.4909050000000  0.5473490000000 1.0
C      1  0.5468730000000  0.5475420000000  0.4773530000000 1.0
C      1  0.5500660000000  0.5188420000000  0.5049850000000 1.0
C      1  0.5003880000000  0.4777180000000  0.5471040000000 1.0
C      1  0.5135850000000  0.4281190000000  0.5527700000000 1.0
C      1  0.5154630000000  0.4981040000000  0.5686210000000 1.0
C      1  0.4838890000000  0.5005890000000  0.4881980000000 1.0
C      1  0.4779500000000  0.4524050000000  0.5050740000000 1.0
C      1  0.5329110000000  0.5639520000000  0.4523520000000 1.0
C      1  0.4339840000000  0.4762000000000  0.4995810000000 1.0
C      1  0.5740020000000  0.5146110000000  0.4931660000000 1.0
C      1  0.4634370000000  0.4989650000000  0.5704660000000 1.0
C      1  0.4950540000000  0.5437060000000  0.5609050000000 1.0
C      1  0.5002180000000  0.5598830000000  0.5320810000000 1.0
C      1  0.5854390000000  0.5093680000000  0.4689950000000 1.0
C      1  0.4945060000000  0.5748540000000  0.4824570000000 1.0
C      1  0.4998940000000  0.4183400000000  0.4688670000000 1.0
C      1  0.4556840000000  0.5050450000000  0.5163120000000 1.0
C      1  0.4385500000000  0.4496040000000  0.5109590000000 1.0
C      1  0.4991010000000  0.4284390000000  0.4999030000000 1.0
C      1  0.5508550000000  0.4835600000000  0.4479890000000 1.0
C      1  0.4659360000000  0.5268460000000  0.5589610000000 1.0
C      1  0.4410730000000  0.5439490000000  0.5607810000000 1.0
C      1  0.5251820000000  0.4879780000000  0.4688460000000 1.0
C      1  0.4903960000000  0.4816590000000  0.4501840000000 1.0
C      1  0.5567950000000  0.5494090000000  0.5297620000000 1.0
C      1  0.5499290000000  0.5162960000000  0.5359480000000 1.0
C      1  0.4870770000000  0.5282450000000  0.5323120000000 1.0
C      1  0.4574480000000  0.4444880000000  0.4718250000000 1.0
C      1  0.5483300000000  0.4651370000000  0.4769520000000 1.0
C      1  0.5202060000000  0.4697600000000  0.4413520000000 1.0
C      1  0.5486290000000  0.4673190000000  0.5365280000000 1.0
C      1  0.4679570000000  0.4196870000000  0.4723210000000 1.0
C      1  0.5084000000000  0.5107230000000  0.4730960000000 1.0
C      1  0.4483470000000  0.5538900000000  0.5082850000000 1.0
C      1  0.4369150000000  0.4839030000000  0.5312000000000 1.0
C      1  0.4998910000000  0.4431640000000  0.4456000000000 1.0
C      1  0.4878630000000  0.4493510000000  0.5524990000000 1.0
C      1  0.5228230000000  0.4497770000000  0.5036510000000 1.0
C      1  0.5224860000000  0.4437100000000  0.4713670000000 1.0
C      1  0.5605310000000  0.4620300000000  0.5051040000000 1.0
C      1  0.5228430000000  0.5306460000000  0.4904910000000 1.0
C      1  0.4995650000000  0.5866900000000  0.5131160000000 1.0
C      1  0.4610630000000  0.4418510000000  0.5328560000000 1.0
C      1  0.5680610000000  0.5085060000000  0.4476400000000 1.0
C      1  0.4425810000000  0.4831920000000  0.5587930000000 1.0
C      1  0.4716870000000  0.5505750000000  0.4876500000000 1.0
C      1  0.5154570000000  0.5126050000000  0.4226440000000 1.0
C      1  0.4483160000000  0.4677710000000  0.4526310000000 1.0
C      1  0.4776910000000  0.4710680000000  0.4792390000000 1.0
C      1  0.5395040000000  0.5197800000000  0.4220420000000 1.0
C      1  0.5600730000000  0.5575420000000  0.5041790000000 1.0
C      1  0.4200880000000  0.5583870000000  0.5623250000000 1.0
C      1  0.5023510000000  0.6116990000000  0.5203720000000 1.0
C      1  0.4446750000000  0.4929590000000  0.4739010000000 1.0
C      1  0.5492010000000  0.4335590000000  0.5164130000000 1.0
C      1  0.5195750000000  0.5298770000000  0.5714250000000 1.0
C      1  0.5048990000000  0.5700290000000  0.4544290000000 1.0
END
