TITL C-2778426-5645-1285 -0.00418898994817197 125000 -1105.06381816847 0 0 191 (C1) n - 1
REM
REM in /home/nfs/bkarasulu/CARBON/AIRSS/Generating-Clusters/REBO/Only-C1/SD-CG/HFTN-CG
REM
REM
REM
REM
REM
REM ./C.cell (11c1c37f851c82e70ff6c80c92926a4b)
REM
REM compiler GCC version 9.2.1 20190827 (Red Hat 9.2.1-1)
REM options -cpp -mtune=generic -march=x86-64 -g -O0 -fpre-include=/usr/include/finclude/math-vector-fortran.h
REM seed 287315653 1462860975 -807636415 -2039501628 -1046798438 -1078021358 -2097906827 -1244619183 -1539293070 1268480754 -1313015652 -1626747469 -1021817479 978567795 1624072088 1288369797 -1796745203 1556133484 -288992105 616960952 1256888206 -1033478370 -115839150 -856996134 -1013544524 12366150 1200844145 -1505070645 793331670 -929626826 -44793290 -741950191 1531460475
REM
CELL 1.54180   50.00000   50.00000   50.00000   90.00000   90.00000   90.00000
LATT -1
SFAC C  
C      1  0.4998780000000  0.4438170000000  0.5291560000000 1.0
C      1  0.4829440000000  0.5353500000000  0.4012880000000 1.0
C      1  0.4875930000000  0.4808800000000  0.4733010000000 1.0
C      1  0.5213910000000  0.5834810000000  0.4888220000000 1.0
C      1  0.5596910000000  0.4124450000000  0.4687490000000 1.0
C      1  0.3880880000000  0.4870110000000  0.4512160000000 1.0
C      1  0.4369830000000  0.5429580000000  0.4259930000000 1.0
C      1  0.4885980000000  0.4202750000000  0.4183460000000 1.0
C      1  0.5806790000000  0.5571580000000  0.4658330000000 1.0
C      1  0.4867810000000  0.4470700000000  0.4010770000000 1.0
C      1  0.3993000000000  0.4742690000000  0.5327250000000 1.0
C      1  0.4616900000000  0.5735640000000  0.5104270000000 1.0
C      1  0.4118810000000  0.4753920000000  0.5020870000000 1.0
C      1  0.5581740000000  0.6008630000000  0.4861450000000 1.0
C      1  0.4412310000000  0.4228770000000  0.4549070000000 1.0
C      1  0.5525390000000  0.6143100000000  0.5170120000000 1.0
C      1  0.5950850000000  0.5298950000000  0.4525740000000 1.0
C      1  0.5266380000000  0.4817720000000  0.5886860000000 1.0
C      1  0.4816930000000  0.6168900000000  0.5099460000000 1.0
C      1  0.5762960000000  0.4292400000000  0.5274330000000 1.0
C      1  0.5267580000000  0.5141570000000  0.4026580000000 1.0
C      1  0.4304380000000  0.4111830000000  0.5043360000000 1.0
C      1  0.5320840000000  0.6220500000000  0.4916370000000 1.0
C      1  0.3884600000000  0.5063350000000  0.5378520000000 1.0
C      1  0.5337500000000  0.4160800000000  0.5466550000000 1.0
C      1  0.4504110000000  0.4364450000000  0.5485640000000 1.0
C      1  0.4697710000000  0.4301520000000  0.5031940000000 1.0
C      1  0.4467180000000  0.5316430000000  0.4563320000000 1.0
C      1  0.5090250000000  0.4555140000000  0.5834340000000 1.0
C      1  0.4323570000000  0.5804350000000  0.4946280000000 1.0
C      1  0.5783680000000  0.5600220000000  0.5430430000000 1.0
C      1  0.4747710000000  0.4596970000000  0.5425390000000 1.0
C      1  0.4832170000000  0.5250930000000  0.4710980000000 1.0
C      1  0.5144300000000  0.5726460000000  0.5905690000000 1.0
C      1  0.5445250000000  0.5663260000000  0.5009640000000 1.0
C      1  0.4120350000000  0.4470480000000  0.5468840000000 1.0
C      1  0.5613610000000  0.5466070000000  0.4165600000000 1.0
C      1  0.4537550000000  0.5306780000000  0.4062380000000 1.0
C      1  0.4350660000000  0.4845200000000  0.5718620000000 1.0
C      1  0.5739090000000  0.5167590000000  0.5748290000000 1.0
C      1  0.3881440000000  0.5093520000000  0.4715520000000 1.0
C      1  0.5388420000000  0.4444580000000  0.5957480000000 1.0
C      1  0.4988400000000  0.5425320000000  0.5843700000000 1.0
C      1  0.4327880000000  0.4521400000000  0.5735460000000 1.0
C      1  0.6216490000000  0.4896770000000  0.5293070000000 1.0
C      1  0.4935010000000  0.5957070000000  0.4632970000000 1.0
C      1  0.5398780000000  0.4575660000000  0.4075720000000 1.0
C      1  0.4739030000000  0.4403380000000  0.4717910000000 1.0
C      1  0.6090710000000  0.4611900000000  0.5255720000000 1.0
C      1  0.5371820000000  0.4014860000000  0.5195580000000 1.0
C      1  0.5779020000000  0.5336720000000  0.4883000000000 1.0
C      1  0.4406670000000  0.4535880000000  0.4068750000000 1.0
C      1  0.4960480000000  0.5564610000000  0.4741420000000 1.0
C      1  0.5617770000000  0.4116160000000  0.5078980000000 1.0
C      1  0.5493510000000  0.4872430000000  0.4885600000000 1.0
C      1  0.5698810000000  0.4920850000000  0.5438640000000 1.0
C      1  0.5084270000000  0.5877460000000  0.5315430000000 1.0
C      1  0.4715570000000  0.5680410000000  0.5627980000000 1.0
C      1  0.4195250000000  0.4677130000000  0.4206010000000 1.0
C      1  0.4669760000000  0.4727500000000  0.5720650000000 1.0
C      1  0.5197660000000  0.5730450000000  0.4235250000000 1.0
C      1  0.5423970000000  0.4960680000000  0.5616940000000 1.0
C      1  0.4767280000000  0.5048430000000  0.4263280000000 1.0
C      1  0.3988290000000  0.5385840000000  0.4578280000000 1.0
C      1  0.6041610000000  0.4890750000000  0.4808430000000 1.0
C      1  0.3915770000000  0.5009860000000  0.5042180000000 1.0
C      1  0.5172950000000  0.5264130000000  0.6072250000000 1.0
C      1  0.5109710000000  0.4996460000000  0.6083550000000 1.0
C      1  0.4496750000000  0.4636480000000  0.4675740000000 1.0
C      1  0.4681210000000  0.6086560000000  0.5284900000000 1.0
C      1  0.4937200000000  0.4819810000000  0.3846370000000 1.0
C      1  0.5671740000000  0.5316880000000  0.5456430000000 1.0
C      1  0.5405500000000  0.5854190000000  0.5261540000000 1.0
C      1  0.5163520000000  0.4606570000000  0.3908300000000 1.0
C      1  0.5586790000000  0.4483610000000  0.5703000000000 1.0
C      1  0.4966380000000  0.4074860000000  0.4719900000000 1.0
C      1  0.5322200000000  0.4888560000000  0.5157920000000 1.0
C      1  0.4037160000000  0.5349650000000  0.4878930000000 1.0
C      1  0.5111110000000  0.3967900000000  0.5080810000000 1.0
C      1  0.4531250000000  0.3948060000000  0.4964020000000 1.0
C      1  0.5742420000000  0.4881340000000  0.4342250000000 1.0
C      1  0.5222680000000  0.4183220000000  0.5877220000000 1.0
C      1  0.5029280000000  0.4511900000000  0.4681470000000 1.0
C      1  0.5360150000000  0.4503510000000  0.5449620000000 1.0
C      1  0.3981930000000  0.5348220000000  0.5515660000000 1.0
C      1  0.4951620000000  0.5680080000000  0.5067290000000 1.0
C      1  0.4175240000000  0.5570820000000  0.4470050000000 1.0
C      1  0.5252660000000  0.4317130000000  0.4584360000000 1.0
C      1  0.5299840000000  0.5543790000000  0.5596020000000 1.0
C      1  0.5601450000000  0.5117620000000  0.4755280000000 1.0
C      1  0.5017060000000  0.5734560000000  0.5592680000000 1.0
C      1  0.4193570000000  0.5076000000000  0.5242960000000 1.0
C      1  0.4657550000000  0.5144510000000  0.5997010000000 1.0
C      1  0.5754860000000  0.4604710000000  0.5202140000000 1.0
C      1  0.4729110000000  0.3945300000000  0.5464960000000 1.0
C      1  0.5052810000000  0.4299370000000  0.5601030000000 1.0
C      1  0.5537730000000  0.5736190000000  0.5502590000000 1.0
C      1  0.4366780000000  0.4873160000000  0.5403270000000 1.0
C      1  0.4975930000000  0.5558800000000  0.4133250000000 1.0
C      1  0.4259250000000  0.4202530000000  0.5307710000000 1.0
C      1  0.5488280000000  0.4636440000000  0.4565500000000 1.0
C      1  0.4888600000000  0.5152820000000  0.5087730000000 1.0
C      1  0.5986730000000  0.5095320000000  0.5372550000000 1.0
C      1  0.5302870000000  0.4020680000000  0.4716200000000 1.0
C      1  0.4189460000000  0.5439900000000  0.5079590000000 1.0
C      1  0.5167940000000  0.4765320000000  0.5503210000000 1.0
C      1  0.5637260000000  0.4340280000000  0.4484480000000 1.0
C      1  0.5019410000000  0.6118550000000  0.4882650000000 1.0
C      1  0.4075280000000  0.4518400000000  0.4852100000000 1.0
C      1  0.4549740000000  0.5152390000000  0.4848640000000 1.0
C      1  0.5528260000000  0.5041280000000  0.3951010000000 1.0
C      1  0.5191940000000  0.6186480000000  0.5235340000000 1.0
C      1  0.4630240000000  0.4025580000000  0.4695430000000 1.0
C      1  0.4895200000000  0.4107410000000  0.4407840000000 1.0
C      1  0.4753160000000  0.4513880000000  0.4396330000000 1.0
C      1  0.4254190000000  0.5787480000000  0.5258830000000 1.0
C      1  0.5794370000000  0.4326330000000  0.4877010000000 1.0
C      1  0.5357840000000  0.5325630000000  0.5370530000000 1.0
C      1  0.6032270000000  0.4568440000000  0.4922640000000 1.0
C      1  0.4244100000000  0.5766710000000  0.4676100000000 1.0
C      1  0.5375900000000  0.4486390000000  0.4862250000000 1.0
C      1  0.4943510000000  0.4921520000000  0.5645110000000 1.0
C      1  0.4744020000000  0.4850670000000  0.5027380000000 1.0
C      1  0.5195130000000  0.4775220000000  0.4798090000000 1.0
C      1  0.5251640000000  0.4754990000000  0.4404340000000 1.0
C      1  0.5347870000000  0.5509630000000  0.5991060000000 1.0
C      1  0.5557350000000  0.5795400000000  0.4597740000000 1.0
C      1  0.5728960000000  0.4645550000000  0.4796890000000 1.0
C      1  0.4561860000000  0.5540880000000  0.4762680000000 1.0
C      1  0.6193980000000  0.5064380000000  0.5034700000000 1.0
C      1  0.4827790000000  0.4971410000000  0.6133610000000 1.0
C      1  0.4249970000000  0.4525290000000  0.4493780000000 1.0
C      1  0.5138930000000  0.5112680000000  0.5290390000000 1.0
C      1  0.4181140000000  0.5321640000000  0.5714130000000 1.0
C      1  0.5494410000000  0.5712500000000  0.4284040000000 1.0
C      1  0.4400410000000  0.5386970000000  0.5315300000000 1.0
C      1  0.5561950000000  0.5091860000000  0.4477320000000 1.0
C      1  0.5821560000000  0.4893520000000  0.5813780000000 1.0
C      1  0.4672360000000  0.5254590000000  0.5407190000000 1.0
C      1  0.5714690000000  0.5265730000000  0.3984980000000 1.0
C      1  0.3956340000000  0.4612500000000  0.4603830000000 1.0
C      1  0.5916690000000  0.5612870000000  0.5173080000000 1.0
C      1  0.4220390000000  0.5085650000000  0.5845310000000 1.0
C      1  0.4692230000000  0.4833250000000  0.4473110000000 1.0
C      1  0.4640890000000  0.5801430000000  0.4703160000000 1.0
C      1  0.4226780000000  0.4283300000000  0.4828400000000 1.0
C      1  0.4437870000000  0.5481390000000  0.5637300000000 1.0
C      1  0.4535280000000  0.4574490000000  0.5011290000000 1.0
C      1  0.4780620000000  0.3991380000000  0.5160980000000 1.0
C      1  0.5595400000000  0.4795630000000  0.4097140000000 1.0
C      1  0.4628840000000  0.4689000000000  0.3910470000000 1.0
C      1  0.5590650000000  0.4721080000000  0.5922480000000 1.0
C      1  0.4670840000000  0.4922110000000  0.5355050000000 1.0
C      1  0.5419950000000  0.5270300000000  0.5760500000000 1.0
C      1  0.4860520000000  0.5625990000000  0.4421510000000 1.0
C      1  0.5751890000000  0.5729970000000  0.4939520000000 1.0
C      1  0.4625150000000  0.4413580000000  0.5861830000000 1.0
C      1  0.4753460000000  0.5309530000000  0.4403000000000 1.0
C      1  0.5378780000000  0.5358710000000  0.5045230000000 1.0
C      1  0.5028820000000  0.5249620000000  0.5584430000000 1.0
C      1  0.5645750000000  0.4237870000000  0.5531920000000 1.0
C      1  0.4936900000000  0.5451560000000  0.5323490000000 1.0
C      1  0.4673260000000  0.5106410000000  0.5689620000000 1.0
C      1  0.5401700000000  0.4370990000000  0.4281390000000 1.0
C      1  0.4541160000000  0.5829280000000  0.5413920000000 1.0
C      1  0.5052790000000  0.4551470000000  0.4286070000000 1.0
C      1  0.4399320000000  0.4946630000000  0.5004710000000 1.0
C      1  0.5017930000000  0.4266190000000  0.4998790000000 1.0
C      1  0.5137700000000  0.5240660000000  0.4880110000000 1.0
C      1  0.5451820000000  0.4584330000000  0.5158970000000 1.0
C      1  0.5180680000000  0.5363390000000  0.4565610000000 1.0
C      1  0.4739440000000  0.4180120000000  0.5641240000000 1.0
C      1  0.4044680000000  0.5565050000000  0.5334060000000 1.0
C      1  0.4664510000000  0.5404350000000  0.5039100000000 1.0
C      1  0.5651190000000  0.5176970000000  0.5146010000000 1.0
C      1  0.5835310000000  0.4897850000000  0.5079530000000 1.0
C      1  0.4860400000000  0.4525710000000  0.6006980000000 1.0
C      1  0.4979640000000  0.5075210000000  0.3996230000000 1.0
C      1  0.5948880000000  0.5021040000000  0.4542870000000 1.0
C      1  0.5250070000000  0.5060880000000  0.4416450000000 1.0
C      1  0.4526510000000  0.4358390000000  0.4260640000000 1.0
C      1  0.4666890000000  0.5455210000000  0.5879040000000 1.0
C      1  0.5947960000000  0.4736020000000  0.5540700000000 1.0
C      1  0.4692150000000  0.5915810000000  0.4399250000000 1.0
C      1  0.5218140000000  0.5821940000000  0.4548120000000 1.0
C      1  0.3999050000000  0.4883670000000  0.4246860000000 1.0
C      1  0.6021600000000  0.5320900000000  0.5113380000000 1.0
C      1  0.5322810000000  0.5353000000000  0.4263620000000 1.0
C      1  0.4379910000000  0.4590580000000  0.5268370000000 1.0
C      1  0.5029350000000  0.4743450000000  0.5188150000000 1.0
C      1  0.4587860000000  0.4997960000000  0.3988300000000 1.0
END
