TITL C-2778424-3986-123 0.0131657161282018 125000 -1012.8585474397 0 0 170 (C1) n - 1
REM
REM in /home/nfs/bkarasulu/CARBON/AIRSS/Generating-Clusters/REBO/Only-C1/SD-CG/HFTN-CG
REM
REM
REM
REM
REM
REM ./C.cell (11c1c37f851c82e70ff6c80c92926a4b)
REM
REM compiler GCC version 9.2.1 20190827 (Red Hat 9.2.1-1)
REM options -cpp -mtune=generic -march=x86-64 -g -O0 -fpre-include=/usr/include/finclude/math-vector-fortran.h
REM seed 2025248942 1062982926 -2104092704 -1775261943 -2074947048 60699075 403989764 -444518139 638606308 186054009 -613863820 -1681807627 -469375325 -705462842 -387942005 -294101297 -505911584 189177177 1056111462 -116336779 -1509239048 325773596 1185257570 -1500516916 -1810070614 845327163 393493449 6476640 -1499635247 1551101216 1721233692 546607075 -962055821
REM
CELL 1.54180   50.00000   50.00000   50.00000   90.00000   90.00000   90.00000
LATT -1
SFAC C  
C      1  0.4286380000000  0.4690480000000  0.4366860000000 1.0
C      1  0.4837950000000  0.4471420000000  0.4776880000000 1.0
C      1  0.5034790000000  0.4069680000000  0.4484480000000 1.0
C      1  0.5404960000000  0.5308860000000  0.5250890000000 1.0
C      1  0.4931560000000  0.4949960000000  0.5604620000000 1.0
C      1  0.5439660000000  0.4014860000000  0.4791760000000 1.0
C      1  0.4388460000000  0.4593000000000  0.4891720000000 1.0
C      1  0.5259350000000  0.5324920000000  0.4981730000000 1.0
C      1  0.4827510000000  0.5135810000000  0.4253220000000 1.0
C      1  0.4857960000000  0.3893600000000  0.4968190000000 1.0
C      1  0.5572790000000  0.5248820000000  0.4246220000000 1.0
C      1  0.5713990000000  0.5431580000000  0.4964940000000 1.0
C      1  0.4025490000000  0.4913910000000  0.5424140000000 1.0
C      1  0.5605920000000  0.5638470000000  0.4553300000000 1.0
C      1  0.5298930000000  0.5213090000000  0.5991880000000 1.0
C      1  0.4249160000000  0.5103990000000  0.5597560000000 1.0
C      1  0.5320100000000  0.5479350000000  0.5891360000000 1.0
C      1  0.4454090000000  0.5509170000000  0.4528330000000 1.0
C      1  0.5427960000000  0.4742940000000  0.4348180000000 1.0
C      1  0.5156740000000  0.5515710000000  0.4156130000000 1.0
C      1  0.4976090000000  0.5664610000000  0.4698440000000 1.0
C      1  0.5127800000000  0.4604940000000  0.5292440000000 1.0
C      1  0.4629350000000  0.4589140000000  0.5094760000000 1.0
C      1  0.5197580000000  0.4572900000000  0.4636810000000 1.0
C      1  0.3912340000000  0.4931170000000  0.5124510000000 1.0
C      1  0.4593000000000  0.5226770000000  0.5412270000000 1.0
C      1  0.5538390000000  0.5482890000000  0.5672920000000 1.0
C      1  0.4364150000000  0.5800040000000  0.5247400000000 1.0
C      1  0.4387960000000  0.5022850000000  0.5297060000000 1.0
C      1  0.5371790000000  0.5465600000000  0.4415070000000 1.0
C      1  0.5923880000000  0.5222080000000  0.4696980000000 1.0
C      1  0.5780760000000  0.4952360000000  0.5261330000000 1.0
C      1  0.5176490000000  0.5693870000000  0.5400100000000 1.0
C      1  0.3953880000000  0.5232640000000  0.5520930000000 1.0
C      1  0.5765660000000  0.4276300000000  0.5112520000000 1.0
C      1  0.4736480000000  0.4775730000000  0.4832240000000 1.0
C      1  0.4735490000000  0.5939530000000  0.4861170000000 1.0
C      1  0.5332680000000  0.6049160000000  0.4848780000000 1.0
C      1  0.4876030000000  0.4482210000000  0.5822760000000 1.0
C      1  0.4856170000000  0.5176250000000  0.4558360000000 1.0
C      1  0.4511670000000  0.4731590000000  0.5335480000000 1.0
C      1  0.4748880000000  0.5479800000000  0.5046210000000 1.0
C      1  0.5959900000000  0.4766570000000  0.4885910000000 1.0
C      1  0.5589220000000  0.4454150000000  0.5667230000000 1.0
C      1  0.4670550000000  0.5758380000000  0.5207760000000 1.0
C      1  0.5120160000000  0.4442960000000  0.4073910000000 1.0
C      1  0.5992950000000  0.5406170000000  0.5045070000000 1.0
C      1  0.5025950000000  0.5155340000000  0.6044700000000 1.0
C      1  0.4903460000000  0.4473850000000  0.5499830000000 1.0
C      1  0.4285570000000  0.5681640000000  0.5490570000000 1.0
C      1  0.4589110000000  0.5252680000000  0.5746330000000 1.0
C      1  0.5266100000000  0.5533390000000  0.4732990000000 1.0
C      1  0.4543290000000  0.4171170000000  0.5311510000000 1.0
C      1  0.5975110000000  0.4945510000000  0.4228850000000 1.0
C      1  0.5636490000000  0.4519720000000  0.4281330000000 1.0
C      1  0.5813860000000  0.5458880000000  0.5475350000000 1.0
C      1  0.5632670000000  0.5165670000000  0.4833410000000 1.0
C      1  0.4274400000000  0.5558890000000  0.4796230000000 1.0
C      1  0.5837470000000  0.5362270000000  0.5784170000000 1.0
C      1  0.5281290000000  0.4307810000000  0.5697300000000 1.0
C      1  0.4792490000000  0.4539410000000  0.4281840000000 1.0
C      1  0.4493760000000  0.4567640000000  0.4164450000000 1.0
C      1  0.5308250000000  0.5731910000000  0.5108400000000 1.0
C      1  0.5309810000000  0.4092460000000  0.5230940000000 1.0
C      1  0.4487180000000  0.4697280000000  0.5749370000000 1.0
C      1  0.4725100000000  0.4735910000000  0.5553760000000 1.0
C      1  0.5463430000000  0.5816570000000  0.4750780000000 1.0
C      1  0.5124080000000  0.4824890000000  0.4802990000000 1.0
C      1  0.5672760000000  0.4904180000000  0.4980800000000 1.0
C      1  0.4206360000000  0.5786650000000  0.5021390000000 1.0
C      1  0.5476880000000  0.5498940000000  0.4033180000000 1.0
C      1  0.5267390000000  0.5238710000000  0.3992300000000 1.0
C      1  0.4649160000000  0.4968770000000  0.4653350000000 1.0
C      1  0.4996830000000  0.4234960000000  0.4123150000000 1.0
C      1  0.5652910000000  0.5954180000000  0.5448040000000 1.0
C      1  0.5202200000000  0.6049880000000  0.5164190000000 1.0
C      1  0.3968050000000  0.4696750000000  0.4679830000000 1.0
C      1  0.4481970000000  0.4258740000000  0.4226010000000 1.0
C      1  0.4797550000000  0.4644180000000  0.6030900000000 1.0
C      1  0.5694860000000  0.4322500000000  0.4784920000000 1.0
C      1  0.6047060000000  0.5079010000000  0.4983400000000 1.0
C      1  0.4975130000000  0.5943870000000  0.4541730000000 1.0
C      1  0.3868130000000  0.5370040000000  0.5297060000000 1.0
C      1  0.5589620000000  0.5646550000000  0.5086930000000 1.0
C      1  0.4253520000000  0.4214750000000  0.4385150000000 1.0
C      1  0.5961330000000  0.4462240000000  0.4914740000000 1.0
C      1  0.5369400000000  0.4104710000000  0.4503550000000 1.0
C      1  0.4064260000000  0.5182230000000  0.4573520000000 1.0
C      1  0.3922910000000  0.4694840000000  0.4961090000000 1.0
C      1  0.4119020000000  0.5302870000000  0.4847590000000 1.0
C      1  0.4440370000000  0.4134720000000  0.5035330000000 1.0
C      1  0.4323430000000  0.5254150000000  0.4362030000000 1.0
C      1  0.5497760000000  0.4700180000000  0.5967790000000 1.0
C      1  0.5419150000000  0.4725950000000  0.4929290000000 1.0
C      1  0.5837430000000  0.5038030000000  0.5824810000000 1.0
C      1  0.5777040000000  0.5790420000000  0.5256200000000 1.0
C      1  0.4992640000000  0.5847680000000  0.5717740000000 1.0
C      1  0.4749010000000  0.4143620000000  0.4313240000000 1.0
C      1  0.5762020000000  0.4731510000000  0.5763650000000 1.0
C      1  0.4419130000000  0.4953780000000  0.4494500000000 1.0
C      1  0.5259410000000  0.4591070000000  0.5846180000000 1.0
C      1  0.4931170000000  0.4430370000000  0.5091400000000 1.0
C      1  0.4767480000000  0.5463360000000  0.4612310000000 1.0
C      1  0.5087810000000  0.6073900000000  0.5478210000000 1.0
C      1  0.4507630000000  0.5026940000000  0.3932860000000 1.0
C      1  0.4901760000000  0.4889480000000  0.4126540000000 1.0
C      1  0.6058190000000  0.5169320000000  0.5600320000000 1.0
C      1  0.3902740000000  0.5213310000000  0.5058640000000 1.0
C      1  0.4572900000000  0.5222220000000  0.4140850000000 1.0
C      1  0.4851480000000  0.5368760000000  0.5873770000000 1.0
C      1  0.4882050000000  0.4937500000000  0.6134940000000 1.0
C      1  0.5112810000000  0.5084310000000  0.4687130000000 1.0
C      1  0.5064530000000  0.5612000000000  0.5858130000000 1.0
C      1  0.4669360000000  0.6178640000000  0.4778020000000 1.0
C      1  0.4008760000000  0.4442040000000  0.5073300000000 1.0
C      1  0.5167200000000  0.4807450000000  0.5681080000000 1.0
C      1  0.5138950000000  0.6141710000000  0.4658780000000 1.0
C      1  0.5393750000000  0.4986680000000  0.4137250000000 1.0
C      1  0.5801410000000  0.4795460000000  0.4618240000000 1.0
C      1  0.5498720000000  0.4853020000000  0.4624540000000 1.0
C      1  0.4073870000000  0.4445460000000  0.5344980000000 1.0
C      1  0.4416070000000  0.5467570000000  0.5574990000000 1.0
C      1  0.4171610000000  0.4455150000000  0.4585460000000 1.0
C      1  0.3963500000000  0.4919400000000  0.4508450000000 1.0
C      1  0.4994410000000  0.5238000000000  0.5608200000000 1.0
C      1  0.5119480000000  0.3975730000000  0.4784580000000 1.0
C      1  0.4822480000000  0.4179060000000  0.5402060000000 1.0
C      1  0.5668090000000  0.5238850000000  0.5316720000000 1.0
C      1  0.4419900000000  0.5000890000000  0.5849080000000 1.0
C      1  0.5862430000000  0.5208530000000  0.4360690000000 1.0
C      1  0.5366980000000  0.4457970000000  0.5402910000000 1.0
C      1  0.5541280000000  0.4262340000000  0.4345960000000 1.0
C      1  0.6051450000000  0.5125620000000  0.5322420000000 1.0
C      1  0.4131190000000  0.5111190000000  0.4117690000000 1.0
C      1  0.5060170000000  0.5136680000000  0.5152250000000 1.0
C      1  0.6014470000000  0.5593010000000  0.5273020000000 1.0
C      1  0.4611770000000  0.5673640000000  0.4310530000000 1.0
C      1  0.4369350000000  0.4453380000000  0.5723680000000 1.0
C      1  0.4271900000000  0.5067440000000  0.5014530000000 1.0
C      1  0.4569930000000  0.4868030000000  0.6094030000000 1.0
C      1  0.5872400000000  0.4702230000000  0.4351390000000 1.0
C      1  0.5462230000000  0.4458150000000  0.4729960000000 1.0
C      1  0.5164190000000  0.4740460000000  0.4147260000000 1.0
C      1  0.4562080000000  0.5681430000000  0.4875080000000 1.0
C      1  0.4294060000000  0.4842320000000  0.4859070000000 1.0
C      1  0.4965490000000  0.4485100000000  0.4473450000000 1.0
C      1  0.4206680000000  0.4668010000000  0.5428600000000 1.0
C      1  0.5127540000000  0.4145260000000  0.5462720000000 1.0
C      1  0.4045190000000  0.4864520000000  0.4224110000000 1.0
C      1  0.5188190000000  0.4913380000000  0.5297000000000 1.0
C      1  0.5016330000000  0.5839960000000  0.4970310000000 1.0
C      1  0.4231270000000  0.4320110000000  0.4892310000000 1.0
C      1  0.5528920000000  0.4074950000000  0.5051550000000 1.0
C      1  0.5389750000000  0.5159150000000  0.4642260000000 1.0
C      1  0.5689770000000  0.4431110000000  0.5342770000000 1.0
C      1  0.4828140000000  0.5910480000000  0.4305880000000 1.0
C      1  0.4757790000000  0.4190060000000  0.4644020000000 1.0
C      1  0.5391380000000  0.4974960000000  0.5538940000000 1.0
C      1  0.4375600000000  0.4259850000000  0.5528180000000 1.0
C      1  0.5500840000000  0.5016800000000  0.5858130000000 1.0
C      1  0.4659070000000  0.4783310000000  0.3994720000000 1.0
C      1  0.5787680000000  0.4713240000000  0.5442070000000 1.0
C      1  0.5857440000000  0.5503640000000  0.4531990000000 1.0
C      1  0.4895210000000  0.5635650000000  0.4157380000000 1.0
C      1  0.5044220000000  0.4142630000000  0.5071960000000 1.0
C      1  0.4812170000000  0.5263300000000  0.5210160000000 1.0
C      1  0.4618350000000  0.4011490000000  0.4855020000000 1.0
C      1  0.4863730000000  0.5827240000000  0.5403170000000 1.0
C      1  0.5391650000000  0.5939030000000  0.5498260000000 1.0
C      1  0.5247040000000  0.5413990000000  0.5504270000000 1.0
END
