TITL C-2778429-3646-404 -0.000628442890140257 125000 -885.562430656053 0 0 148 (C1) n - 1
REM
REM in /home/nfs/bkarasulu/CARBON/AIRSS/Generating-Clusters/REBO/Only-C1/SD-CG/HFTN-CG
REM
REM
REM
REM
REM
REM ./C.cell (11c1c37f851c82e70ff6c80c92926a4b)
REM
REM compiler GCC version 9.2.1 20190827 (Red Hat 9.2.1-1)
REM options -cpp -mtune=generic -march=x86-64 -g -O0 -fpre-include=/usr/include/finclude/math-vector-fortran.h
REM seed 30995747 1300432693 -784030174 -2017674209 2012825558 1283033895 906377832 -532638597 412501003 37158001 -745721888 -173124787 -822869214 1833465792 876452175 1362248851 281810626 -1053066468 -910166540 -546445868 1416245014 -558080100 -1194289522 1457722345 425545417 1073872982 -647675787 -1538252651 -2012323568 -1771855017 140875650 1393925163 -288794710
REM
CELL 1.54180   50.00000   50.00000   50.00000   90.00000   90.00000   90.00000
LATT -1
SFAC C  
C      1  0.4784960000000  0.5354150000000  0.5470300000000 1.0
C      1  0.4836430000000  0.5924150000000  0.4588830000000 1.0
C      1  0.5530970000000  0.5715700000000  0.5392140000000 1.0
C      1  0.4760110000000  0.4923880000000  0.6014350000000 1.0
C      1  0.4564860000000  0.5483760000000  0.4804590000000 1.0
C      1  0.5065670000000  0.6031650000000  0.4712880000000 1.0
C      1  0.5669520000000  0.4736380000000  0.5834330000000 1.0
C      1  0.5035130000000  0.5642160000000  0.4390070000000 1.0
C      1  0.4228130000000  0.5292200000000  0.5190510000000 1.0
C      1  0.4071550000000  0.4441180000000  0.5110900000000 1.0
C      1  0.4354920000000  0.5732870000000  0.4537480000000 1.0
C      1  0.5905860000000  0.4597650000000  0.5123770000000 1.0
C      1  0.5293760000000  0.5490100000000  0.5624320000000 1.0
C      1  0.4341500000000  0.5810010000000  0.4859990000000 1.0
C      1  0.4952410000000  0.4899050000000  0.4436730000000 1.0
C      1  0.4209720000000  0.5483930000000  0.4480950000000 1.0
C      1  0.5147410000000  0.5995580000000  0.5044730000000 1.0
C      1  0.5866150000000  0.4839160000000  0.5362620000000 1.0
C      1  0.5239950000000  0.4066210000000  0.5210250000000 1.0
C      1  0.5740840000000  0.5694190000000  0.4761220000000 1.0
C      1  0.5928420000000  0.5074510000000  0.4621500000000 1.0
C      1  0.5061870000000  0.5425310000000  0.5394820000000 1.0
C      1  0.4262790000000  0.5491160000000  0.4937520000000 1.0
C      1  0.4286030000000  0.4654130000000  0.5563850000000 1.0
C      1  0.5118240000000  0.5608200000000  0.5122670000000 1.0
C      1  0.4705110000000  0.5291650000000  0.5731560000000 1.0
C      1  0.5191780000000  0.4578290000000  0.4706050000000 1.0
C      1  0.4571980000000  0.5747580000000  0.5104540000000 1.0
C      1  0.4666610000000  0.5784640000000  0.4787090000000 1.0
C      1  0.5483290000000  0.4180300000000  0.4629960000000 1.0
C      1  0.4975960000000  0.4550280000000  0.5165240000000 1.0
C      1  0.4900040000000  0.5414450000000  0.4404010000000 1.0
C      1  0.4920690000000  0.4386450000000  0.4929040000000 1.0
C      1  0.4469140000000  0.5527060000000  0.5278140000000 1.0
C      1  0.4920020000000  0.4316430000000  0.4390330000000 1.0
C      1  0.5296440000000  0.4735450000000  0.4946340000000 1.0
C      1  0.4146710000000  0.4549100000000  0.4829170000000 1.0
C      1  0.5251280000000  0.5010820000000  0.5901970000000 1.0
C      1  0.4848620000000  0.4834780000000  0.5158480000000 1.0
C      1  0.4640450000000  0.5595620000000  0.4161040000000 1.0
C      1  0.5427260000000  0.5972540000000  0.4855310000000 1.0
C      1  0.5383790000000  0.5232140000000  0.4114530000000 1.0
C      1  0.4991670000000  0.5108670000000  0.6032300000000 1.0
C      1  0.5384270000000  0.4481200000000  0.4081720000000 1.0
C      1  0.4062010000000  0.5383890000000  0.4713470000000 1.0
C      1  0.5859990000000  0.4804570000000  0.4486940000000 1.0
C      1  0.5148420000000  0.4393920000000  0.4168220000000 1.0
C      1  0.5179200000000  0.5733880000000  0.5762760000000 1.0
C      1  0.4786440000000  0.4717530000000  0.5802720000000 1.0
C      1  0.4638160000000  0.4193030000000  0.4496800000000 1.0
C      1  0.5653660000000  0.4108380000000  0.4893040000000 1.0
C      1  0.4980400000000  0.4320090000000  0.5669170000000 1.0
C      1  0.4623580000000  0.5250140000000  0.5217330000000 1.0
C      1  0.5568750000000  0.4705730000000  0.4737650000000 1.0
C      1  0.4691930000000  0.4445460000000  0.5770470000000 1.0
C      1  0.4872430000000  0.4838030000000  0.5557440000000 1.0
C      1  0.4358660000000  0.4907950000000  0.4967260000000 1.0
C      1  0.4451530000000  0.4408190000000  0.4817560000000 1.0
C      1  0.4612100000000  0.5018920000000  0.4057440000000 1.0
C      1  0.5188440000000  0.5144410000000  0.4450340000000 1.0
C      1  0.4391110000000  0.5285420000000  0.4383630000000 1.0
C      1  0.4933500000000  0.4101840000000  0.4652700000000 1.0
C      1  0.4898760000000  0.4889140000000  0.3942210000000 1.0
C      1  0.5631950000000  0.5145810000000  0.4253360000000 1.0
C      1  0.5370090000000  0.5424300000000  0.4383950000000 1.0
C      1  0.4708860000000  0.4495200000000  0.4749030000000 1.0
C      1  0.4087810000000  0.4642650000000  0.5330750000000 1.0
C      1  0.5669110000000  0.4859820000000  0.4262230000000 1.0
C      1  0.4595150000000  0.4620130000000  0.5248330000000 1.0
C      1  0.4544140000000  0.4742510000000  0.4481490000000 1.0
C      1  0.4481920000000  0.5603090000000  0.5581970000000 1.0
C      1  0.4277560000000  0.5414290000000  0.5669770000000 1.0
C      1  0.5434870000000  0.4453630000000  0.4578280000000 1.0
C      1  0.5496970000000  0.4208000000000  0.5337280000000 1.0
C      1  0.5626180000000  0.5568190000000  0.4555710000000 1.0
C      1  0.5127300000000  0.4795440000000  0.5442110000000 1.0
C      1  0.5513370000000  0.4543240000000  0.5119710000000 1.0
C      1  0.5506670000000  0.5243910000000  0.4757020000000 1.0
C      1  0.4607910000000  0.5775360000000  0.4392400000000 1.0
C      1  0.5313510000000  0.5409900000000  0.4916970000000 1.0
C      1  0.4534690000000  0.3987870000000  0.4717970000000 1.0
C      1  0.5317380000000  0.5909100000000  0.5330000000000 1.0
C      1  0.5601330000000  0.4847930000000  0.5175530000000 1.0
C      1  0.4918450000000  0.5658880000000  0.5871840000000 1.0
C      1  0.5471780000000  0.4363760000000  0.5571120000000 1.0
C      1  0.5741140000000  0.5623120000000  0.5051570000000 1.0
C      1  0.4213830000000  0.4208400000000  0.5182530000000 1.0
C      1  0.5274080000000  0.4935260000000  0.5195820000000 1.0
C      1  0.5445960000000  0.4687950000000  0.5506250000000 1.0
C      1  0.4167680000000  0.4848970000000  0.4404660000000 1.0
C      1  0.4459480000000  0.4125230000000  0.4993100000000 1.0
C      1  0.4066950000000  0.4855330000000  0.4704710000000 1.0
C      1  0.4121010000000  0.5119550000000  0.4913310000000 1.0
C      1  0.5774700000000  0.5520310000000  0.5528620000000 1.0
C      1  0.4990950000000  0.5197340000000  0.4175610000000 1.0
C      1  0.5139710000000  0.5936220000000  0.5557290000000 1.0
C      1  0.4922890000000  0.4620920000000  0.4236460000000 1.0
C      1  0.4567400000000  0.5051470000000  0.5809040000000 1.0
C      1  0.4451840000000  0.4221630000000  0.5379460000000 1.0
C      1  0.4895140000000  0.5377450000000  0.5944480000000 1.0
C      1  0.5208030000000  0.4971360000000  0.4039600000000 1.0
C      1  0.4705090000000  0.4079640000000  0.5202080000000 1.0
C      1  0.5427080000000  0.5699680000000  0.5008230000000 1.0
C      1  0.5846860000000  0.5455050000000  0.5244450000000 1.0
C      1  0.5889730000000  0.5130930000000  0.5190910000000 1.0
C      1  0.4520570000000  0.4847980000000  0.4751140000000 1.0
C      1  0.5433840000000  0.5267100000000  0.5783570000000 1.0
C      1  0.5763250000000  0.5236390000000  0.5717410000000 1.0
C      1  0.4711740000000  0.5750620000000  0.5668610000000 1.0
C      1  0.5254640000000  0.4457420000000  0.5769010000000 1.0
C      1  0.5334350000000  0.5974590000000  0.4566020000000 1.0
C      1  0.4226690000000  0.5200100000000  0.5496050000000 1.0
C      1  0.5308790000000  0.5750650000000  0.4399710000000 1.0
C      1  0.4350080000000  0.4727100000000  0.5176840000000 1.0
C      1  0.5586720000000  0.5004720000000  0.4899440000000 1.0
C      1  0.5154630000000  0.5054930000000  0.4743870000000 1.0
C      1  0.4644600000000  0.4748990000000  0.4233410000000 1.0
C      1  0.4460430000000  0.4418680000000  0.5593820000000 1.0
C      1  0.4873480000000  0.5839140000000  0.5174560000000 1.0
C      1  0.5885950000000  0.4735520000000  0.4825780000000 1.0
C      1  0.5451630000000  0.5390070000000  0.5336970000000 1.0
C      1  0.4348110000000  0.5024900000000  0.4265340000000 1.0
C      1  0.4649740000000  0.5316990000000  0.4546700000000 1.0
C      1  0.4651230000000  0.4985900000000  0.5392750000000 1.0
C      1  0.5250190000000  0.4523880000000  0.5281630000000 1.0
C      1  0.5438380000000  0.4975230000000  0.5613330000000 1.0
C      1  0.4751700000000  0.5039350000000  0.4649770000000 1.0
C      1  0.4974990000000  0.4082430000000  0.4993190000000 1.0
C      1  0.5638420000000  0.5162680000000  0.5417330000000 1.0
C      1  0.4701990000000  0.5342660000000  0.4067660000000 1.0
C      1  0.4966830000000  0.5034050000000  0.4963440000000 1.0
C      1  0.5380900000000  0.3963380000000  0.4945670000000 1.0
C      1  0.5226590000000  0.3999170000000  0.4686000000000 1.0
C      1  0.5377170000000  0.4701370000000  0.5897660000000 1.0
C      1  0.4805200000000  0.4414290000000  0.5391580000000 1.0
C      1  0.5715030000000  0.5267540000000  0.4509210000000 1.0
C      1  0.4723540000000  0.5240340000000  0.4931630000000 1.0
C      1  0.4199540000000  0.4544340000000  0.4498760000000 1.0
C      1  0.5723160000000  0.4310280000000  0.5117390000000 1.0
C      1  0.4862000000000  0.5913140000000  0.5475030000000 1.0
C      1  0.5982130000000  0.5048790000000  0.4916640000000 1.0
C      1  0.5221450000000  0.5227160000000  0.5171530000000 1.0
C      1  0.4931900000000  0.4651620000000  0.4631780000000 1.0
C      1  0.4980770000000  0.4122550000000  0.5390320000000 1.0
C      1  0.4390210000000  0.4942330000000  0.5574170000000 1.0
C      1  0.5449520000000  0.4752250000000  0.4108130000000 1.0
C      1  0.4394200000000  0.4370370000000  0.4416920000000 1.0
C      1  0.5825700000000  0.4904980000000  0.5669970000000 1.0
END
