TITL C-2778436-5916-1434 -2.97555927123514e-05 125000 -305.600687133821 0 0 54 (C1) n - 1
REM
REM in /home/nfs/bkarasulu/CARBON/AIRSS/Generating-Clusters/REBO/Only-C1/SD-CG/HFTN-CG
REM
REM
REM
REM
REM
REM ./C.cell (11c1c37f851c82e70ff6c80c92926a4b)
REM
REM compiler GCC version 9.2.1 20190827 (Red Hat 9.2.1-1)
REM options -cpp -mtune=generic -march=x86-64 -g -O0 -fpre-include=/usr/include/finclude/math-vector-fortran.h
REM seed 1229991134 -757036713 2125010724 1923614596 -1808060290 -313798477 -1324303775 113023609 1483432023 686549467 -60841835 -1479239266 -338941371 1569270647 -242014190 -517423760 -539318320 -609305691 -1988516129 2081407214 1685358491 480433324 -1861785046 -550649018 1959825475 -446176576 -2053383037 730850456 730641625 430781457 1492980399 -918491807 875051364
REM
CELL 1.54180   50.00000   50.00000   50.00000   90.00000   90.00000   90.00000
LATT -1
SFAC C  
C      1  0.4763980000000  0.5663200000000  0.5010320000000 1.0
C      1  0.4420710000000  0.4571810000000  0.4622180000000 1.0
C      1  0.5557590000000  0.5059510000000  0.4482790000000 1.0
C      1  0.4882150000000  0.5083400000000  0.4365260000000 1.0
C      1  0.5213510000000  0.5417110000000  0.4551790000000 1.0
C      1  0.4760180000000  0.4471930000000  0.5252070000000 1.0
C      1  0.5062890000000  0.5073670000000  0.5129720000000 1.0
C      1  0.4548470000000  0.5168350000000  0.5026960000000 1.0
C      1  0.5264910000000  0.4868630000000  0.5615530000000 1.0
C      1  0.5088570000000  0.5662440000000  0.4635050000000 1.0
C      1  0.3844490000000  0.5119730000000  0.4802920000000 1.0
C      1  0.4754900000000  0.5251940000000  0.4789880000000 1.0
C      1  0.5152520000000  0.4837910000000  0.5330290000000 1.0
C      1  0.4969440000000  0.4857840000000  0.4896760000000 1.0
C      1  0.5470550000000  0.5658950000000  0.5692390000000 1.0
C      1  0.5248910000000  0.5656450000000  0.5099860000000 1.0
C      1  0.4890280000000  0.4767000000000  0.4394840000000 1.0
C      1  0.4620130000000  0.4339000000000  0.4498330000000 1.0
C      1  0.4921780000000  0.4282460000000  0.5374500000000 1.0
C      1  0.5165830000000  0.5511520000000  0.5340260000000 1.0
C      1  0.4417740000000  0.5227830000000  0.4435780000000 1.0
C      1  0.4832250000000  0.4045900000000  0.5473780000000 1.0
C      1  0.5471330000000  0.5527950000000  0.4965500000000 1.0
C      1  0.4597160000000  0.4639980000000  0.4358350000000 1.0
C      1  0.5324770000000  0.4965240000000  0.4557580000000 1.0
C      1  0.5204260000000  0.4354260000000  0.5386490000000 1.0
C      1  0.5117050000000  0.5240070000000  0.4354470000000 1.0
C      1  0.5307160000000  0.4294390000000  0.4837480000000 1.0
C      1  0.5078170000000  0.4865380000000  0.4636660000000 1.0
C      1  0.4914430000000  0.4442410000000  0.4489900000000 1.0
C      1  0.5360020000000  0.5290420000000  0.4804900000000 1.0
C      1  0.4621240000000  0.5183880000000  0.5539110000000 1.0
C      1  0.4727470000000  0.4675740000000  0.4989900000000 1.0
C      1  0.4466660000000  0.4725210000000  0.4854210000000 1.0
C      1  0.4090470000000  0.5047900000000  0.4857850000000 1.0
C      1  0.5321620000000  0.5453640000000  0.5574810000000 1.0
C      1  0.4826500000000  0.4796110000000  0.5288210000000 1.0
C      1  0.5608110000000  0.4266150000000  0.4956210000000 1.0
C      1  0.5282010000000  0.4550370000000  0.5575480000000 1.0
C      1  0.4958750000000  0.5325340000000  0.5274190000000 1.0
C      1  0.5029450000000  0.5720820000000  0.4912420000000 1.0
C      1  0.4673410000000  0.5203080000000  0.4523500000000 1.0
C      1  0.4665010000000  0.5057050000000  0.5312030000000 1.0
C      1  0.4349760000000  0.4972180000000  0.4915750000000 1.0
C      1  0.5455890000000  0.5016580000000  0.4931380000000 1.0
C      1  0.5610160000000  0.5851410000000  0.5802610000000 1.0
C      1  0.5028840000000  0.5250850000000  0.4863430000000 1.0
C      1  0.4722390000000  0.5419040000000  0.5151280000000 1.0
C      1  0.5738250000000  0.5590590000000  0.4983760000000 1.0
C      1  0.5125930000000  0.4343820000000  0.4639860000000 1.0
C      1  0.5398190000000  0.4991220000000  0.5902820000000 1.0
C      1  0.5325050000000  0.5198140000000  0.5676900000000 1.0
C      1  0.5389740000000  0.4846930000000  0.5100600000000 1.0
C      1  0.5358960000000  0.4297240000000  0.5161080000000 1.0
END
