TITL C-2778426-5645-1256 -0.00224711702878114 125000 -285.735887531958 0 0 49 (C1) n - 1
REM
REM in /home/nfs/bkarasulu/CARBON/AIRSS/Generating-Clusters/REBO/Only-C1/SD-CG/HFTN-CG
REM
REM
REM
REM
REM
REM ./C.cell (11c1c37f851c82e70ff6c80c92926a4b)
REM
REM compiler GCC version 9.2.1 20190827 (Red Hat 9.2.1-1)
REM options -cpp -mtune=generic -march=x86-64 -g -O0 -fpre-include=/usr/include/finclude/math-vector-fortran.h
REM seed 502658692 2106792090 -982563278 892180091 1371069324 12081019 -542866928 -650783134 -2126433682 831765836 -1377480437 1333766749 -261105981 2018093698 -347637960 523039941 1879335711 1589364439 86774745 1102771579 -306340044 -793195722 -1589234266 1016094810 1882811568 -1630876725 994274526 1165625750 -1642962488 281765137 -442399132 -2014126905 458019597
REM
CELL 1.54180   50.00000   50.00000   50.00000   90.00000   90.00000   90.00000
LATT -1
SFAC C  
C      1  0.5103360000000  0.5303530000000  0.4636860000000 1.0
C      1  0.5488230000000  0.5003250000000  0.5422330000000 1.0
C      1  0.5685550000000  0.5442210000000  0.5719050000000 1.0
C      1  0.5314160000000  0.4881890000000  0.5613760000000 1.0
C      1  0.4511110000000  0.5865900000000  0.4317860000000 1.0
C      1  0.4209620000000  0.4633080000000  0.4587900000000 1.0
C      1  0.5041510000000  0.4646300000000  0.4498020000000 1.0
C      1  0.5551910000000  0.4536140000000  0.5243550000000 1.0
C      1  0.4662050000000  0.5004730000000  0.4487800000000 1.0
C      1  0.5549210000000  0.5494740000000  0.5488790000000 1.0
C      1  0.5204920000000  0.5469650000000  0.4854100000000 1.0
C      1  0.5161160000000  0.4912110000000  0.4352660000000 1.0
C      1  0.4529590000000  0.5667500000000  0.4488090000000 1.0
C      1  0.5167860000000  0.4645460000000  0.5553550000000 1.0
C      1  0.4879430000000  0.4619510000000  0.5500470000000 1.0
C      1  0.5122770000000  0.5098860000000  0.4979630000000 1.0
C      1  0.5447070000000  0.5278760000000  0.5335770000000 1.0
C      1  0.4307830000000  0.5294520000000  0.5111790000000 1.0
C      1  0.5258880000000  0.4871420000000  0.4895690000000 1.0
C      1  0.5580410000000  0.4408610000000  0.4987730000000 1.0
C      1  0.5283680000000  0.5109650000000  0.4521670000000 1.0
C      1  0.4379280000000  0.5415210000000  0.4888080000000 1.0
C      1  0.4844200000000  0.4408240000000  0.5299840000000 1.0
C      1  0.4849660000000  0.4854640000000  0.4343740000000 1.0
C      1  0.4650120000000  0.4599220000000  0.4982540000000 1.0
C      1  0.4950730000000  0.4468410000000  0.4977680000000 1.0
C      1  0.5454590000000  0.4526340000000  0.4762220000000 1.0
C      1  0.4568230000000  0.4764380000000  0.5187580000000 1.0
C      1  0.5210700000000  0.5741230000000  0.4846360000000 1.0
C      1  0.4549080000000  0.5458220000000  0.4667660000000 1.0
C      1  0.5126110000000  0.4302490000000  0.5219030000000 1.0
C      1  0.4484300000000  0.4596370000000  0.4758550000000 1.0
C      1  0.4438970000000  0.4861180000000  0.4570840000000 1.0
C      1  0.5598540000000  0.4822930000000  0.5224250000000 1.0
C      1  0.4673110000000  0.4811340000000  0.5464410000000 1.0
C      1  0.4393250000000  0.5006000000000  0.5243600000000 1.0
C      1  0.4284760000000  0.5255680000000  0.5451050000000 1.0
C      1  0.5562090000000  0.4909890000000  0.4949810000000 1.0
C      1  0.5508830000000  0.5750190000000  0.5402310000000 1.0
C      1  0.5141740000000  0.4596660000000  0.4778730000000 1.0
C      1  0.5597760000000  0.4715690000000  0.4602520000000 1.0
C      1  0.5315180000000  0.4452520000000  0.5383780000000 1.0
C      1  0.4545940000000  0.5068870000000  0.5571680000000 1.0
C      1  0.4737940000000  0.5328310000000  0.5143910000000 1.0
C      1  0.5305340000000  0.5315230000000  0.5095190000000 1.0
C      1  0.4862470000000  0.5193210000000  0.4935540000000 1.0
C      1  0.4607810000000  0.5330660000000  0.5373740000000 1.0
C      1  0.4767700000000  0.5247530000000  0.4638300000000 1.0
C      1  0.5531270000000  0.5011520000000  0.4639950000000 1.0
END
