TITL C-2778422-5617-79 -0.0062577754140901 125000 -1068.06961987993 0 0 184 (C1) n - 1
REM
REM in /home/nfs/bkarasulu/CARBON/AIRSS/Generating-Clusters/REBO/Only-C1/SD-CG/HFTN-CG
REM
REM
REM
REM
REM
REM ./C.cell (11c1c37f851c82e70ff6c80c92926a4b)
REM
REM compiler GCC version 9.2.1 20190827 (Red Hat 9.2.1-1)
REM options -cpp -mtune=generic -march=x86-64 -g -O0 -fpre-include=/usr/include/finclude/math-vector-fortran.h
REM seed -1566799964 -257406895 -1264022870 -1381389742 602932601 -1204928913 -1721466204 840055503 -317265408 -1707072309 -2081588932 -1664696065 -843662714 372732574 701828349 1130662826 313653188 -2117639073 -1565432970 920660141 1064437141 -1603156835 -1480595125 -92260506 -80581572 -670719622 438785561 -1474543109 1312814055 -1528567780 -548296058 -1734318454 -73203849
REM
CELL 1.54180   50.00000   50.00000   50.00000   90.00000   90.00000   90.00000
LATT -1
SFAC C  
C      1  0.4803500000000  0.4407120000000  0.5749470000000 1.0
C      1  0.5173040000000  0.4766040000000  0.5688080000000 1.0
C      1  0.5189840000000  0.4579680000000  0.4217960000000 1.0
C      1  0.5046330000000  0.5042990000000  0.5654080000000 1.0
C      1  0.4920330000000  0.4372110000000  0.4223380000000 1.0
C      1  0.4503700000000  0.4136110000000  0.5221240000000 1.0
C      1  0.4849220000000  0.4769240000000  0.5107670000000 1.0
C      1  0.4637920000000  0.5663610000000  0.5458790000000 1.0
C      1  0.4202140000000  0.4226490000000  0.4493270000000 1.0
C      1  0.5393720000000  0.5178670000000  0.4065500000000 1.0
C      1  0.5507430000000  0.4229820000000  0.4420910000000 1.0
C      1  0.5295840000000  0.5989730000000  0.5361230000000 1.0
C      1  0.5821140000000  0.5414890000000  0.4488960000000 1.0
C      1  0.4162260000000  0.5282710000000  0.4657590000000 1.0
C      1  0.5523950000000  0.4229050000000  0.5598710000000 1.0
C      1  0.4530210000000  0.5346500000000  0.5901480000000 1.0
C      1  0.5043180000000  0.5381100000000  0.4844850000000 1.0
C      1  0.4932970000000  0.4146800000000  0.5578740000000 1.0
C      1  0.5096490000000  0.4501150000000  0.5494570000000 1.0
C      1  0.4247800000000  0.5178970000000  0.5801060000000 1.0
C      1  0.4147830000000  0.4637420000000  0.4207980000000 1.0
C      1  0.6028350000000  0.5199110000000  0.5491980000000 1.0
C      1  0.5469730000000  0.4123540000000  0.5090610000000 1.0
C      1  0.6089800000000  0.4752840000000  0.5193720000000 1.0
C      1  0.4786020000000  0.5457510000000  0.4640530000000 1.0
C      1  0.5908150000000  0.5038240000000  0.4323080000000 1.0
C      1  0.4682460000000  0.4874440000000  0.4467410000000 1.0
C      1  0.5482150000000  0.4684650000000  0.4665390000000 1.0
C      1  0.4705400000000  0.4156870000000  0.4791190000000 1.0
C      1  0.6043360000000  0.5006810000000  0.4862700000000 1.0
C      1  0.5560360000000  0.5840500000000  0.4493150000000 1.0
C      1  0.5798820000000  0.4612210000000  0.4564140000000 1.0
C      1  0.5003040000000  0.5720310000000  0.4639640000000 1.0
C      1  0.4295130000000  0.4949040000000  0.4409460000000 1.0
C      1  0.3994780000000  0.5241830000000  0.5361050000000 1.0
C      1  0.4615660000000  0.5497880000000  0.4076690000000 1.0
C      1  0.4912540000000  0.5472310000000  0.4342710000000 1.0
C      1  0.4503650000000  0.5089480000000  0.6094390000000 1.0
C      1  0.4396860000000  0.4946020000000  0.5185730000000 1.0
C      1  0.4984130000000  0.4457640000000  0.5081120000000 1.0
C      1  0.6047350000000  0.5181190000000  0.4579420000000 1.0
C      1  0.4081610000000  0.4465300000000  0.4685290000000 1.0
C      1  0.4657680000000  0.5002550000000  0.3952220000000 1.0
C      1  0.5456100000000  0.6049220000000  0.5070880000000 1.0
C      1  0.4421800000000  0.4844080000000  0.5997990000000 1.0
C      1  0.5243100000000  0.5744550000000  0.5890950000000 1.0
C      1  0.4965850000000  0.4861710000000  0.3926970000000 1.0
C      1  0.5671510000000  0.4678420000000  0.5750370000000 1.0
C      1  0.4190520000000  0.4256900000000  0.5437100000000 1.0
C      1  0.5000360000000  0.5197680000000  0.3947310000000 1.0
C      1  0.4770130000000  0.6005030000000  0.5298590000000 1.0
C      1  0.4737160000000  0.5842640000000  0.4735630000000 1.0
C      1  0.4706710000000  0.4580220000000  0.4367490000000 1.0
C      1  0.4076730000000  0.4725950000000  0.4496820000000 1.0
C      1  0.4299620000000  0.5634150000000  0.4782760000000 1.0
C      1  0.5146470000000  0.4859750000000  0.4793960000000 1.0
C      1  0.4441880000000  0.5500020000000  0.5629000000000 1.0
C      1  0.5862830000000  0.5185230000000  0.5789470000000 1.0
C      1  0.5211330000000  0.4745150000000  0.6010690000000 1.0
C      1  0.5706590000000  0.4307370000000  0.4612030000000 1.0
C      1  0.5742880000000  0.4236620000000  0.4919930000000 1.0
C      1  0.5830110000000  0.5711570000000  0.4927430000000 1.0
C      1  0.4480150000000  0.3928120000000  0.4783370000000 1.0
C      1  0.4789860000000  0.4509920000000  0.5425400000000 1.0
C      1  0.4686970000000  0.4657720000000  0.4833890000000 1.0
C      1  0.5856080000000  0.4892110000000  0.5913440000000 1.0
C      1  0.4147520000000  0.5627220000000  0.5590560000000 1.0
C      1  0.5622170000000  0.5894920000000  0.5317660000000 1.0
C      1  0.4813380000000  0.5490040000000  0.5776710000000 1.0
C      1  0.5563700000000  0.4689940000000  0.4139840000000 1.0
C      1  0.6004690000000  0.4691250000000  0.4798060000000 1.0
C      1  0.5314910000000  0.3857830000000  0.5060360000000 1.0
C      1  0.4967460000000  0.5790460000000  0.5728510000000 1.0
C      1  0.4925700000000  0.5639470000000  0.5022680000000 1.0
C      1  0.4534120000000  0.5208640000000  0.5528910000000 1.0
C      1  0.5378730000000  0.5431080000000  0.5893520000000 1.0
C      1  0.5629560000000  0.5581330000000  0.4699400000000 1.0
C      1  0.4760340000000  0.5395000000000  0.5190990000000 1.0
C      1  0.5228440000000  0.5728550000000  0.5000530000000 1.0
C      1  0.5332260000000  0.5036090000000  0.5098160000000 1.0
C      1  0.5836870000000  0.5683290000000  0.5249700000000 1.0
C      1  0.5573700000000  0.5554920000000  0.4306850000000 1.0
C      1  0.5186150000000  0.5922860000000  0.4460260000000 1.0
C      1  0.4324590000000  0.4092140000000  0.5575660000000 1.0
C      1  0.4463710000000  0.4044440000000  0.4495180000000 1.0
C      1  0.5252170000000  0.4141620000000  0.4541400000000 1.0
C      1  0.4779980000000  0.4240950000000  0.5075810000000 1.0
C      1  0.6093090000000  0.5084850000000  0.5190890000000 1.0
C      1  0.4286980000000  0.5008710000000  0.5502040000000 1.0
C      1  0.4278000000000  0.5749390000000  0.5314090000000 1.0
C      1  0.4270430000000  0.5235210000000  0.5175950000000 1.0
C      1  0.4378500000000  0.3912990000000  0.5037640000000 1.0
C      1  0.4629230000000  0.4012050000000  0.5506550000000 1.0
C      1  0.5326840000000  0.5744410000000  0.5559930000000 1.0
C      1  0.5440270000000  0.4608890000000  0.5322910000000 1.0
C      1  0.4818030000000  0.5074150000000  0.5203120000000 1.0
C      1  0.5732860000000  0.4419520000000  0.5587370000000 1.0
C      1  0.4636320000000  0.4677420000000  0.5880450000000 1.0
C      1  0.5062770000000  0.5305910000000  0.5858970000000 1.0
C      1  0.4749480000000  0.4131880000000  0.4396340000000 1.0
C      1  0.4501340000000  0.4862690000000  0.4176450000000 1.0
C      1  0.4661090000000  0.4760420000000  0.5581320000000 1.0
C      1  0.5505620000000  0.5055790000000  0.5369170000000 1.0
C      1  0.4941850000000  0.4591360000000  0.5998460000000 1.0
C      1  0.4874530000000  0.5479460000000  0.3942590000000 1.0
C      1  0.5994280000000  0.5449350000000  0.4783930000000 1.0
C      1  0.4484840000000  0.5236710000000  0.4017250000000 1.0
C      1  0.5871790000000  0.4615890000000  0.5409890000000 1.0
C      1  0.5669180000000  0.5334990000000  0.5004370000000 1.0
C      1  0.5566120000000  0.5154040000000  0.5958710000000 1.0
C      1  0.5254270000000  0.4221030000000  0.5601790000000 1.0
C      1  0.5260640000000  0.4356590000000  0.5227710000000 1.0
C      1  0.5177540000000  0.5175480000000  0.4552910000000 1.0
C      1  0.5451750000000  0.4779890000000  0.5559110000000 1.0
C      1  0.4469860000000  0.5029120000000  0.4666260000000 1.0
C      1  0.5794970000000  0.4762170000000  0.4295650000000 1.0
C      1  0.4047640000000  0.5347850000000  0.5615220000000 1.0
C      1  0.3982610000000  0.4691290000000  0.5277240000000 1.0
C      1  0.4157980000000  0.5798690000000  0.5038540000000 1.0
C      1  0.5565480000000  0.5765920000000  0.5790730000000 1.0
C      1  0.5241510000000  0.5074930000000  0.6001500000000 1.0
C      1  0.4992500000000  0.5947140000000  0.5476720000000 1.0
C      1  0.4952060000000  0.4987290000000  0.4447600000000 1.0
C      1  0.3837760000000  0.5264500000000  0.4682100000000 1.0
C      1  0.5833040000000  0.5452680000000  0.5496030000000 1.0
C      1  0.5700130000000  0.4807700000000  0.4898260000000 1.0
C      1  0.5315720000000  0.5620500000000  0.4604930000000 1.0
C      1  0.5735260000000  0.4855710000000  0.5217690000000 1.0
C      1  0.5054280000000  0.4405690000000  0.4579710000000 1.0
C      1  0.4995300000000  0.4588960000000  0.4784430000000 1.0
C      1  0.4257180000000  0.5413310000000  0.4382760000000 1.0
C      1  0.4426400000000  0.4838840000000  0.4904070000000 1.0
C      1  0.5465460000000  0.4408710000000  0.4208250000000 1.0
C      1  0.4918930000000  0.5510780000000  0.5450350000000 1.0
C      1  0.5332700000000  0.4726600000000  0.5033180000000 1.0
C      1  0.4785800000000  0.5029600000000  0.5514980000000 1.0
C      1  0.5604690000000  0.5365860000000  0.5313090000000 1.0
C      1  0.4479950000000  0.5604250000000  0.4336550000000 1.0
C      1  0.5369550000000  0.5279610000000  0.4864540000000 1.0
C      1  0.4452410000000  0.5468210000000  0.5231410000000 1.0
C      1  0.5341520000000  0.5522640000000  0.4056010000000 1.0
C      1  0.4555340000000  0.4405230000000  0.4693410000000 1.0
C      1  0.4493980000000  0.5364470000000  0.4700920000000 1.0
C      1  0.5032970000000  0.5099220000000  0.4977430000000 1.0
C      1  0.3997510000000  0.5557170000000  0.4902020000000 1.0
C      1  0.4777690000000  0.5918600000000  0.5027190000000 1.0
C      1  0.4936960000000  0.5216220000000  0.4236440000000 1.0
C      1  0.4321420000000  0.4518570000000  0.4903430000000 1.0
C      1  0.5635160000000  0.4481510000000  0.5119000000000 1.0
C      1  0.4339110000000  0.4421860000000  0.5196640000000 1.0
C      1  0.5724220000000  0.5108660000000  0.4801860000000 1.0
C      1  0.4432750000000  0.4427490000000  0.4392940000000 1.0
C      1  0.5285440000000  0.4864900000000  0.4045970000000 1.0
C      1  0.5540030000000  0.4818550000000  0.6022110000000 1.0
C      1  0.4876970000000  0.4005160000000  0.5272310000000 1.0
C      1  0.4163760000000  0.4849480000000  0.5839730000000 1.0
C      1  0.4767960000000  0.4605840000000  0.4028640000000 1.0
C      1  0.5373090000000  0.5553620000000  0.5155430000000 1.0
C      1  0.4431270000000  0.4564590000000  0.4081610000000 1.0
C      1  0.5215790000000  0.4773940000000  0.4476480000000 1.0
C      1  0.5622900000000  0.5122470000000  0.4303530000000 1.0
C      1  0.4050750000000  0.4968070000000  0.4724910000000 1.0
C      1  0.4516270000000  0.5747850000000  0.4589850000000 1.0
C      1  0.5702700000000  0.5484890000000  0.5787900000000 1.0
C      1  0.5643290000000  0.5965420000000  0.4799830000000 1.0
C      1  0.4957360000000  0.4022100000000  0.4642310000000 1.0
C      1  0.5212980000000  0.5484250000000  0.5433090000000 1.0
C      1  0.3933140000000  0.4531300000000  0.4984180000000 1.0
C      1  0.5278140000000  0.5214770000000  0.5536170000000 1.0
C      1  0.5098080000000  0.5679110000000  0.4238930000000 1.0
C      1  0.4499460000000  0.4653550000000  0.5318830000000 1.0
C      1  0.4276030000000  0.5191320000000  0.4205190000000 1.0
C      1  0.5237120000000  0.4194090000000  0.4863700000000 1.0
C      1  0.4501060000000  0.5965620000000  0.5417030000000 1.0
C      1  0.5026060000000  0.3946220000000  0.4971330000000 1.0
C      1  0.4069780000000  0.4767050000000  0.5533980000000 1.0
C      1  0.5973610000000  0.5394770000000  0.5119730000000 1.0
C      1  0.5949720000000  0.4482200000000  0.5041370000000 1.0
C      1  0.5299250000000  0.5351260000000  0.4332720000000 1.0
C      1  0.4015790000000  0.4842800000000  0.4987570000000 1.0
C      1  0.5507670000000  0.5129060000000  0.4585900000000 1.0
C      1  0.3976140000000  0.5325030000000  0.5052490000000 1.0
C      1  0.5301550000000  0.5974760000000  0.4777170000000 1.0
C      1  0.5410630000000  0.4452750000000  0.4871600000000 1.0
END
