TITL C-2778427-5640-1472 -0.000522603260736713 125000 -416.80119638371 0 0 74 (C1) n - 1
REM
REM in /home/nfs/bkarasulu/CARBON/AIRSS/Generating-Clusters/REBO/Only-C1/SD-CG/HFTN-CG
REM
REM
REM
REM
REM
REM ./C.cell (11c1c37f851c82e70ff6c80c92926a4b)
REM
REM compiler GCC version 9.2.1 20190827 (Red Hat 9.2.1-1)
REM options -cpp -mtune=generic -march=x86-64 -g -O0 -fpre-include=/usr/include/finclude/math-vector-fortran.h
REM seed -160516153 -1985122697 -1018498115 -884925333 -354900827 -2142708930 1727780992 -2076600576 -2013981943 277525663 1122339110 1926152993 1228273546 1713390397 699908044 1299816607 -978088059 -765835773 356016590 1381207943 -1209633593 1756573655 2034963782 -566182471 1465879862 -1226649936 -1794863153 -1753117085 1970898413 -957824331 863459646 1198969276 -995002989
REM
CELL 1.54180   50.00000   50.00000   50.00000   90.00000   90.00000   90.00000
LATT -1
SFAC C  
C      1  0.4936300000000  0.5496440000000  0.4728410000000 1.0
C      1  0.5629740000000  0.5147170000000  0.4663950000000 1.0
C      1  0.5184730000000  0.5793120000000  0.4905030000000 1.0
C      1  0.4388520000000  0.5220170000000  0.5123350000000 1.0
C      1  0.4964400000000  0.5207570000000  0.5240280000000 1.0
C      1  0.4126050000000  0.5436620000000  0.4916430000000 1.0
C      1  0.5579620000000  0.4369100000000  0.5016940000000 1.0
C      1  0.4955890000000  0.4931130000000  0.5216730000000 1.0
C      1  0.4766090000000  0.5525640000000  0.5532380000000 1.0
C      1  0.5034070000000  0.5041230000000  0.4230750000000 1.0
C      1  0.5223070000000  0.5651230000000  0.4628670000000 1.0
C      1  0.4443220000000  0.4788290000000  0.5389500000000 1.0
C      1  0.4467330000000  0.4736580000000  0.4483810000000 1.0
C      1  0.4700750000000  0.4690710000000  0.4329440000000 1.0
C      1  0.5517040000000  0.4633320000000  0.4365200000000 1.0
C      1  0.4427400000000  0.4596010000000  0.5108300000000 1.0
C      1  0.4459130000000  0.5588430000000  0.5393510000000 1.0
C      1  0.4753040000000  0.4283110000000  0.4663810000000 1.0
C      1  0.4668920000000  0.4824750000000  0.5144520000000 1.0
C      1  0.4826190000000  0.4462150000000  0.5013120000000 1.0
C      1  0.4770980000000  0.4624110000000  0.4716720000000 1.0
C      1  0.4205550000000  0.5456910000000  0.5202340000000 1.0
C      1  0.4359490000000  0.4972300000000  0.4705190000000 1.0
C      1  0.4757800000000  0.5555380000000  0.4988320000000 1.0
C      1  0.5666120000000  0.5146860000000  0.5218540000000 1.0
C      1  0.5440300000000  0.4801500000000  0.4719510000000 1.0
C      1  0.4804560000000  0.4892570000000  0.4159400000000 1.0
C      1  0.5681380000000  0.4669130000000  0.4902250000000 1.0
C      1  0.5750630000000  0.4122060000000  0.5021780000000 1.0
C      1  0.5230540000000  0.5337790000000  0.5607110000000 1.0
C      1  0.4996010000000  0.4763530000000  0.5705740000000 1.0
C      1  0.5478890000000  0.4882700000000  0.5634110000000 1.0
C      1  0.4520110000000  0.4368300000000  0.4887820000000 1.0
C      1  0.5425330000000  0.5374780000000  0.5262000000000 1.0
C      1  0.4696100000000  0.5177580000000  0.4750460000000 1.0
C      1  0.4682920000000  0.5323180000000  0.5197600000000 1.0
C      1  0.5522210000000  0.4687140000000  0.5441440000000 1.0
C      1  0.5497930000000  0.5162580000000  0.5518510000000 1.0
C      1  0.5453560000000  0.4472780000000  0.4725130000000 1.0
C      1  0.5034890000000  0.5323180000000  0.4270000000000 1.0
C      1  0.4820640000000  0.4987420000000  0.5673800000000 1.0
C      1  0.5257900000000  0.4828010000000  0.5803220000000 1.0
C      1  0.4382400000000  0.5309830000000  0.4733980000000 1.0
C      1  0.5129810000000  0.4866290000000  0.4741020000000 1.0
C      1  0.4937150000000  0.5246040000000  0.5637440000000 1.0
C      1  0.4507890000000  0.5267760000000  0.5498690000000 1.0
C      1  0.5273540000000  0.5462700000000  0.4350200000000 1.0
C      1  0.5752350000000  0.4993690000000  0.4926780000000 1.0
C      1  0.4656240000000  0.4870220000000  0.4836060000000 1.0
C      1  0.5079070000000  0.5605370000000  0.5553610000000 1.0
C      1  0.5229780000000  0.4551730000000  0.4478960000000 1.0
C      1  0.5164190000000  0.4319410000000  0.5394000000000 1.0
C      1  0.5338460000000  0.5190760000000  0.4837940000000 1.0
C      1  0.5461620000000  0.5422530000000  0.4626440000000 1.0
C      1  0.4549270000000  0.4993490000000  0.5591060000000 1.0
C      1  0.4818380000000  0.5423890000000  0.4434660000000 1.0
C      1  0.5389900000000  0.4751760000000  0.5162910000000 1.0
C      1  0.5389560000000  0.5018420000000  0.5085110000000 1.0
C      1  0.4441170000000  0.5764000000000  0.5113670000000 1.0
C      1  0.5895860000000  0.3912260000000  0.5025890000000 1.0
C      1  0.5027400000000  0.4732440000000  0.4997350000000 1.0
C      1  0.5184440000000  0.5850850000000  0.5513250000000 1.0
C      1  0.4476440000000  0.5612310000000  0.4858420000000 1.0
C      1  0.4338100000000  0.4636860000000  0.4782400000000 1.0
C      1  0.4968930000000  0.4526880000000  0.5552450000000 1.0
C      1  0.5215400000000  0.4888350000000  0.4406960000000 1.0
C      1  0.5406270000000  0.4429500000000  0.5268290000000 1.0
C      1  0.4932230000000  0.4490360000000  0.4462450000000 1.0
C      1  0.5158450000000  0.5415320000000  0.5210990000000 1.0
C      1  0.4868930000000  0.4358910000000  0.5289480000000 1.0
C      1  0.5044710000000  0.5643150000000  0.5084090000000 1.0
C      1  0.5026720000000  0.5182900000000  0.4753220000000 1.0
C      1  0.4296070000000  0.4968020000000  0.5155010000000 1.0
C      1  0.5553940000000  0.4941460000000  0.4432090000000 1.0
END
