TITL C-2778432-5617-1311 0.000582900416620584 125000 -1071.82251329035 0 0 182 (C1) n - 1
REM
REM in /home/nfs/bkarasulu/CARBON/AIRSS/Generating-Clusters/REBO/Only-C1/SD-CG/HFTN-CG
REM
REM
REM
REM
REM
REM ./C.cell (11c1c37f851c82e70ff6c80c92926a4b)
REM
REM compiler GCC version 9.2.1 20190827 (Red Hat 9.2.1-1)
REM options -cpp -mtune=generic -march=x86-64 -g -O0 -fpre-include=/usr/include/finclude/math-vector-fortran.h
REM seed 916808033 1218523249 -296778515 347896023 570593767 -1443396848 1279209677 2075694131 -1673474361 -1026022277 -681058464 -1615927087 -1707909764 -889833628 707211783 1643222207 -2083166752 -17923077 270583546 -2035847044 -1618059332 -305977757 -731277707 -1255026843 774397769 -1268886713 890094294 1694338669 -235722119 -788084697 1582502535 2043389159 -604728116
REM
CELL 1.54180   50.00000   50.00000   50.00000   90.00000   90.00000   90.00000
LATT -1
SFAC C  
C      1  0.5061020000000  0.6113740000000  0.5256320000000 1.0
C      1  0.4509360000000  0.4747930000000  0.5984440000000 1.0
C      1  0.5600530000000  0.4793210000000  0.4064000000000 1.0
C      1  0.3900250000000  0.5407410000000  0.5101240000000 1.0
C      1  0.4336730000000  0.4124250000000  0.5206730000000 1.0
C      1  0.5543970000000  0.4560020000000  0.4263650000000 1.0
C      1  0.6186580000000  0.5528190000000  0.4585330000000 1.0
C      1  0.4319300000000  0.4434010000000  0.5700670000000 1.0
C      1  0.5813780000000  0.5127160000000  0.4896990000000 1.0
C      1  0.3911430000000  0.5572680000000  0.4399070000000 1.0
C      1  0.3896660000000  0.5271370000000  0.5352640000000 1.0
C      1  0.4636840000000  0.4602910000000  0.5111640000000 1.0
C      1  0.5747540000000  0.5008090000000  0.4201580000000 1.0
C      1  0.5073720000000  0.5418180000000  0.6004090000000 1.0
C      1  0.5050920000000  0.5594570000000  0.5491920000000 1.0
C      1  0.6164710000000  0.4941470000000  0.4927770000000 1.0
C      1  0.4639870000000  0.5897540000000  0.5511310000000 1.0
C      1  0.4796540000000  0.6041770000000  0.4965700000000 1.0
C      1  0.5280110000000  0.4653180000000  0.5920000000000 1.0
C      1  0.5510170000000  0.4248070000000  0.4348520000000 1.0
C      1  0.5488970000000  0.3963230000000  0.5470570000000 1.0
C      1  0.5381610000000  0.5230380000000  0.5592610000000 1.0
C      1  0.4422790000000  0.4314350000000  0.4804410000000 1.0
C      1  0.5309300000000  0.5165750000000  0.4860270000000 1.0
C      1  0.3919930000000  0.4637210000000  0.5232550000000 1.0
C      1  0.4352220000000  0.5039350000000  0.5913370000000 1.0
C      1  0.4587230000000  0.5116440000000  0.5479610000000 1.0
C      1  0.5912630000000  0.5554920000000  0.4610860000000 1.0
C      1  0.4009200000000  0.4514160000000  0.4971590000000 1.0
C      1  0.4396690000000  0.4792720000000  0.5118280000000 1.0
C      1  0.5248590000000  0.4684950000000  0.4225090000000 1.0
C      1  0.5062850000000  0.4482410000000  0.4020170000000 1.0
C      1  0.5183220000000  0.3949850000000  0.4838450000000 1.0
C      1  0.5372470000000  0.4888360000000  0.3904000000000 1.0
C      1  0.5574610000000  0.5432200000000  0.4995060000000 1.0
C      1  0.5455210000000  0.5109280000000  0.4567740000000 1.0
C      1  0.5728670000000  0.5111120000000  0.5437310000000 1.0
C      1  0.4772660000000  0.5025380000000  0.4977480000000 1.0
C      1  0.4772270000000  0.4363600000000  0.4366560000000 1.0
C      1  0.4973460000000  0.5485720000000  0.5031770000000 1.0
C      1  0.4808370000000  0.4649870000000  0.5666070000000 1.0
C      1  0.5642060000000  0.5404670000000  0.5693150000000 1.0
C      1  0.5173170000000  0.5917480000000  0.5013410000000 1.0
C      1  0.5523930000000  0.4549930000000  0.5014070000000 1.0
C      1  0.4013600000000  0.5122490000000  0.4606560000000 1.0
C      1  0.5328120000000  0.5780100000000  0.4192550000000 1.0
C      1  0.4853790000000  0.4123330000000  0.4496560000000 1.0
C      1  0.5280740000000  0.4232750000000  0.5487850000000 1.0
C      1  0.6089200000000  0.5281230000000  0.5459270000000 1.0
C      1  0.5135140000000  0.5573220000000  0.4308100000000 1.0
C      1  0.5387990000000  0.5470870000000  0.4716380000000 1.0
C      1  0.5721070000000  0.5094060000000  0.5777710000000 1.0
C      1  0.5319470000000  0.5164890000000  0.3973520000000 1.0
C      1  0.6061620000000  0.5067580000000  0.4664610000000 1.0
C      1  0.5082170000000  0.4216510000000  0.5762590000000 1.0
C      1  0.4528580000000  0.6092890000000  0.4772250000000 1.0
C      1  0.5561300000000  0.5960250000000  0.4706330000000 1.0
C      1  0.4275060000000  0.5104240000000  0.5614770000000 1.0
C      1  0.5073520000000  0.4249780000000  0.5091890000000 1.0
C      1  0.5345430000000  0.5419810000000  0.5960740000000 1.0
C      1  0.5026220000000  0.5006060000000  0.4355720000000 1.0
C      1  0.4847660000000  0.5325880000000  0.5526140000000 1.0
C      1  0.4377460000000  0.4171420000000  0.4546800000000 1.0
C      1  0.4129120000000  0.5345710000000  0.5501080000000 1.0
C      1  0.4877050000000  0.4922540000000  0.4058870000000 1.0
C      1  0.5118040000000  0.4046010000000  0.4576110000000 1.0
C      1  0.5647800000000  0.4874040000000  0.4974830000000 1.0
C      1  0.4308000000000  0.4692930000000  0.4222780000000 1.0
C      1  0.5090870000000  0.6180380000000  0.4564720000000 1.0
C      1  0.4777900000000  0.5302080000000  0.6062360000000 1.0
C      1  0.5414820000000  0.4285900000000  0.5791190000000 1.0
C      1  0.4381010000000  0.4606480000000  0.4535040000000 1.0
C      1  0.4430120000000  0.5055780000000  0.4324100000000 1.0
C      1  0.5564380000000  0.5733760000000  0.4277550000000 1.0
C      1  0.4874460000000  0.4978790000000  0.5720350000000 1.0
C      1  0.5350020000000  0.4455420000000  0.5291040000000 1.0
C      1  0.5129630000000  0.4585220000000  0.5079520000000 1.0
C      1  0.4961150000000  0.3802130000000  0.4944010000000 1.0
C      1  0.5110090000000  0.4765190000000  0.3865910000000 1.0
C      1  0.5239240000000  0.5250030000000  0.4354330000000 1.0
C      1  0.5465770000000  0.5809380000000  0.5260640000000 1.0
C      1  0.5073300000000  0.4728480000000  0.5379150000000 1.0
C      1  0.4928830000000  0.4344850000000  0.4831560000000 1.0
C      1  0.5451740000000  0.4817660000000  0.4725810000000 1.0
C      1  0.4341340000000  0.4952020000000  0.4757060000000 1.0
C      1  0.4802750000000  0.5803290000000  0.5724850000000 1.0
C      1  0.4545120000000  0.5759300000000  0.4264100000000 1.0
C      1  0.5687820000000  0.4835750000000  0.5277630000000 1.0
C      1  0.4411580000000  0.5817420000000  0.5290060000000 1.0
C      1  0.4780540000000  0.5608180000000  0.5198780000000 1.0
C      1  0.4528270000000  0.5880170000000  0.4506840000000 1.0
C      1  0.5004800000000  0.4677980000000  0.4449340000000 1.0
C      1  0.4866240000000  0.5463520000000  0.4733470000000 1.0
C      1  0.5166720000000  0.5729080000000  0.5283340000000 1.0
C      1  0.5860010000000  0.4547460000000  0.5061540000000 1.0
C      1  0.5675730000000  0.4766280000000  0.5781800000000 1.0
C      1  0.4615280000000  0.4720570000000  0.4082650000000 1.0
C      1  0.5621060000000  0.5735970000000  0.5483710000000 1.0
C      1  0.4159820000000  0.4948710000000  0.4402130000000 1.0
C      1  0.5153890000000  0.5080120000000  0.5771870000000 1.0
C      1  0.5498290000000  0.5318310000000  0.5307290000000 1.0
C      1  0.4818670000000  0.5495960000000  0.5800110000000 1.0
C      1  0.4572180000000  0.5155400000000  0.5159730000000 1.0
C      1  0.5564700000000  0.4221390000000  0.4620540000000 1.0
C      1  0.5175710000000  0.4789430000000  0.4848660000000 1.0
C      1  0.5146000000000  0.4603460000000  0.5687190000000 1.0
C      1  0.4839620000000  0.4194370000000  0.5302370000000 1.0
C      1  0.5773330000000  0.5799760000000  0.4611580000000 1.0
C      1  0.4131320000000  0.5352240000000  0.4970550000000 1.0
C      1  0.4222630000000  0.4289870000000  0.5006390000000 1.0
C      1  0.5905380000000  0.4709500000000  0.4581420000000 1.0
C      1  0.5738730000000  0.4373310000000  0.5331250000000 1.0
C      1  0.4537140000000  0.4281270000000  0.5682960000000 1.0
C      1  0.5453490000000  0.5672820000000  0.5773320000000 1.0
C      1  0.5080170000000  0.5029510000000  0.5073170000000 1.0
C      1  0.4664170000000  0.4423730000000  0.4894540000000 1.0
C      1  0.6110490000000  0.5112340000000  0.5164000000000 1.0
C      1  0.4665740000000  0.5018640000000  0.4522310000000 1.0
C      1  0.4225100000000  0.4748760000000  0.5790570000000 1.0
C      1  0.4993130000000  0.5044240000000  0.5401950000000 1.0
C      1  0.4457760000000  0.5259310000000  0.4147290000000 1.0
C      1  0.4045310000000  0.4875120000000  0.5526880000000 1.0
C      1  0.4872900000000  0.4300290000000  0.5995860000000 1.0
C      1  0.4305560000000  0.5542760000000  0.5393450000000 1.0
C      1  0.4398770000000  0.5274210000000  0.4682890000000 1.0
C      1  0.5201960000000  0.4359860000000  0.4308180000000 1.0
C      1  0.4716600000000  0.4522740000000  0.5945390000000 1.0
C      1  0.4931830000000  0.5438810000000  0.4129220000000 1.0
C      1  0.5133500000000  0.4440950000000  0.4633360000000 1.0
C      1  0.4545330000000  0.4815330000000  0.5563400000000 1.0
C      1  0.5488060000000  0.5909710000000  0.4970690000000 1.0
C      1  0.5400640000000  0.4906060000000  0.5634750000000 1.0
C      1  0.4792450000000  0.4218270000000  0.5612800000000 1.0
C      1  0.4696160000000  0.3914460000000  0.4917870000000 1.0
C      1  0.4366990000000  0.4684230000000  0.5392930000000 1.0
C      1  0.4566250000000  0.5451070000000  0.5264720000000 1.0
C      1  0.5038030000000  0.5207150000000  0.4010380000000 1.0
C      1  0.5132170000000  0.5593430000000  0.4613050000000 1.0
C      1  0.5570190000000  0.5465300000000  0.4427450000000 1.0
C      1  0.4996780000000  0.5836130000000  0.4777770000000 1.0
C      1  0.5482470000000  0.5173720000000  0.5977840000000 1.0
C      1  0.5248400000000  0.5391140000000  0.5087370000000 1.0
C      1  0.5861410000000  0.5345870000000  0.5142990000000 1.0
C      1  0.4794950000000  0.5914590000000  0.5241000000000 1.0
C      1  0.5633050000000  0.4638000000000  0.4548710000000 1.0
C      1  0.5845350000000  0.5492750000000  0.5449270000000 1.0
C      1  0.5412740000000  0.4397130000000  0.4774350000000 1.0
C      1  0.4090430000000  0.4539270000000  0.5481710000000 1.0
C      1  0.4608680000000  0.4044050000000  0.5161890000000 1.0
C      1  0.5643570000000  0.4463130000000  0.5647420000000 1.0
C      1  0.5567910000000  0.4125210000000  0.5233350000000 1.0
C      1  0.4674900000000  0.5724790000000  0.4757260000000 1.0
C      1  0.4677440000000  0.5042690000000  0.5955620000000 1.0
C      1  0.4089450000000  0.4462890000000  0.4643030000000 1.0
C      1  0.6031810000000  0.4945190000000  0.5442610000000 1.0
C      1  0.5733540000000  0.5287840000000  0.4642740000000 1.0
C      1  0.5308710000000  0.4925450000000  0.6022530000000 1.0
C      1  0.4093780000000  0.4765450000000  0.4766140000000 1.0
C      1  0.5491580000000  0.4677180000000  0.5443190000000 1.0
C      1  0.4616750000000  0.4816630000000  0.4777390000000 1.0
C      1  0.5134660000000  0.5731550000000  0.5751250000000 1.0
C      1  0.4271130000000  0.5570400000000  0.4791610000000 1.0
C      1  0.6013590000000  0.4696340000000  0.4847800000000 1.0
C      1  0.4424780000000  0.5823130000000  0.4959840000000 1.0
C      1  0.5950650000000  0.4641160000000  0.5371830000000 1.0
C      1  0.3892430000000  0.4966960000000  0.5236060000000 1.0
C      1  0.4771470000000  0.4462450000000  0.4102500000000 1.0
C      1  0.5353880000000  0.6099270000000  0.4562760000000 1.0
C      1  0.5360320000000  0.4103210000000  0.5038380000000 1.0
C      1  0.4697850000000  0.4612150000000  0.4545580000000 1.0
C      1  0.4842550000000  0.6187860000000  0.4668930000000 1.0
C      1  0.4962560000000  0.4989260000000  0.4691690000000 1.0
C      1  0.4042920000000  0.5418400000000  0.4587530000000 1.0
C      1  0.5542350000000  0.5239810000000  0.4199870000000 1.0
C      1  0.3928740000000  0.5008290000000  0.4900370000000 1.0
C      1  0.4217350000000  0.4382300000000  0.4336770000000 1.0
C      1  0.4671280000000  0.5339170000000  0.4533750000000 1.0
C      1  0.4293710000000  0.5106350000000  0.5030200000000 1.0
C      1  0.4657740000000  0.5473860000000  0.4243540000000 1.0
C      1  0.4806930000000  0.4520270000000  0.5348530000000 1.0
C      1  0.4628340000000  0.4011770000000  0.4644780000000 1.0
C      1  0.5950040000000  0.4958600000000  0.4403260000000 1.0
END
