TITL C-2778424-3986-958 -0.00130784883485634 125000 -774.329562018316 0 0 130 (C1) n - 1
REM
REM in /home/nfs/bkarasulu/CARBON/AIRSS/Generating-Clusters/REBO/Only-C1/SD-CG/HFTN-CG
REM
REM
REM
REM
REM
REM ./C.cell (11c1c37f851c82e70ff6c80c92926a4b)
REM
REM compiler GCC version 9.2.1 20190827 (Red Hat 9.2.1-1)
REM options -cpp -mtune=generic -march=x86-64 -g -O0 -fpre-include=/usr/include/finclude/math-vector-fortran.h
REM seed 2132236395 800551771 -2144159841 -2143470364 -1030255090 259418803 -310387590 -1817389796 1251413095 -1816644346 383765050 -1042686906 -443233920 600487173 1559053511 1611733401 -502932112 547588343 1278695294 -404659374 -1192577184 1641416363 163327075 -8244124 1044519024 1073496720 -317480390 2055158115 -1293162035 1312924460 -1931489646 1600750482 2125981928
REM
CELL 1.54180   50.00000   50.00000   50.00000   90.00000   90.00000   90.00000
LATT -1
SFAC C  
C      1  0.4876310000000  0.4974680000000  0.5931720000000 1.0
C      1  0.5089780000000  0.4795260000000  0.5535400000000 1.0
C      1  0.4529210000000  0.5759850000000  0.5398970000000 1.0
C      1  0.4696100000000  0.5424860000000  0.5728280000000 1.0
C      1  0.4237270000000  0.5036610000000  0.4394010000000 1.0
C      1  0.4533790000000  0.5321210000000  0.4620080000000 1.0
C      1  0.4105860000000  0.5074250000000  0.5360920000000 1.0
C      1  0.4870660000000  0.4257120000000  0.5600150000000 1.0
C      1  0.4815610000000  0.5794000000000  0.4296900000000 1.0
C      1  0.5356910000000  0.5214400000000  0.4036880000000 1.0
C      1  0.4152790000000  0.4883810000000  0.4616050000000 1.0
C      1  0.5025190000000  0.5823650000000  0.5087060000000 1.0
C      1  0.5389100000000  0.4769560000000  0.5426940000000 1.0
C      1  0.5861080000000  0.5308760000000  0.4814250000000 1.0
C      1  0.5576750000000  0.4958470000000  0.5071380000000 1.0
C      1  0.4721470000000  0.5659720000000  0.5590160000000 1.0
C      1  0.5209210000000  0.5339660000000  0.4310920000000 1.0
C      1  0.4850020000000  0.4220520000000  0.4365480000000 1.0
C      1  0.5737490000000  0.5477570000000  0.5250340000000 1.0
C      1  0.4451710000000  0.4223500000000  0.5084550000000 1.0
C      1  0.4604110000000  0.4271730000000  0.5384750000000 1.0
C      1  0.5520500000000  0.5312420000000  0.5408460000000 1.0
C      1  0.5062460000000  0.4648150000000  0.4507510000000 1.0
C      1  0.4226140000000  0.4607800000000  0.4598220000000 1.0
C      1  0.4955380000000  0.4934980000000  0.4644230000000 1.0
C      1  0.5849520000000  0.4577750000000  0.5276660000000 1.0
C      1  0.5539940000000  0.5706860000000  0.5299940000000 1.0
C      1  0.4223520000000  0.4632400000000  0.5498280000000 1.0
C      1  0.5192260000000  0.5864750000000  0.4605270000000 1.0
C      1  0.4648990000000  0.5994340000000  0.5272800000000 1.0
C      1  0.5700610000000  0.4656970000000  0.5519130000000 1.0
C      1  0.4408150000000  0.5830370000000  0.4797560000000 1.0
C      1  0.4594770000000  0.4517980000000  0.4274000000000 1.0
C      1  0.4619490000000  0.4918140000000  0.5310840000000 1.0
C      1  0.5038060000000  0.5092890000000  0.4048800000000 1.0
C      1  0.5942570000000  0.5037120000000  0.5211180000000 1.0
C      1  0.4942150000000  0.4600070000000  0.5139680000000 1.0
C      1  0.4203730000000  0.5402270000000  0.4825690000000 1.0
C      1  0.5512080000000  0.4703230000000  0.4941840000000 1.0
C      1  0.5689750000000  0.5029990000000  0.5388430000000 1.0
C      1  0.4792220000000  0.5286920000000  0.4516950000000 1.0
C      1  0.5867890000000  0.5052920000000  0.4651550000000 1.0
C      1  0.4933410000000  0.4160790000000  0.4940440000000 1.0
C      1  0.4852760000000  0.5549130000000  0.5004090000000 1.0
C      1  0.5211720000000  0.4590600000000  0.4971450000000 1.0
C      1  0.4595520000000  0.6021850000000  0.4994880000000 1.0
C      1  0.4459610000000  0.5325170000000  0.5814590000000 1.0
C      1  0.5331080000000  0.4836750000000  0.4541940000000 1.0
C      1  0.5010700000000  0.4720800000000  0.5792850000000 1.0
C      1  0.4075600000000  0.4916530000000  0.5118020000000 1.0
C      1  0.5340840000000  0.5642610000000  0.5544580000000 1.0
C      1  0.5369240000000  0.5158020000000  0.4627340000000 1.0
C      1  0.5286530000000  0.4202130000000  0.4663420000000 1.0
C      1  0.4586460000000  0.4568370000000  0.5810420000000 1.0
C      1  0.4394500000000  0.5300750000000  0.4247850000000 1.0
C      1  0.4233940000000  0.5411960000000  0.4520520000000 1.0
C      1  0.5546380000000  0.5041830000000  0.5697320000000 1.0
C      1  0.5349810000000  0.4513320000000  0.5250490000000 1.0
C      1  0.4857400000000  0.4604170000000  0.4252860000000 1.0
C      1  0.4430710000000  0.4469120000000  0.5591240000000 1.0
C      1  0.4186650000000  0.4627020000000  0.5195640000000 1.0
C      1  0.4454550000000  0.4793340000000  0.5106470000000 1.0
C      1  0.5235160000000  0.5148060000000  0.5654890000000 1.0
C      1  0.4951160000000  0.5075140000000  0.4904180000000 1.0
C      1  0.4560730000000  0.5013440000000  0.4339330000000 1.0
C      1  0.4666670000000  0.4854340000000  0.4572190000000 1.0
C      1  0.4179000000000  0.5005610000000  0.4874130000000 1.0
C      1  0.5104310000000  0.4291370000000  0.4236500000000 1.0
C      1  0.4686300000000  0.4162190000000  0.4580040000000 1.0
C      1  0.4736520000000  0.5262390000000  0.4955480000000 1.0
C      1  0.5139540000000  0.4582340000000  0.4121010000000 1.0
C      1  0.5145250000000  0.5137800000000  0.5095800000000 1.0
C      1  0.4251640000000  0.5638530000000  0.4972760000000 1.0
C      1  0.4582630000000  0.5723320000000  0.4522880000000 1.0
C      1  0.5407950000000  0.4303490000000  0.5500500000000 1.0
C      1  0.5643290000000  0.4802080000000  0.4578600000000 1.0
C      1  0.5325300000000  0.4188510000000  0.4385300000000 1.0
C      1  0.5048510000000  0.5895430000000  0.4381200000000 1.0
C      1  0.5668970000000  0.5518820000000  0.4794030000000 1.0
C      1  0.5551240000000  0.4739540000000  0.5788910000000 1.0
C      1  0.5108870000000  0.5444000000000  0.5176370000000 1.0
C      1  0.5527440000000  0.5238810000000  0.4335380000000 1.0
C      1  0.4949580000000  0.5027240000000  0.6197510000000 1.0
C      1  0.4935820000000  0.5958420000000  0.5323370000000 1.0
C      1  0.4782470000000  0.5226740000000  0.4192780000000 1.0
C      1  0.5033110000000  0.4416150000000  0.4739710000000 1.0
C      1  0.5386550000000  0.4087820000000  0.4906080000000 1.0
C      1  0.5101250000000  0.5020580000000  0.4368820000000 1.0
C      1  0.5550600000000  0.4939510000000  0.4076720000000 1.0
C      1  0.4735110000000  0.5769320000000  0.4818290000000 1.0
C      1  0.4481140000000  0.4502250000000  0.4532760000000 1.0
C      1  0.5171320000000  0.5579580000000  0.4766510000000 1.0
C      1  0.4202230000000  0.4344880000000  0.5084950000000 1.0
C      1  0.4554380000000  0.4162240000000  0.4822820000000 1.0
C      1  0.5054570000000  0.5461600000000  0.5491220000000 1.0
C      1  0.5962610000000  0.4776000000000  0.5106770000000 1.0
C      1  0.5525540000000  0.5873770000000  0.5064670000000 1.0
C      1  0.4523650000000  0.4770840000000  0.4842390000000 1.0
C      1  0.5082910000000  0.5342140000000  0.4605820000000 1.0
C      1  0.5745970000000  0.5003390000000  0.4336970000000 1.0
C      1  0.5452170000000  0.4464090000000  0.5765850000000 1.0
C      1  0.5893140000000  0.4204080000000  0.4744550000000 1.0
C      1  0.5886600000000  0.4757900000000  0.4815210000000 1.0
C      1  0.4389660000000  0.5022050000000  0.5773210000000 1.0
C      1  0.5255840000000  0.4829800000000  0.4053130000000 1.0
C      1  0.5633850000000  0.4344830000000  0.5247640000000 1.0
C      1  0.5495350000000  0.5179350000000  0.4910470000000 1.0
C      1  0.5175530000000  0.4065690000000  0.5100720000000 1.0
C      1  0.5264080000000  0.5891900000000  0.4925040000000 1.0
C      1  0.4486560000000  0.5120670000000  0.5471910000000 1.0
C      1  0.5387110000000  0.5470090000000  0.4981570000000 1.0
C      1  0.4336020000000  0.5594210000000  0.5250160000000 1.0
C      1  0.5917840000000  0.5301410000000  0.5096820000000 1.0
C      1  0.4884670000000  0.4800860000000  0.5333170000000 1.0
C      1  0.4942850000000  0.5231460000000  0.5721160000000 1.0
C      1  0.5299430000000  0.5068590000000  0.5336900000000 1.0
C      1  0.4586400000000  0.4839850000000  0.5894760000000 1.0
C      1  0.5464280000000  0.5380130000000  0.5724270000000 1.0
C      1  0.4173890000000  0.4899210000000  0.5584950000000 1.0
C      1  0.4286200000000  0.5328780000000  0.5351340000000 1.0
C      1  0.5030260000000  0.5785910000000  0.5568560000000 1.0
C      1  0.5714700000000  0.4485920000000  0.4812640000000 1.0
C      1  0.4624680000000  0.5526360000000  0.4246160000000 1.0
C      1  0.4858040000000  0.4470510000000  0.5793410000000 1.0
C      1  0.5723040000000  0.5794650000000  0.4870650000000 1.0
C      1  0.4710610000000  0.4525540000000  0.4744040000000 1.0
C      1  0.5651240000000  0.4198910000000  0.4982430000000 1.0
C      1  0.4435140000000  0.5184950000000  0.4904360000000 1.0
C      1  0.4880230000000  0.4310210000000  0.5211980000000 1.0
C      1  0.5133320000000  0.4182610000000  0.5406720000000 1.0
END
