TITL C-2778426-5645-1380 0.00159882021131905 125000 -389.122104193451 0 0 68 (C1) n - 1
REM
REM in /home/nfs/bkarasulu/CARBON/AIRSS/Generating-Clusters/REBO/Only-C1/SD-CG/HFTN-CG
REM
REM
REM
REM
REM
REM ./C.cell (11c1c37f851c82e70ff6c80c92926a4b)
REM
REM compiler GCC version 9.2.1 20190827 (Red Hat 9.2.1-1)
REM options -cpp -mtune=generic -march=x86-64 -g -O0 -fpre-include=/usr/include/finclude/math-vector-fortran.h
REM seed 794169699 740767703 -175784609 -90190464 -1069825012 -437275885 -1331132154 1899390673 -687822308 -1297421755 -2058211507 -1928497822 1289069734 298850135 -1644194983 1971760429 2006253645 -1032372914 -721659606 -563525010 -65580598 1092305769 447690098 -2090756053 -1417799415 -2107081862 64137158 -974205943 -678592976 305235132 -1585551203 -1916426119 1824020154
REM
CELL 1.54180   50.00000   50.00000   50.00000   90.00000   90.00000   90.00000
LATT -1
SFAC C  
C      1  0.4873440000000  0.5003000000000  0.5672070000000 1.0
C      1  0.4944170000000  0.5245550000000  0.4976270000000 1.0
C      1  0.4854570000000  0.4588810000000  0.4314250000000 1.0
C      1  0.5451450000000  0.4454650000000  0.4999000000000 1.0
C      1  0.5102710000000  0.5245420000000  0.5794760000000 1.0
C      1  0.5005710000000  0.4372050000000  0.4748740000000 1.0
C      1  0.4766140000000  0.5598910000000  0.4932060000000 1.0
C      1  0.4726810000000  0.5385280000000  0.5170110000000 1.0
C      1  0.5089670000000  0.5076560000000  0.4336550000000 1.0
C      1  0.4416800000000  0.4621550000000  0.4600600000000 1.0
C      1  0.5355180000000  0.5603860000000  0.4927600000000 1.0
C      1  0.5667630000000  0.4602000000000  0.5150240000000 1.0
C      1  0.4537300000000  0.5286280000000  0.4557930000000 1.0
C      1  0.5463180000000  0.5292850000000  0.5325710000000 1.0
C      1  0.5437610000000  0.4820540000000  0.4592360000000 1.0
C      1  0.5247050000000  0.4402490000000  0.4537470000000 1.0
C      1  0.5203560000000  0.4912800000000  0.5637440000000 1.0
C      1  0.4700440000000  0.4175740000000  0.5526690000000 1.0
C      1  0.5320670000000  0.5945620000000  0.4590350000000 1.0
C      1  0.4116380000000  0.5293000000000  0.5175640000000 1.0
C      1  0.5806280000000  0.4783730000000  0.4944000000000 1.0
C      1  0.5089750000000  0.5259070000000  0.5457950000000 1.0
C      1  0.4658430000000  0.4789000000000  0.5117300000000 1.0
C      1  0.4885570000000  0.5785670000000  0.5447880000000 1.0
C      1  0.5141610000000  0.4576790000000  0.4318730000000 1.0
C      1  0.4422400000000  0.5383840000000  0.4800270000000 1.0
C      1  0.4993230000000  0.4361770000000  0.5063000000000 1.0
C      1  0.5322080000000  0.5058750000000  0.4756080000000 1.0
C      1  0.4331720000000  0.4825300000000  0.5344980000000 1.0
C      1  0.4839980000000  0.4996370000000  0.4770460000000 1.0
C      1  0.4844510000000  0.4578270000000  0.5241130000000 1.0
C      1  0.4599240000000  0.4764850000000  0.4350300000000 1.0
C      1  0.4490550000000  0.4632220000000  0.5542160000000 1.0
C      1  0.4591310000000  0.5095200000000  0.5210030000000 1.0
C      1  0.4715070000000  0.5404750000000  0.4370570000000 1.0
C      1  0.5253980000000  0.4324690000000  0.5185770000000 1.0
C      1  0.4363950000000  0.5266630000000  0.5053860000000 1.0
C      1  0.5713980000000  0.4693070000000  0.4681010000000 1.0
C      1  0.4670120000000  0.4437880000000  0.5451480000000 1.0
C      1  0.5301750000000  0.5081010000000  0.5029340000000 1.0
C      1  0.4295630000000  0.4892240000000  0.4769420000000 1.0
C      1  0.5222150000000  0.5392990000000  0.5106340000000 1.0
C      1  0.4244680000000  0.4875340000000  0.5096900000000 1.0
C      1  0.5271890000000  0.4598040000000  0.5690680000000 1.0
C      1  0.5122700000000  0.5041930000000  0.5269250000000 1.0
C      1  0.5257330000000  0.4456520000000  0.5435340000000 1.0
C      1  0.4922940000000  0.5699010000000  0.4719440000000 1.0
C      1  0.5638080000000  0.5548900000000  0.4953230000000 1.0
C      1  0.5509890000000  0.4432670000000  0.4665130000000 1.0
C      1  0.4796370000000  0.5333100000000  0.5708830000000 1.0
C      1  0.5074520000000  0.4738740000000  0.5374490000000 1.0
C      1  0.4617990000000  0.4936970000000  0.5506260000000 1.0
C      1  0.4823740000000  0.5654080000000  0.4455760000000 1.0
C      1  0.5470040000000  0.5034960000000  0.5464460000000 1.0
C      1  0.5203430000000  0.5760280000000  0.4752380000000 1.0
C      1  0.5809640000000  0.5061980000000  0.5098280000000 1.0
C      1  0.5251120000000  0.4675120000000  0.4834960000000 1.0
C      1  0.4574350000000  0.4988000000000  0.4599210000000 1.0
C      1  0.5657190000000  0.4868570000000  0.5304830000000 1.0
C      1  0.4920570000000  0.6037900000000  0.5464610000000 1.0
C      1  0.4736290000000  0.4503890000000  0.4614070000000 1.0
C      1  0.4550260000000  0.4716470000000  0.4893820000000 1.0
C      1  0.4844220000000  0.5487760000000  0.5428120000000 1.0
C      1  0.5696170000000  0.5329570000000  0.5132420000000 1.0
C      1  0.5268580000000  0.4837270000000  0.4327670000000 1.0
C      1  0.4937630000000  0.4709370000000  0.4799210000000 1.0
C      1  0.4882340000000  0.5228990000000  0.4210270000000 1.0
C      1  0.5084270000000  0.5133530000000  0.4622470000000 1.0
END
