TITL C-2778427-5640-657 0.0312014122739961 125000 -559.655674116818 0 0 96 (C1) n - 1
REM
REM in /home/nfs/bkarasulu/CARBON/AIRSS/Generating-Clusters/REBO/Only-C1/SD-CG/HFTN-CG
REM
REM
REM
REM
REM
REM ./C.cell (11c1c37f851c82e70ff6c80c92926a4b)
REM
REM compiler GCC version 9.2.1 20190827 (Red Hat 9.2.1-1)
REM options -cpp -mtune=generic -march=x86-64 -g -O0 -fpre-include=/usr/include/finclude/math-vector-fortran.h
REM seed 1662831763 648056082 -362846347 237040203 1172524362 -1112960317 312011506 -1910776107 -1150852606 -1200027155 813358144 -2086448681 -875970561 -281866918 -647675103 898499308 1373798117 170880752 1026129509 -2122114208 -1135322367 579993240 959929225 2042438104 1176415273 1544257211 -517820302 -1306358249 -360858053 1891434530 689119508 -1516453474 -1602703930
REM
CELL 1.54180   50.00000   50.00000   50.00000   90.00000   90.00000   90.00000
LATT -1
SFAC C  
C      1  0.4326830000000  0.4340340000000  0.5239060000000 1.0
C      1  0.4465660000000  0.5054010000000  0.5146070000000 1.0
C      1  0.4918000000000  0.4901580000000  0.5179240000000 1.0
C      1  0.5606850000000  0.4832640000000  0.4423480000000 1.0
C      1  0.5587910000000  0.4753860000000  0.5264520000000 1.0
C      1  0.4767100000000  0.5798160000000  0.4790730000000 1.0
C      1  0.4863330000000  0.4543180000000  0.4473920000000 1.0
C      1  0.5435460000000  0.5248010000000  0.5620740000000 1.0
C      1  0.5171510000000  0.4565890000000  0.5446140000000 1.0
C      1  0.5596490000000  0.5576320000000  0.4791460000000 1.0
C      1  0.5188350000000  0.4619990000000  0.4256000000000 1.0
C      1  0.5349220000000  0.4298520000000  0.5526210000000 1.0
C      1  0.5004820000000  0.4894920000000  0.5835260000000 1.0
C      1  0.4163280000000  0.5363280000000  0.5251830000000 1.0
C      1  0.5217010000000  0.5709740000000  0.4989010000000 1.0
C      1  0.5706940000000  0.5230580000000  0.4183190000000 1.0
C      1  0.5119810000000  0.5571040000000  0.4534830000000 1.0
C      1  0.5314310000000  0.4725780000000  0.4470340000000 1.0
C      1  0.5607290000000  0.5474370000000  0.5570630000000 1.0
C      1  0.5094960000000  0.5581180000000  0.5613930000000 1.0
C      1  0.4382850000000  0.5479150000000  0.4828550000000 1.0
C      1  0.4138370000000  0.5184130000000  0.4542220000000 1.0
C      1  0.5448580000000  0.5043980000000  0.5381760000000 1.0
C      1  0.4307530000000  0.4533330000000  0.4597220000000 1.0
C      1  0.4297430000000  0.4834270000000  0.4859850000000 1.0
C      1  0.5484340000000  0.5011710000000  0.4158610000000 1.0
C      1  0.4555430000000  0.5325360000000  0.5070580000000 1.0
C      1  0.5196070000000  0.5136170000000  0.4210540000000 1.0
C      1  0.6042610000000  0.5015600000000  0.5329270000000 1.0
C      1  0.4260020000000  0.4865200000000  0.5282120000000 1.0
C      1  0.5295990000000  0.4168900000000  0.4952040000000 1.0
C      1  0.4632600000000  0.4859160000000  0.4862750000000 1.0
C      1  0.4631640000000  0.4313150000000  0.4893190000000 1.0
C      1  0.4917280000000  0.4709040000000  0.4734980000000 1.0
C      1  0.5621790000000  0.5150360000000  0.4503210000000 1.0
C      1  0.5214110000000  0.4483970000000  0.5761390000000 1.0
C      1  0.5383750000000  0.5541340000000  0.5144800000000 1.0
C      1  0.5528280000000  0.4285020000000  0.5078780000000 1.0
C      1  0.4902910000000  0.4994530000000  0.5565420000000 1.0
C      1  0.5048900000000  0.5762560000000  0.4759000000000 1.0
C      1  0.4977510000000  0.5097380000000  0.4686730000000 1.0
C      1  0.5298370000000  0.4232340000000  0.4672280000000 1.0
C      1  0.5211730000000  0.4048340000000  0.5402370000000 1.0
C      1  0.4175300000000  0.5255270000000  0.5543980000000 1.0
C      1  0.4694920000000  0.4990990000000  0.4560350000000 1.0
C      1  0.4329560000000  0.5432370000000  0.4502180000000 1.0
C      1  0.4501680000000  0.5644690000000  0.5171360000000 1.0
C      1  0.4917010000000  0.4727230000000  0.4204720000000 1.0
C      1  0.4128550000000  0.5090200000000  0.4806100000000 1.0
C      1  0.5057950000000  0.4269620000000  0.4534680000000 1.0
C      1  0.4416690000000  0.4796650000000  0.4538070000000 1.0
C      1  0.5308660000000  0.4964830000000  0.5018720000000 1.0
C      1  0.4687820000000  0.5191850000000  0.5832690000000 1.0
C      1  0.5969210000000  0.5233660000000  0.5182000000000 1.0
C      1  0.4901090000000  0.5876690000000  0.5244970000000 1.0
C      1  0.4525770000000  0.4964020000000  0.5684140000000 1.0
C      1  0.4924800000000  0.4561150000000  0.5249540000000 1.0
C      1  0.5186630000000  0.5343260000000  0.5742140000000 1.0
C      1  0.5756880000000  0.5254390000000  0.5000120000000 1.0
C      1  0.5098930000000  0.4089860000000  0.5150050000000 1.0
C      1  0.5526710000000  0.4733170000000  0.4929660000000 1.0
C      1  0.5281950000000  0.5151590000000  0.4539260000000 1.0
C      1  0.4251070000000  0.4975480000000  0.5557480000000 1.0
C      1  0.5523250000000  0.4442840000000  0.5303610000000 1.0
C      1  0.4940190000000  0.5160750000000  0.5020490000000 1.0
C      1  0.5532780000000  0.5647300000000  0.5366030000000 1.0
C      1  0.5540970000000  0.4367310000000  0.4599920000000 1.0
C      1  0.5211800000000  0.4780390000000  0.4754470000000 1.0
C      1  0.4647470000000  0.4900790000000  0.5371680000000 1.0
C      1  0.5112680000000  0.4659170000000  0.5933410000000 1.0
C      1  0.4682840000000  0.5836730000000  0.5063610000000 1.0
C      1  0.4842300000000  0.5391490000000  0.5235470000000 1.0
C      1  0.4836920000000  0.4244280000000  0.5159350000000 1.0
C      1  0.4707360000000  0.5271550000000  0.5505830000000 1.0
C      1  0.5789170000000  0.5230590000000  0.4735590000000 1.0
C      1  0.5201310000000  0.4840080000000  0.5316080000000 1.0
C      1  0.5888800000000  0.4793000000000  0.5348310000000 1.0
C      1  0.4345610000000  0.4429000000000  0.4850030000000 1.0
C      1  0.4588270000000  0.5627970000000  0.4618220000000 1.0
C      1  0.4622610000000  0.5420750000000  0.4348260000000 1.0
C      1  0.5468800000000  0.5243540000000  0.5105490000000 1.0
C      1  0.4440810000000  0.5439130000000  0.5435520000000 1.0
C      1  0.5166660000000  0.5450180000000  0.4300270000000 1.0
C      1  0.4749810000000  0.4256590000000  0.4617510000000 1.0
C      1  0.5641000000000  0.4616820000000  0.4666850000000 1.0
C      1  0.4221710000000  0.4610500000000  0.5100870000000 1.0
C      1  0.5414650000000  0.5396490000000  0.4737880000000 1.0
C      1  0.4533240000000  0.4206220000000  0.5265290000000 1.0
C      1  0.4985730000000  0.5633330000000  0.5361220000000 1.0
C      1  0.4922960000000  0.5011180000000  0.4166170000000 1.0
C      1  0.4991190000000  0.5195880000000  0.5898420000000 1.0
C      1  0.4724220000000  0.5160200000000  0.4307750000000 1.0
C      1  0.5097910000000  0.5371320000000  0.4813050000000 1.0
C      1  0.4165360000000  0.5310930000000  0.4986410000000 1.0
C      1  0.4758370000000  0.4591640000000  0.4985300000000 1.0
C      1  0.5778850000000  0.5756710000000  0.4845200000000 1.0
END
