TITL C-2778434-4341-190 -0.0652137112720611 125000 -294.954845219849 0 0 51 (C1) n - 1
REM
REM in /home/nfs/bkarasulu/CARBON/AIRSS/Generating-Clusters/REBO/Only-C1/SD-CG/HFTN-CG
REM
REM
REM
REM
REM
REM ./C.cell (11c1c37f851c82e70ff6c80c92926a4b)
REM
REM compiler GCC version 9.2.1 20190827 (Red Hat 9.2.1-1)
REM options -cpp -mtune=generic -march=x86-64 -g -O0 -fpre-include=/usr/include/finclude/math-vector-fortran.h
REM seed -671984235 -141122192 514510600 643118745 990579823 -1384801576 -546660283 -378117889 581128245 2075001651 -172146610 1265406106 -1634576742 -309049459 -2075414053 -122230132 -1886008541 -368191293 -1254387660 -1799420094 -621198930 -106302323 1190679656 -1608596518 -271803857 -377504358 747416822 1268217389 -379112688 -329305559 574096700 -455542488 -703185073
REM
CELL 1.54180   50.00000   50.00000   50.00000   90.00000   90.00000   90.00000
LATT -1
SFAC C  
C      1  0.4225080000000  0.5279330000000  0.5427960000000 1.0
C      1  0.5134580000000  0.4335350000000  0.4772190000000 1.0
C      1  0.4828920000000  0.5381690000000  0.4594310000000 1.0
C      1  0.5809880000000  0.4801380000000  0.4358670000000 1.0
C      1  0.5699450000000  0.4867600000000  0.5322940000000 1.0
C      1  0.4480810000000  0.5313600000000  0.5302710000000 1.0
C      1  0.5378830000000  0.4697540000000  0.4571210000000 1.0
C      1  0.4167740000000  0.5018290000000  0.5517300000000 1.0
C      1  0.4975810000000  0.4797540000000  0.5668870000000 1.0
C      1  0.5325380000000  0.4321050000000  0.4980960000000 1.0
C      1  0.4503910000000  0.4699290000000  0.4784960000000 1.0
C      1  0.4921660000000  0.4569080000000  0.4766750000000 1.0
C      1  0.5129270000000  0.5285470000000  0.4679780000000 1.0
C      1  0.5674400000000  0.4687010000000  0.5097300000000 1.0
C      1  0.4945520000000  0.5360420000000  0.5245780000000 1.0
C      1  0.5188950000000  0.4778870000000  0.5131890000000 1.0
C      1  0.5303040000000  0.5120700000000  0.5510150000000 1.0
C      1  0.4523540000000  0.4656240000000  0.5525800000000 1.0
C      1  0.4715510000000  0.5304150000000  0.5929000000000 1.0
C      1  0.4687280000000  0.4983250000000  0.4571310000000 1.0
C      1  0.4871510000000  0.4540940000000  0.4428450000000 1.0
C      1  0.5108020000000  0.5047570000000  0.4850400000000 1.0
C      1  0.5057460000000  0.5303900000000  0.4358380000000 1.0
C      1  0.4512460000000  0.5231740000000  0.5006530000000 1.0
C      1  0.5549270000000  0.5159580000000  0.4560270000000 1.0
C      1  0.5352680000000  0.5216070000000  0.4355750000000 1.0
C      1  0.4705870000000  0.5448650000000  0.4845890000000 1.0
C      1  0.4282040000000  0.4775490000000  0.5549610000000 1.0
C      1  0.4568120000000  0.4565920000000  0.4583780000000 1.0
C      1  0.4050710000000  0.5486120000000  0.5455790000000 1.0
C      1  0.5460130000000  0.5118550000000  0.5025200000000 1.0
C      1  0.5304040000000  0.5524300000000  0.4793080000000 1.0
C      1  0.4742270000000  0.4833550000000  0.4344520000000 1.0
C      1  0.5066340000000  0.5098400000000  0.5169720000000 1.0
C      1  0.4498810000000  0.5152430000000  0.4676140000000 1.0
C      1  0.5201500000000  0.4493030000000  0.4501630000000 1.0
C      1  0.4734240000000  0.5336430000000  0.5435580000000 1.0
C      1  0.4865510000000  0.4869010000000  0.4801870000000 1.0
C      1  0.4859840000000  0.4830760000000  0.5199790000000 1.0
C      1  0.4838890000000  0.5257070000000  0.5691870000000 1.0
C      1  0.4789620000000  0.4718350000000  0.5469700000000 1.0
C      1  0.5506570000000  0.5305550000000  0.4809310000000 1.0
C      1  0.5133000000000  0.5689800000000  0.4942940000000 1.0
C      1  0.5066760000000  0.5070350000000  0.5664680000000 1.0
C      1  0.4899890000000  0.5553260000000  0.5037620000000 1.0
C      1  0.5360580000000  0.4850980000000  0.4840440000000 1.0
C      1  0.5415150000000  0.4557610000000  0.5105170000000 1.0
C      1  0.4611180000000  0.4921310000000  0.5001820000000 1.0
C      1  0.5755340000000  0.4789650000000  0.4839520000000 1.0
C      1  0.5500590000000  0.5077490000000  0.5309160000000 1.0
C      1  0.5712060000000  0.4918300000000  0.4585520000000 1.0
END
