TITL C-2778432-5617-214 0.000292409841474898 125000 -792.650353586425 0 0 134 (C1) n - 1
REM
REM in /home/nfs/bkarasulu/CARBON/AIRSS/Generating-Clusters/REBO/Only-C1/SD-CG/HFTN-CG
REM
REM
REM
REM
REM
REM ./C.cell (11c1c37f851c82e70ff6c80c92926a4b)
REM
REM compiler GCC version 9.2.1 20190827 (Red Hat 9.2.1-1)
REM options -cpp -mtune=generic -march=x86-64 -g -O0 -fpre-include=/usr/include/finclude/math-vector-fortran.h
REM seed -1918439474 1465148638 1529854887 1408165652 178751515 -1179342135 1938865713 -317458966 1616796245 -1872444194 -452899983 -939037937 -1628686866 -441775019 84142220 -1372795133 -723501036 -1287941457 1020164051 -1053871013 878266930 479201010 -1383173418 -42308168 836313425 -681146430 1812956099 -1188576576 -741161176 1866983236 1832003343 -1296655217 -1772898558
REM
CELL 1.54180   50.00000   50.00000   50.00000   90.00000   90.00000   90.00000
LATT -1
SFAC C  
C      1  0.4670790000000  0.4626950000000  0.4212790000000 1.0
C      1  0.5229910000000  0.5811330000000  0.4570780000000 1.0
C      1  0.5386440000000  0.4224220000000  0.4620060000000 1.0
C      1  0.5054680000000  0.4702530000000  0.4457860000000 1.0
C      1  0.4292030000000  0.5595340000000  0.5684110000000 1.0
C      1  0.4749560000000  0.5791930000000  0.4822280000000 1.0
C      1  0.5474260000000  0.5856270000000  0.4803840000000 1.0
C      1  0.4604870000000  0.5420470000000  0.4790800000000 1.0
C      1  0.4492480000000  0.4791080000000  0.5077920000000 1.0
C      1  0.4724390000000  0.4792180000000  0.4849670000000 1.0
C      1  0.4241980000000  0.5614640000000  0.5147770000000 1.0
C      1  0.4216430000000  0.4800720000000  0.5457460000000 1.0
C      1  0.5748870000000  0.5195400000000  0.4836450000000 1.0
C      1  0.4909890000000  0.5864280000000  0.5665700000000 1.0
C      1  0.5139050000000  0.4357990000000  0.5325520000000 1.0
C      1  0.5019160000000  0.5489730000000  0.3962190000000 1.0
C      1  0.4028170000000  0.5261150000000  0.4757600000000 1.0
C      1  0.5191230000000  0.3993660000000  0.4776020000000 1.0
C      1  0.4900280000000  0.5365040000000  0.4653230000000 1.0
C      1  0.5465200000000  0.4363690000000  0.5618620000000 1.0
C      1  0.4123240000000  0.5507190000000  0.4923480000000 1.0
C      1  0.4009320000000  0.5247470000000  0.5366850000000 1.0
C      1  0.5648370000000  0.5242090000000  0.4345250000000 1.0
C      1  0.4520410000000  0.4917510000000  0.5358980000000 1.0
C      1  0.4982030000000  0.4495300000000  0.4917830000000 1.0
C      1  0.4154110000000  0.4820130000000  0.4588810000000 1.0
C      1  0.4459790000000  0.5167120000000  0.4946670000000 1.0
C      1  0.5370190000000  0.5465380000000  0.5130450000000 1.0
C      1  0.5371200000000  0.5294730000000  0.4225320000000 1.0
C      1  0.4768240000000  0.4605770000000  0.4599830000000 1.0
C      1  0.5449290000000  0.4616270000000  0.4286300000000 1.0
C      1  0.4910270000000  0.5348300000000  0.4174490000000 1.0
C      1  0.4443650000000  0.5693530000000  0.4775580000000 1.0
C      1  0.5269400000000  0.5188530000000  0.5829930000000 1.0
C      1  0.3996910000000  0.4937370000000  0.5295280000000 1.0
C      1  0.5926920000000  0.4676020000000  0.4841580000000 1.0
C      1  0.4682270000000  0.5489410000000  0.4342870000000 1.0
C      1  0.5090370000000  0.4521410000000  0.5842170000000 1.0
C      1  0.5638740000000  0.5641990000000  0.5245120000000 1.0
C      1  0.3989060000000  0.4991170000000  0.4788000000000 1.0
C      1  0.4254480000000  0.5467200000000  0.4606350000000 1.0
C      1  0.5411680000000  0.4996970000000  0.5207630000000 1.0
C      1  0.5275740000000  0.4956710000000  0.4833960000000 1.0
C      1  0.5191760000000  0.4715510000000  0.6034030000000 1.0
C      1  0.5734130000000  0.5420870000000  0.4582340000000 1.0
C      1  0.4394870000000  0.5091170000000  0.4257960000000 1.0
C      1  0.5457890000000  0.5207800000000  0.4967300000000 1.0
C      1  0.4614160000000  0.4916410000000  0.4179540000000 1.0
C      1  0.5837550000000  0.5303620000000  0.5320900000000 1.0
C      1  0.5006850000000  0.4113300000000  0.5513610000000 1.0
C      1  0.5389360000000  0.3992840000000  0.5045700000000 1.0
C      1  0.5074820000000  0.4895250000000  0.4176850000000 1.0
C      1  0.5917470000000  0.5357040000000  0.5061040000000 1.0
C      1  0.4923840000000  0.4458760000000  0.4169330000000 1.0
C      1  0.4975190000000  0.5617350000000  0.4462330000000 1.0
C      1  0.4143160000000  0.5226560000000  0.5660550000000 1.0
C      1  0.5353640000000  0.5822410000000  0.5307090000000 1.0
C      1  0.4501860000000  0.4508080000000  0.4434780000000 1.0
C      1  0.5242410000000  0.4964120000000  0.4531880000000 1.0
C      1  0.5283950000000  0.5573860000000  0.4332690000000 1.0
C      1  0.4431920000000  0.5355630000000  0.4378940000000 1.0
C      1  0.5263460000000  0.4058220000000  0.5300280000000 1.0
C      1  0.4799100000000  0.5331100000000  0.5600100000000 1.0
C      1  0.4155190000000  0.4953310000000  0.4315930000000 1.0
C      1  0.5008290000000  0.3883260000000  0.5036450000000 1.0
C      1  0.5206960000000  0.4304440000000  0.5713390000000 1.0
C      1  0.4992000000000  0.4556000000000  0.5204550000000 1.0
C      1  0.4472520000000  0.5631410000000  0.5856230000000 1.0
C      1  0.4772410000000  0.4275270000000  0.5026040000000 1.0
C      1  0.5533540000000  0.5200100000000  0.5710060000000 1.0
C      1  0.4800790000000  0.5178480000000  0.4913590000000 1.0
C      1  0.4529400000000  0.4593900000000  0.5591620000000 1.0
C      1  0.5650310000000  0.4308990000000  0.5383170000000 1.0
C      1  0.4975670000000  0.5794780000000  0.4906040000000 1.0
C      1  0.5213810000000  0.4524480000000  0.4139110000000 1.0
C      1  0.5142580000000  0.4923740000000  0.5239730000000 1.0
C      1  0.5651410000000  0.4941770000000  0.5606510000000 1.0
C      1  0.5077290000000  0.4984900000000  0.5985250000000 1.0
C      1  0.4673580000000  0.5792840000000  0.5246470000000 1.0
C      1  0.4792670000000  0.4916850000000  0.5876970000000 1.0
C      1  0.4291670000000  0.4381150000000  0.4881390000000 1.0
C      1  0.5042280000000  0.4926990000000  0.5497490000000 1.0
C      1  0.4445100000000  0.5822080000000  0.5079520000000 1.0
C      1  0.5832390000000  0.4480840000000  0.4654530000000 1.0
C      1  0.5714180000000  0.5849740000000  0.5000260000000 1.0
C      1  0.4605110000000  0.4386530000000  0.4804030000000 1.0
C      1  0.5256020000000  0.5759530000000  0.5002040000000 1.0
C      1  0.5123050000000  0.4436720000000  0.4657530000000 1.0
C      1  0.4984380000000  0.4936060000000  0.4970030000000 1.0
C      1  0.4258370000000  0.4322900000000  0.5215210000000 1.0
C      1  0.5086240000000  0.5598610000000  0.5666390000000 1.0
C      1  0.4003440000000  0.4846580000000  0.5031630000000 1.0
C      1  0.5969800000000  0.5522730000000  0.4806180000000 1.0
C      1  0.5041210000000  0.5171970000000  0.5634150000000 1.0
C      1  0.5286230000000  0.5031270000000  0.4065500000000 1.0
C      1  0.5952850000000  0.5797580000000  0.4874310000000 1.0
C      1  0.5691690000000  0.4208410000000  0.4757370000000 1.0
C      1  0.5925900000000  0.4944400000000  0.4745880000000 1.0
C      1  0.5532120000000  0.5648220000000  0.4551450000000 1.0
C      1  0.5827430000000  0.4990200000000  0.4291270000000 1.0
C      1  0.5921760000000  0.4640570000000  0.5140790000000 1.0
C      1  0.4768980000000  0.5588960000000  0.5796720000000 1.0
C      1  0.5009820000000  0.4149900000000  0.4533670000000 1.0
C      1  0.5706910000000  0.4865950000000  0.5115280000000 1.0
C      1  0.4266480000000  0.4526500000000  0.4590670000000 1.0
C      1  0.4808810000000  0.5968860000000  0.5422330000000 1.0
C      1  0.4412940000000  0.4904470000000  0.4763470000000 1.0
C      1  0.4255310000000  0.5197160000000  0.5137580000000 1.0
C      1  0.4896200000000  0.4192660000000  0.4289850000000 1.0
C      1  0.4907750000000  0.4690390000000  0.5669100000000 1.0
C      1  0.5571710000000  0.4230550000000  0.5114510000000 1.0
C      1  0.5581340000000  0.4438550000000  0.4459900000000 1.0
C      1  0.6020260000000  0.4957500000000  0.4478340000000 1.0
C      1  0.4878970000000  0.4071710000000  0.5197530000000 1.0
C      1  0.4333950000000  0.5474790000000  0.5409850000000 1.0
C      1  0.5514730000000  0.5758250000000  0.5600860000000 1.0
C      1  0.5777740000000  0.5034650000000  0.5363260000000 1.0
C      1  0.5655430000000  0.4641750000000  0.5603460000000 1.0
C      1  0.5511720000000  0.4909430000000  0.4369070000000 1.0
C      1  0.5874420000000  0.4511160000000  0.5387920000000 1.0
C      1  0.4288650000000  0.4481840000000  0.5435990000000 1.0
C      1  0.4849060000000  0.5050200000000  0.4142540000000 1.0
C      1  0.4762090000000  0.4673750000000  0.5372380000000 1.0
C      1  0.5522410000000  0.4465030000000  0.4906350000000 1.0
C      1  0.5103140000000  0.5230960000000  0.4429270000000 1.0
C      1  0.4215870000000  0.4659980000000  0.5010120000000 1.0
C      1  0.4546750000000  0.5208060000000  0.5411110000000 1.0
C      1  0.4689760000000  0.5508780000000  0.5336050000000 1.0
C      1  0.5664340000000  0.5464730000000  0.5540060000000 1.0
C      1  0.4288550000000  0.4996180000000  0.5702110000000 1.0
C      1  0.5229200000000  0.5536840000000  0.5434180000000 1.0
C      1  0.4521450000000  0.4834230000000  0.5773240000000 1.0
C      1  0.3810330000000  0.5434230000000  0.5325790000000 1.0
C      1  0.5492600000000  0.4738300000000  0.4918780000000 1.0
END
