TITL C-2778427-5640-1128 0.00495259605148743 125000 -1123.67240531393 0 0 194 (C1) n - 1
REM
REM in /home/nfs/bkarasulu/CARBON/AIRSS/Generating-Clusters/REBO/Only-C1/SD-CG/HFTN-CG
REM
REM
REM
REM
REM
REM ./C.cell (11c1c37f851c82e70ff6c80c92926a4b)
REM
REM compiler GCC version 9.2.1 20190827 (Red Hat 9.2.1-1)
REM options -cpp -mtune=generic -march=x86-64 -g -O0 -fpre-include=/usr/include/finclude/math-vector-fortran.h
REM seed 855479305 743014543 34929668 1566887303 2099846003 -908497180 959363608 417650685 -1382743682 1028292814 1699051779 1897147911 -2085414125 953155771 384457521 -918070405 1375929963 790646248 -336613784 701608108 1570381128 -1667660679 -855009757 -877034290 2126021102 -1681630473 -2051724606 -693649894 126510109 -1001113696 1776047435 783864962 969309357
REM
CELL 1.54180   50.00000   50.00000   50.00000   90.00000   90.00000   90.00000
LATT -1
SFAC C  
C      1  0.4574940000000  0.4632320000000  0.4080960000000 1.0
C      1  0.4707220000000  0.4515470000000  0.4946880000000 1.0
C      1  0.5424810000000  0.5265920000000  0.5125930000000 1.0
C      1  0.5646740000000  0.5144370000000  0.4119930000000 1.0
C      1  0.4936840000000  0.4012310000000  0.5429400000000 1.0
C      1  0.5888520000000  0.5407500000000  0.4633220000000 1.0
C      1  0.5560560000000  0.4293390000000  0.4380760000000 1.0
C      1  0.4727000000000  0.4830810000000  0.4878210000000 1.0
C      1  0.5975280000000  0.5313500000000  0.5449810000000 1.0
C      1  0.4702650000000  0.5311190000000  0.5018680000000 1.0
C      1  0.5474550000000  0.4111550000000  0.4595990000000 1.0
C      1  0.5482230000000  0.4973340000000  0.5241170000000 1.0
C      1  0.4489130000000  0.5985860000000  0.4353000000000 1.0
C      1  0.4194110000000  0.4860780000000  0.4810490000000 1.0
C      1  0.5095460000000  0.5118630000000  0.4964710000000 1.0
C      1  0.5800960000000  0.4463570000000  0.4443770000000 1.0
C      1  0.4055090000000  0.4430410000000  0.5444540000000 1.0
C      1  0.5032250000000  0.4832160000000  0.5669730000000 1.0
C      1  0.5325870000000  0.4687360000000  0.4740820000000 1.0
C      1  0.4339420000000  0.4386730000000  0.4728200000000 1.0
C      1  0.4289930000000  0.5911320000000  0.4711430000000 1.0
C      1  0.5958220000000  0.5513800000000  0.4927300000000 1.0
C      1  0.5938630000000  0.5128880000000  0.4831850000000 1.0
C      1  0.5893380000000  0.5643980000000  0.5467660000000 1.0
C      1  0.4216070000000  0.5655600000000  0.4498700000000 1.0
C      1  0.4835800000000  0.4202400000000  0.4259040000000 1.0
C      1  0.5841890000000  0.4702640000000  0.4293320000000 1.0
C      1  0.4818970000000  0.5095860000000  0.3940190000000 1.0
C      1  0.4852280000000  0.4312900000000  0.4712990000000 1.0
C      1  0.4579170000000  0.4467040000000  0.4572910000000 1.0
C      1  0.5840680000000  0.5204190000000  0.4393500000000 1.0
C      1  0.5404830000000  0.5827410000000  0.5566890000000 1.0
C      1  0.4930210000000  0.4702170000000  0.6127590000000 1.0
C      1  0.4141540000000  0.4569970000000  0.5659880000000 1.0
C      1  0.4896960000000  0.4527940000000  0.4043700000000 1.0
C      1  0.5021050000000  0.5215290000000  0.4638320000000 1.0
C      1  0.5198900000000  0.5540190000000  0.5830310000000 1.0
C      1  0.5346890000000  0.5976480000000  0.4980330000000 1.0
C      1  0.4652420000000  0.5563890000000  0.5256890000000 1.0
C      1  0.4979090000000  0.5853380000000  0.4890550000000 1.0
C      1  0.5413110000000  0.4844830000000  0.5553270000000 1.0
C      1  0.5477850000000  0.4756120000000  0.4443680000000 1.0
C      1  0.5463420000000  0.5033050000000  0.6037500000000 1.0
C      1  0.4863100000000  0.6136840000000  0.5320070000000 1.0
C      1  0.5208530000000  0.4843800000000  0.6164380000000 1.0
C      1  0.4641580000000  0.5132590000000  0.4732120000000 1.0
C      1  0.4305520000000  0.4929320000000  0.5596900000000 1.0
C      1  0.4742490000000  0.4521400000000  0.5275400000000 1.0
C      1  0.4546180000000  0.6069920000000  0.5294240000000 1.0
C      1  0.5631480000000  0.5343010000000  0.5457690000000 1.0
C      1  0.4839000000000  0.5587360000000  0.5993700000000 1.0
C      1  0.4280000000000  0.5550780000000  0.4879120000000 1.0
C      1  0.4824290000000  0.4509990000000  0.4367090000000 1.0
C      1  0.5154810000000  0.4526370000000  0.4988850000000 1.0
C      1  0.5257540000000  0.4230520000000  0.4907480000000 1.0
C      1  0.5689260000000  0.5448810000000  0.5905200000000 1.0
C      1  0.5782400000000  0.4717250000000  0.5614970000000 1.0
C      1  0.5592930000000  0.3799670000000  0.5260410000000 1.0
C      1  0.4098980000000  0.4402150000000  0.5177130000000 1.0
C      1  0.5349710000000  0.5590930000000  0.4086640000000 1.0
C      1  0.4856290000000  0.5501500000000  0.3934560000000 1.0
C      1  0.4495230000000  0.4735570000000  0.4394990000000 1.0
C      1  0.4758120000000  0.5089760000000  0.5534250000000 1.0
C      1  0.5508700000000  0.5737340000000  0.5071810000000 1.0
C      1  0.5080450000000  0.5816340000000  0.5679400000000 1.0
C      1  0.4959600000000  0.5873700000000  0.4259910000000 1.0
C      1  0.4408150000000  0.5224930000000  0.4093820000000 1.0
C      1  0.4861740000000  0.5027560000000  0.4235310000000 1.0
C      1  0.4042880000000  0.4352320000000  0.4891100000000 1.0
C      1  0.4480990000000  0.4737010000000  0.5486500000000 1.0
C      1  0.5084340000000  0.4938220000000  0.5194580000000 1.0
C      1  0.5085140000000  0.5057450000000  0.5861760000000 1.0
C      1  0.5074510000000  0.6084830000000  0.5113110000000 1.0
C      1  0.5059370000000  0.5578340000000  0.5304070000000 1.0
C      1  0.4038980000000  0.5093930000000  0.4528670000000 1.0
C      1  0.5680620000000  0.4865020000000  0.4679230000000 1.0
C      1  0.4958120000000  0.5507580000000  0.5592960000000 1.0
C      1  0.5154260000000  0.4919000000000  0.4274120000000 1.0
C      1  0.5682070000000  0.4675980000000  0.4922120000000 1.0
C      1  0.5515130000000  0.5307040000000  0.4381640000000 1.0
C      1  0.5330270000000  0.5278950000000  0.5859410000000 1.0
C      1  0.4758880000000  0.5840180000000  0.5433650000000 1.0
C      1  0.6020270000000  0.4864000000000  0.5118280000000 1.0
C      1  0.4540920000000  0.5278330000000  0.5409230000000 1.0
C      1  0.5162990000000  0.3934300000000  0.4977710000000 1.0
C      1  0.4502200000000  0.4402980000000  0.5454670000000 1.0
C      1  0.4708630000000  0.4026930000000  0.5264730000000 1.0
C      1  0.4395430000000  0.4387850000000  0.4226640000000 1.0
C      1  0.5320100000000  0.4995980000000  0.4779450000000 1.0
C      1  0.5881680000000  0.4333360000000  0.4923460000000 1.0
C      1  0.5781270000000  0.5694470000000  0.5026020000000 1.0
C      1  0.5261810000000  0.5502540000000  0.4498890000000 1.0
C      1  0.4375590000000  0.5775230000000  0.5315230000000 1.0
C      1  0.4740770000000  0.5803060000000  0.5747080000000 1.0
C      1  0.4459000000000  0.4129140000000  0.5345700000000 1.0
C      1  0.5731140000000  0.5837930000000  0.5466030000000 1.0
C      1  0.4533660000000  0.4962070000000  0.4018410000000 1.0
C      1  0.5506100000000  0.4428550000000  0.4834290000000 1.0
C      1  0.5956490000000  0.4496070000000  0.4696600000000 1.0
C      1  0.5015410000000  0.5382570000000  0.4336520000000 1.0
C      1  0.6056980000000  0.4809490000000  0.4788430000000 1.0
C      1  0.5265270000000  0.4202280000000  0.5303130000000 1.0
C      1  0.5090620000000  0.5281960000000  0.4034400000000 1.0
C      1  0.4456530000000  0.4709530000000  0.5994610000000 1.0
C      1  0.4077840000000  0.5374950000000  0.4718040000000 1.0
C      1  0.5128420000000  0.4118890000000  0.4624820000000 1.0
C      1  0.5092290000000  0.5086550000000  0.5466720000000 1.0
C      1  0.5512110000000  0.4026700000000  0.5149430000000 1.0
C      1  0.4442810000000  0.5540710000000  0.4332750000000 1.0
C      1  0.4662940000000  0.5841320000000  0.4188740000000 1.0
C      1  0.5717070000000  0.5171990000000  0.5901480000000 1.0
C      1  0.5949120000000  0.4926790000000  0.4487450000000 1.0
C      1  0.4471500000000  0.5628660000000  0.5607330000000 1.0
C      1  0.4194980000000  0.5452790000000  0.5153980000000 1.0
C      1  0.4688910000000  0.5100380000000  0.5854430000000 1.0
C      1  0.5315110000000  0.4297260000000  0.4195040000000 1.0
C      1  0.4550650000000  0.4155110000000  0.4311800000000 1.0
C      1  0.6068330000000  0.4533670000000  0.5337240000000 1.0
C      1  0.4905270000000  0.4434950000000  0.6064590000000 1.0
C      1  0.4491980000000  0.3984680000000  0.4547440000000 1.0
C      1  0.4689930000000  0.5412650000000  0.5754610000000 1.0
C      1  0.5384300000000  0.4760840000000  0.5882320000000 1.0
C      1  0.5850750000000  0.5047250000000  0.5627030000000 1.0
C      1  0.4966590000000  0.5958140000000  0.4574000000000 1.0
C      1  0.5386150000000  0.5183200000000  0.5565470000000 1.0
C      1  0.4196360000000  0.5330280000000  0.4340500000000 1.0
C      1  0.4443550000000  0.4474050000000  0.5783580000000 1.0
C      1  0.4997340000000  0.5423790000000  0.5019830000000 1.0
C      1  0.5292110000000  0.5107180000000  0.4470550000000 1.0
C      1  0.5640430000000  0.4127190000000  0.4887450000000 1.0
C      1  0.4774660000000  0.4386350000000  0.5780690000000 1.0
C      1  0.4797250000000  0.4095740000000  0.4969510000000 1.0
C      1  0.5604790000000  0.4838650000000  0.4137180000000 1.0
C      1  0.5402360000000  0.5310420000000  0.3998390000000 1.0
C      1  0.4752270000000  0.5538950000000  0.4317050000000 1.0
C      1  0.5580390000000  0.4609710000000  0.5362210000000 1.0
C      1  0.5218750000000  0.5873440000000  0.5308900000000 1.0
C      1  0.5492510000000  0.5908740000000  0.4511050000000 1.0
C      1  0.4271860000000  0.4081070000000  0.4707580000000 1.0
C      1  0.4185280000000  0.4788780000000  0.4494970000000 1.0
C      1  0.5003540000000  0.4257880000000  0.5598530000000 1.0
C      1  0.4998990000000  0.3835500000000  0.4742940000000 1.0
C      1  0.4713790000000  0.5769320000000  0.4992520000000 1.0
C      1  0.4333430000000  0.5166090000000  0.4784890000000 1.0
C      1  0.5487250000000  0.5453640000000  0.4751990000000 1.0
C      1  0.4382230000000  0.4488590000000  0.5046260000000 1.0
C      1  0.4304130000000  0.5331300000000  0.5622490000000 1.0
C      1  0.4426710000000  0.5129500000000  0.5123480000000 1.0
C      1  0.4706400000000  0.5424730000000  0.4607120000000 1.0
C      1  0.5731870000000  0.5265420000000  0.5143120000000 1.0
C      1  0.5601970000000  0.5170980000000  0.4780560000000 1.0
C      1  0.4178240000000  0.4494760000000  0.4358900000000 1.0
C      1  0.4714780000000  0.4849280000000  0.6022080000000 1.0
C      1  0.4067720000000  0.5129900000000  0.5481150000000 1.0
C      1  0.4441230000000  0.4802650000000  0.5027760000000 1.0
C      1  0.5313670000000  0.4764210000000  0.4080040000000 1.0
C      1  0.5287910000000  0.5993720000000  0.4681570000000 1.0
C      1  0.4630970000000  0.5932300000000  0.4638040000000 1.0
C      1  0.6060100000000  0.5264330000000  0.5122650000000 1.0
C      1  0.4232090000000  0.4916850000000  0.5935910000000 1.0
C      1  0.4970530000000  0.4312900000000  0.5168040000000 1.0
C      1  0.4382390000000  0.5193890000000  0.5884720000000 1.0
C      1  0.5194000000000  0.4513320000000  0.4032300000000 1.0
C      1  0.4948980000000  0.4883790000000  0.4681260000000 1.0
C      1  0.4819060000000  0.4827680000000  0.5333750000000 1.0
C      1  0.4580030000000  0.5432930000000  0.3972870000000 1.0
C      1  0.5350600000000  0.5526730000000  0.5170290000000 1.0
C      1  0.5294570000000  0.4699400000000  0.5201150000000 1.0
C      1  0.4757540000000  0.4674770000000  0.5643160000000 1.0
C      1  0.5833120000000  0.4518510000000  0.5184690000000 1.0
C      1  0.5103390000000  0.4130850000000  0.4310380000000 1.0
C      1  0.3954820000000  0.5094110000000  0.4869230000000 1.0
C      1  0.4168300000000  0.3976840000000  0.4948260000000 1.0
C      1  0.5076890000000  0.5679520000000  0.4075780000000 1.0
C      1  0.5541410000000  0.4519520000000  0.5745060000000 1.0
C      1  0.4999110000000  0.4731630000000  0.4464360000000 1.0
C      1  0.4657570000000  0.4989580000000  0.4429860000000 1.0
C      1  0.4703780000000  0.3889700000000  0.4714930000000 1.0
C      1  0.5180950000000  0.5593500000000  0.4814690000000 1.0
C      1  0.4235720000000  0.4027740000000  0.5208840000000 1.0
C      1  0.3992390000000  0.4873930000000  0.5697810000000 1.0
C      1  0.5819700000000  0.4980730000000  0.5293050000000 1.0
C      1  0.4983250000000  0.5433520000000  0.6168960000000 1.0
C      1  0.5160380000000  0.3883800000000  0.5272270000000 1.0
C      1  0.5115150000000  0.4568930000000  0.5511500000000 1.0
C      1  0.4190470000000  0.5829340000000  0.5032500000000 1.0
C      1  0.4556630000000  0.5622450000000  0.4765310000000 1.0
C      1  0.5339510000000  0.4341950000000  0.5590160000000 1.0
C      1  0.5674790000000  0.5635030000000  0.4557700000000 1.0
C      1  0.4085830000000  0.5170090000000  0.5175020000000 1.0
C      1  0.5521600000000  0.5709990000000  0.4268560000000 1.0
C      1  0.4469850000000  0.5993610000000  0.4994310000000 1.0
C      1  0.5089730000000  0.5168310000000  0.6158760000000 1.0
C      1  0.5564520000000  0.5550310000000  0.5682410000000 1.0
END
