TITL C-2778425-5191-1193 -0.00264038595989335 125000 -814.877454543195 0 0 142 (C1) n - 1
REM
REM in /home/nfs/bkarasulu/CARBON/AIRSS/Generating-Clusters/REBO/Only-C1/SD-CG/HFTN-CG
REM
REM
REM
REM
REM
REM ./C.cell (11c1c37f851c82e70ff6c80c92926a4b)
REM
REM compiler GCC version 9.2.1 20190827 (Red Hat 9.2.1-1)
REM options -cpp -mtune=generic -march=x86-64 -g -O0 -fpre-include=/usr/include/finclude/math-vector-fortran.h
REM seed -1497841416 1886700061 987214640 -1604301700 -1083397362 -1995374548 1941106371 -1992845149 144869928 -1467451313 849282080 1599727754 -1242134101 1341162109 990356811 -1453050598 -488022923 -112417887 960971118 -910367513 -778128390 -267428268 -823606551 2109693620 -1159847461 449532358 1746408303 -1075023927 -1345031702 -524760154 1503139205 -677471169 954039226
REM
CELL 1.54180   50.00000   50.00000   50.00000   90.00000   90.00000   90.00000
LATT -1
SFAC C  
C      1  0.5748130000000  0.4276850000000  0.5259690000000 1.0
C      1  0.4730040000000  0.5812540000000  0.5322760000000 1.0
C      1  0.5475790000000  0.5057610000000  0.4760750000000 1.0
C      1  0.4605980000000  0.4883230000000  0.4620140000000 1.0
C      1  0.4619530000000  0.5223450000000  0.4228210000000 1.0
C      1  0.4802350000000  0.5097390000000  0.4891010000000 1.0
C      1  0.5717350000000  0.5466380000000  0.5121530000000 1.0
C      1  0.5147190000000  0.4481890000000  0.4272140000000 1.0
C      1  0.5551430000000  0.4386590000000  0.5014350000000 1.0
C      1  0.4522660000000  0.4355420000000  0.4431080000000 1.0
C      1  0.3906280000000  0.4907450000000  0.5419670000000 1.0
C      1  0.4623610000000  0.4763520000000  0.5286450000000 1.0
C      1  0.4286040000000  0.4954880000000  0.5092040000000 1.0
C      1  0.4433640000000  0.5234190000000  0.5201830000000 1.0
C      1  0.4304870000000  0.4741070000000  0.5361420000000 1.0
C      1  0.3973170000000  0.4830210000000  0.5161670000000 1.0
C      1  0.5457260000000  0.4148040000000  0.5318960000000 1.0
C      1  0.4102550000000  0.5392710000000  0.4792230000000 1.0
C      1  0.4799570000000  0.5013950000000  0.4427780000000 1.0
C      1  0.4142610000000  0.4671190000000  0.4849590000000 1.0
C      1  0.4791650000000  0.4297390000000  0.5162360000000 1.0
C      1  0.4428480000000  0.4567200000000  0.4903680000000 1.0
C      1  0.4628940000000  0.4255180000000  0.5524510000000 1.0
C      1  0.4828560000000  0.4575760000000  0.5158840000000 1.0
C      1  0.5013980000000  0.5615910000000  0.4923640000000 1.0
C      1  0.5356720000000  0.5480030000000  0.4474790000000 1.0
C      1  0.4942360000000  0.4480820000000  0.5875220000000 1.0
C      1  0.4131290000000  0.4526100000000  0.5159480000000 1.0
C      1  0.5212100000000  0.5253790000000  0.4669910000000 1.0
C      1  0.5465250000000  0.4534100000000  0.5683900000000 1.0
C      1  0.4818350000000  0.5683670000000  0.5626830000000 1.0
C      1  0.5629640000000  0.5675110000000  0.4914240000000 1.0
C      1  0.4929890000000  0.4976650000000  0.5930010000000 1.0
C      1  0.5085920000000  0.4883460000000  0.5453670000000 1.0
C      1  0.4357110000000  0.4820420000000  0.4458220000000 1.0
C      1  0.4580790000000  0.5869730000000  0.5048120000000 1.0
C      1  0.4663530000000  0.4646690000000  0.4790460000000 1.0
C      1  0.5499160000000  0.6044090000000  0.5381050000000 1.0
C      1  0.5338080000000  0.4263350000000  0.4349820000000 1.0
C      1  0.5615360000000  0.5179740000000  0.5023110000000 1.0
C      1  0.4698250000000  0.5365470000000  0.5373210000000 1.0
C      1  0.4390710000000  0.4568730000000  0.4268680000000 1.0
C      1  0.5236880000000  0.4354920000000  0.5404210000000 1.0
C      1  0.5328400000000  0.4545060000000  0.5154380000000 1.0
C      1  0.5093310000000  0.5209060000000  0.5936600000000 1.0
C      1  0.5361500000000  0.5146800000000  0.5777530000000 1.0
C      1  0.4843210000000  0.4735290000000  0.4236950000000 1.0
C      1  0.5250870000000  0.5400490000000  0.4156330000000 1.0
C      1  0.4416610000000  0.5519390000000  0.4471530000000 1.0
C      1  0.4275650000000  0.5470260000000  0.5042180000000 1.0
C      1  0.4629540000000  0.4764820000000  0.5604890000000 1.0
C      1  0.5388420000000  0.5800050000000  0.4507790000000 1.0
C      1  0.4570860000000  0.5475430000000  0.4915730000000 1.0
C      1  0.4123990000000  0.5794920000000  0.4859980000000 1.0
C      1  0.4917210000000  0.3969710000000  0.4882440000000 1.0
C      1  0.4314970000000  0.5177480000000  0.4294240000000 1.0
C      1  0.5104790000000  0.4724580000000  0.4036150000000 1.0
C      1  0.5213000000000  0.4311020000000  0.4815270000000 1.0
C      1  0.5298250000000  0.5094530000000  0.4405800000000 1.0
C      1  0.5037360000000  0.5735170000000  0.5301030000000 1.0
C      1  0.5657380000000  0.5697060000000  0.4617340000000 1.0
C      1  0.4995220000000  0.5522810000000  0.4320320000000 1.0
C      1  0.4639310000000  0.6029390000000  0.5542580000000 1.0
C      1  0.5369630000000  0.4815490000000  0.5806360000000 1.0
C      1  0.5881750000000  0.4994500000000  0.5087570000000 1.0
C      1  0.5316600000000  0.5120060000000  0.5445430000000 1.0
C      1  0.5819140000000  0.4657590000000  0.4882250000000 1.0
C      1  0.4703110000000  0.5002280000000  0.5748230000000 1.0
C      1  0.5208110000000  0.5994530000000  0.5204590000000 1.0
C      1  0.5156660000000  0.5618940000000  0.5660980000000 1.0
C      1  0.5411910000000  0.4280740000000  0.5755940000000 1.0
C      1  0.5859380000000  0.4944850000000  0.4751680000000 1.0
C      1  0.4561350000000  0.5704540000000  0.4258080000000 1.0
C      1  0.4611850000000  0.5406730000000  0.4650720000000 1.0
C      1  0.4677920000000  0.5312430000000  0.5671970000000 1.0
C      1  0.5039410000000  0.4581550000000  0.5561460000000 1.0
C      1  0.4504800000000  0.5900790000000  0.4530820000000 1.0
C      1  0.5932340000000  0.4490510000000  0.5066400000000 1.0
C      1  0.4753100000000  0.4175810000000  0.4778730000000 1.0
C      1  0.5299980000000  0.5141010000000  0.5109850000000 1.0
C      1  0.4945550000000  0.5444120000000  0.5833370000000 1.0
C      1  0.5281530000000  0.3995990000000  0.4316920000000 1.0
C      1  0.4162660000000  0.4991930000000  0.5546520000000 1.0
C      1  0.4295310000000  0.5868820000000  0.5063850000000 1.0
C      1  0.4737100000000  0.4982070000000  0.4036850000000 1.0
C      1  0.5085530000000  0.5773080000000  0.4480260000000 1.0
C      1  0.5311680000000  0.4574900000000  0.4755930000000 1.0
C      1  0.4798330000000  0.5503520000000  0.5078480000000 1.0
C      1  0.5070830000000  0.4680700000000  0.5056620000000 1.0
C      1  0.5550700000000  0.5287930000000  0.4276060000000 1.0
C      1  0.5755300000000  0.5489070000000  0.4456800000000 1.0
C      1  0.4525080000000  0.4193100000000  0.5249270000000 1.0
C      1  0.4974370000000  0.5230440000000  0.4048790000000 1.0
C      1  0.4464730000000  0.5082200000000  0.4832280000000 1.0
C      1  0.5610100000000  0.4309720000000  0.4761770000000 1.0
C      1  0.4331710000000  0.4282450000000  0.5025300000000 1.0
C      1  0.5636820000000  0.4868380000000  0.5559050000000 1.0
C      1  0.4468170000000  0.4220270000000  0.4715250000000 1.0
C      1  0.5186800000000  0.4052470000000  0.4921540000000 1.0
C      1  0.4117970000000  0.4856860000000  0.4645970000000 1.0
C      1  0.4898580000000  0.5299810000000  0.4545750000000 1.0
C      1  0.6109460000000  0.5200350000000  0.5141920000000 1.0
C      1  0.4939200000000  0.5798700000000  0.4723260000000 1.0
C      1  0.5230660000000  0.5900560000000  0.5533200000000 1.0
C      1  0.5383840000000  0.5418410000000  0.5573530000000 1.0
C      1  0.4577330000000  0.5596540000000  0.5827360000000 1.0
C      1  0.4168190000000  0.5485220000000  0.5358860000000 1.0
C      1  0.5561870000000  0.4373560000000  0.4490180000000 1.0
C      1  0.4945370000000  0.4252530000000  0.5547780000000 1.0
C      1  0.4974010000000  0.4273540000000  0.6051700000000 1.0
C      1  0.4923020000000  0.4463520000000  0.4709910000000 1.0
C      1  0.5380840000000  0.4726640000000  0.5417070000000 1.0
C      1  0.5234600000000  0.5009760000000  0.4081840000000 1.0
C      1  0.5154210000000  0.5420810000000  0.5239860000000 1.0
C      1  0.5659150000000  0.4946880000000  0.4494910000000 1.0
C      1  0.5093140000000  0.4748500000000  0.5919810000000 1.0
C      1  0.5090300000000  0.4974200000000  0.4926440000000 1.0
C      1  0.4752340000000  0.5487030000000  0.4133210000000 1.0
C      1  0.5084080000000  0.4766320000000  0.4668920000000 1.0
C      1  0.4425630000000  0.4887090000000  0.4142270000000 1.0
C      1  0.4671660000000  0.5027430000000  0.5169690000000 1.0
C      1  0.4831870000000  0.4447590000000  0.4388460000000 1.0
C      1  0.5635000000000  0.4624630000000  0.4401930000000 1.0
C      1  0.5954420000000  0.4503250000000  0.5398350000000 1.0
C      1  0.5261800000000  0.4767300000000  0.4397490000000 1.0
C      1  0.5799430000000  0.4726810000000  0.5788450000000 1.0
C      1  0.4201510000000  0.5273000000000  0.5532920000000 1.0
C      1  0.5840470000000  0.4805790000000  0.5318970000000 1.0
C      1  0.4949460000000  0.5154870000000  0.5300040000000 1.0
C      1  0.5587790000000  0.5528480000000  0.5404230000000 1.0
C      1  0.4679250000000  0.5901220000000  0.4770590000000 1.0
C      1  0.5187950000000  0.4124330000000  0.5726630000000 1.0
C      1  0.5311590000000  0.5637790000000  0.5028740000000 1.0
C      1  0.4674580000000  0.4501880000000  0.5702370000000 1.0
C      1  0.5533570000000  0.4725000000000  0.4801940000000 1.0
C      1  0.6026390000000  0.5440380000000  0.5151280000000 1.0
C      1  0.5525340000000  0.4859980000000  0.4189330000000 1.0
C      1  0.5954090000000  0.4538920000000  0.5706160000000 1.0
C      1  0.4229780000000  0.5170790000000  0.4600250000000 1.0
C      1  0.5364200000000  0.3972560000000  0.5127870000000 1.0
C      1  0.4227180000000  0.5742260000000  0.4601980000000 1.0
C      1  0.5496600000000  0.5925250000000  0.5062320000000 1.0
END
