TITL C-2778437-8639-74 -0.00020951653141304 125000 -877.657481783046 0 0 150 (C1) n - 1
REM
REM in /home/nfs/bkarasulu/CARBON/AIRSS/Generating-Clusters/REBO/Only-C1/SD-CG/HFTN-CG
REM
REM
REM
REM
REM
REM ./C.cell (11c1c37f851c82e70ff6c80c92926a4b)
REM
REM compiler GCC version 9.2.1 20190827 (Red Hat 9.2.1-1)
REM options -cpp -mtune=generic -march=x86-64 -g -O0 -fpre-include=/usr/include/finclude/math-vector-fortran.h
REM seed 1591956562 -767010066 513870260 -301064173 1635621634 635709340 1809367525 2117443539 913002639 -735688106 1881656438 1224749484 -365356143 -1144191020 1260999447 1068283664 472799299 -300018713 -1141381065 -476320493 1749547349 -516589167 1877662046 -232386722 -966091329 -2122896234 -971015296 1751609088 -860710121 -883988251 1245689800 -899059193 -1782592273
REM
CELL 1.54180   50.00000   50.00000   50.00000   90.00000   90.00000   90.00000
LATT -1
SFAC C  
C      1  0.4090890000000  0.4882260000000  0.4520540000000 1.0
C      1  0.5170560000000  0.4023180000000  0.5504510000000 1.0
C      1  0.5264440000000  0.5160610000000  0.5061080000000 1.0
C      1  0.5170360000000  0.5095240000000  0.4663820000000 1.0
C      1  0.4588330000000  0.5448150000000  0.5073080000000 1.0
C      1  0.5375550000000  0.4524630000000  0.4384250000000 1.0
C      1  0.4265670000000  0.4983160000000  0.6009540000000 1.0
C      1  0.5377010000000  0.4281300000000  0.3863340000000 1.0
C      1  0.4189870000000  0.5130820000000  0.5645750000000 1.0
C      1  0.5559560000000  0.5028060000000  0.4282020000000 1.0
C      1  0.5601560000000  0.4549340000000  0.5084940000000 1.0
C      1  0.4182200000000  0.5687980000000  0.4961090000000 1.0
C      1  0.5184220000000  0.5147910000000  0.4345370000000 1.0
C      1  0.5048450000000  0.4423880000000  0.4344800000000 1.0
C      1  0.5452170000000  0.5574290000000  0.4443260000000 1.0
C      1  0.4648480000000  0.5826380000000  0.4572160000000 1.0
C      1  0.5164720000000  0.6097280000000  0.4921770000000 1.0
C      1  0.4092430000000  0.4444470000000  0.4685060000000 1.0
C      1  0.4379430000000  0.5331940000000  0.5633470000000 1.0
C      1  0.4483240000000  0.4184530000000  0.5101800000000 1.0
C      1  0.4842200000000  0.5310090000000  0.4976950000000 1.0
C      1  0.4208720000000  0.4701960000000  0.5304520000000 1.0
C      1  0.5349790000000  0.4320810000000  0.4623240000000 1.0
C      1  0.4675090000000  0.4327030000000  0.5631620000000 1.0
C      1  0.4981200000000  0.5012400000000  0.5010520000000 1.0
C      1  0.4646800000000  0.5747940000000  0.5565160000000 1.0
C      1  0.4645690000000  0.4901070000000  0.4180560000000 1.0
C      1  0.5707400000000  0.5396990000000  0.5088120000000 1.0
C      1  0.5291640000000  0.4986520000000  0.4075160000000 1.0
C      1  0.4557090000000  0.4233450000000  0.4411520000000 1.0
C      1  0.4138350000000  0.4877340000000  0.5585250000000 1.0
C      1  0.4586310000000  0.5531130000000  0.5732970000000 1.0
C      1  0.5591240000000  0.5714200000000  0.5074520000000 1.0
C      1  0.4889120000000  0.5831710000000  0.4814680000000 1.0
C      1  0.5104920000000  0.4715520000000  0.4077940000000 1.0
C      1  0.5692290000000  0.5111120000000  0.4584870000000 1.0
C      1  0.4732010000000  0.5132320000000  0.5958460000000 1.0
C      1  0.5209930000000  0.4060470000000  0.4533030000000 1.0
C      1  0.5900270000000  0.4896570000000  0.4664040000000 1.0
C      1  0.4631840000000  0.5415600000000  0.4159770000000 1.0
C      1  0.5165580000000  0.4460930000000  0.4855990000000 1.0
C      1  0.4952770000000  0.4667390000000  0.5901880000000 1.0
C      1  0.5163290000000  0.5398730000000  0.5230250000000 1.0
C      1  0.5024690000000  0.5563760000000  0.4352640000000 1.0
C      1  0.5569370000000  0.5614440000000  0.4762870000000 1.0
C      1  0.4950420000000  0.4039720000000  0.5303460000000 1.0
C      1  0.5894200000000  0.4350580000000  0.5248670000000 1.0
C      1  0.5001730000000  0.4583410000000  0.5371750000000 1.0
C      1  0.5141240000000  0.4797370000000  0.5676840000000 1.0
C      1  0.5797750000000  0.5426940000000  0.5615670000000 1.0
C      1  0.5621550000000  0.4342900000000  0.5425050000000 1.0
C      1  0.3980260000000  0.4704750000000  0.4722890000000 1.0
C      1  0.5056490000000  0.4852450000000  0.4368900000000 1.0
C      1  0.4783380000000  0.5056680000000  0.4753430000000 1.0
C      1  0.5634630000000  0.4332990000000  0.4750360000000 1.0
C      1  0.4131540000000  0.5435640000000  0.5163490000000 1.0
C      1  0.5445360000000  0.5812750000000  0.5576540000000 1.0
C      1  0.5456430000000  0.5154890000000  0.4809860000000 1.0
C      1  0.4212440000000  0.5293310000000  0.4465590000000 1.0
C      1  0.5879830000000  0.4919610000000  0.5162970000000 1.0
C      1  0.5103210000000  0.5596920000000  0.5570160000000 1.0
C      1  0.5911440000000  0.4618040000000  0.5032220000000 1.0
C      1  0.5260920000000  0.5228630000000  0.5616420000000 1.0
C      1  0.5183020000000  0.5177680000000  0.5915080000000 1.0
C      1  0.4514160000000  0.5161360000000  0.4356890000000 1.0
C      1  0.4660690000000  0.4034890000000  0.4876970000000 1.0
C      1  0.5611490000000  0.4902170000000  0.5709750000000 1.0
C      1  0.4979110000000  0.5369540000000  0.4601170000000 1.0
C      1  0.4540890000000  0.4621380000000  0.4501550000000 1.0
C      1  0.5372590000000  0.5538770000000  0.5392520000000 1.0
C      1  0.4691620000000  0.4051660000000  0.4591950000000 1.0
C      1  0.4647950000000  0.5277760000000  0.5429680000000 1.0
C      1  0.4371260000000  0.4404760000000  0.5341110000000 1.0
C      1  0.4953370000000  0.5830820000000  0.4428190000000 1.0
C      1  0.5237830000000  0.5914160000000  0.5367160000000 1.0
C      1  0.4482080000000  0.4987920000000  0.5358450000000 1.0
C      1  0.4976090000000  0.4991020000000  0.5983420000000 1.0
C      1  0.5678710000000  0.5179200000000  0.5267850000000 1.0
C      1  0.3908360000000  0.5256810000000  0.5049500000000 1.0
C      1  0.5130710000000  0.5980250000000  0.4635690000000 1.0
C      1  0.5792930000000  0.5429540000000  0.4584600000000 1.0
C      1  0.5142770000000  0.4990990000000  0.5482060000000 1.0
C      1  0.5071010000000  0.5526270000000  0.4955440000000 1.0
C      1  0.5577530000000  0.4745850000000  0.4473280000000 1.0
C      1  0.5649070000000  0.4226330000000  0.5043720000000 1.0
C      1  0.5204590000000  0.4245550000000  0.5681100000000 1.0
C      1  0.4376150000000  0.5284750000000  0.5229930000000 1.0
C      1  0.4668690000000  0.5320200000000  0.4617110000000 1.0
C      1  0.4036820000000  0.5243330000000  0.4677090000000 1.0
C      1  0.5128440000000  0.5267670000000  0.3971030000000 1.0
C      1  0.5403230000000  0.3940790000000  0.5362120000000 1.0
C      1  0.4039810000000  0.4987210000000  0.4902600000000 1.0
C      1  0.5534270000000  0.5141330000000  0.5518960000000 1.0
C      1  0.4352570000000  0.5543180000000  0.4516150000000 1.0
C      1  0.4291700000000  0.4574680000000  0.5613560000000 1.0
C      1  0.5460080000000  0.4837660000000  0.4758170000000 1.0
C      1  0.4502670000000  0.5525450000000  0.4789280000000 1.0
C      1  0.5010390000000  0.5794510000000  0.5132230000000 1.0
C      1  0.5685450000000  0.5645840000000  0.5397570000000 1.0
C      1  0.5403090000000  0.5626240000000  0.5831950000000 1.0
C      1  0.4954490000000  0.3975610000000  0.4507860000000 1.0
C      1  0.4485080000000  0.4797960000000  0.4854180000000 1.0
C      1  0.5661700000000  0.5356640000000  0.4278300000000 1.0
C      1  0.4854640000000  0.4514620000000  0.4582100000000 1.0
C      1  0.5231100000000  0.4470910000000  0.5875560000000 1.0
C      1  0.4886030000000  0.6160690000000  0.5039720000000 1.0
C      1  0.4396110000000  0.4909390000000  0.4554140000000 1.0
C      1  0.5345610000000  0.5382390000000  0.4198810000000 1.0
C      1  0.4298400000000  0.4903750000000  0.5081010000000 1.0
C      1  0.4789740000000  0.4847920000000  0.4549850000000 1.0
C      1  0.5149950000000  0.4176460000000  0.5023810000000 1.0
C      1  0.4503420000000  0.4490280000000  0.4978750000000 1.0
C      1  0.5417090000000  0.4065060000000  0.5117200000000 1.0
C      1  0.4324810000000  0.4388300000000  0.4531590000000 1.0
C      1  0.5783280000000  0.4606430000000  0.4713890000000 1.0
C      1  0.4775600000000  0.4618390000000  0.4875850000000 1.0
C      1  0.4860120000000  0.5477210000000  0.5363750000000 1.0
C      1  0.4954980000000  0.4729320000000  0.5090500000000 1.0
C      1  0.5966050000000  0.5060510000000  0.4897800000000 1.0
C      1  0.5247960000000  0.5544660000000  0.4700070000000 1.0
C      1  0.4910190000000  0.3969530000000  0.4997740000000 1.0
C      1  0.5368040000000  0.5960640000000  0.5084710000000 1.0
C      1  0.4696940000000  0.4478170000000  0.5262430000000 1.0
C      1  0.5546340000000  0.4725620000000  0.5357990000000 1.0
C      1  0.3946360000000  0.5505760000000  0.4822800000000 1.0
C      1  0.4466980000000  0.5846440000000  0.4861040000000 1.0
C      1  0.5874480000000  0.5324520000000  0.4875320000000 1.0
C      1  0.5266090000000  0.4442300000000  0.4082840000000 1.0
C      1  0.4729320000000  0.4385340000000  0.4228650000000 1.0
C      1  0.4529610000000  0.5645730000000  0.4309390000000 1.0
C      1  0.5291800000000  0.4905910000000  0.5237690000000 1.0
C      1  0.4780720000000  0.5410280000000  0.5900980000000 1.0
C      1  0.4657040000000  0.5997230000000  0.5085250000000 1.0
C      1  0.4531130000000  0.4808950000000  0.5613640000000 1.0
C      1  0.5317080000000  0.4495320000000  0.5468330000000 1.0
C      1  0.5153860000000  0.4753250000000  0.4677550000000 1.0
C      1  0.4931330000000  0.5858040000000  0.5459620000000 1.0
C      1  0.5097470000000  0.5494060000000  0.5866430000000 1.0
C      1  0.4917840000000  0.5428420000000  0.4114160000000 1.0
C      1  0.5416520000000  0.4722070000000  0.5790700000000 1.0
C      1  0.4637460000000  0.5710660000000  0.5237900000000 1.0
C      1  0.4788690000000  0.4673030000000  0.4132990000000 1.0
C      1  0.5473300000000  0.4141520000000  0.3672780000000 1.0
C      1  0.4686480000000  0.4163090000000  0.5375670000000 1.0
C      1  0.4504940000000  0.4982600000000  0.5869970000000 1.0
C      1  0.4781290000000  0.4605090000000  0.5631630000000 1.0
C      1  0.5925960000000  0.5185270000000  0.5581750000000 1.0
C      1  0.5631600000000  0.5465700000000  0.5854790000000 1.0
C      1  0.5830260000000  0.4876460000000  0.5476360000000 1.0
C      1  0.5344010000000  0.4682520000000  0.5016810000000 1.0
END
