TITL C-2778426-5645-1223 -0.0990149787418469 125000 -776.95447832997 0 0 134 (C1) n - 1
REM
REM in /home/nfs/bkarasulu/CARBON/AIRSS/Generating-Clusters/REBO/Only-C1/SD-CG/HFTN-CG
REM
REM
REM
REM
REM
REM ./C.cell (11c1c37f851c82e70ff6c80c92926a4b)
REM
REM compiler GCC version 9.2.1 20190827 (Red Hat 9.2.1-1)
REM options -cpp -mtune=generic -march=x86-64 -g -O0 -fpre-include=/usr/include/finclude/math-vector-fortran.h
REM seed -993265689 646131530 -58302781 -682332640 661318737 2108110675 206390917 -647646194 885701222 -1350067146 -1886648643 622394170 2004624797 622301502 -1198979381 -1409156983 -273266554 -1913542305 -1770299459 -1773600484 1086950596 220756497 -1748715144 1918039885 -802264968 58002484 -386191912 -1387369884 1995042679 -1127284616 -720900657 276584899 1813210739
REM
CELL 1.54180   50.00000   50.00000   50.00000   90.00000   90.00000   90.00000
LATT -1
SFAC C  
C      1  0.5636020000000  0.5254270000000  0.4367160000000 1.0
C      1  0.4323510000000  0.5317610000000  0.5565850000000 1.0
C      1  0.4987600000000  0.5083500000000  0.5292720000000 1.0
C      1  0.4913490000000  0.5827240000000  0.5274300000000 1.0
C      1  0.4568240000000  0.5083710000000  0.4118810000000 1.0
C      1  0.5467360000000  0.5272030000000  0.5327840000000 1.0
C      1  0.4422960000000  0.4441570000000  0.5320220000000 1.0
C      1  0.4887730000000  0.4593980000000  0.4605560000000 1.0
C      1  0.5343580000000  0.4834380000000  0.5551530000000 1.0
C      1  0.4485170000000  0.5206230000000  0.5170950000000 1.0
C      1  0.4613600000000  0.5464320000000  0.5336160000000 1.0
C      1  0.4201340000000  0.5394010000000  0.3905710000000 1.0
C      1  0.5311110000000  0.4528720000000  0.5441120000000 1.0
C      1  0.4626220000000  0.5424460000000  0.5651900000000 1.0
C      1  0.4672980000000  0.4225540000000  0.5402650000000 1.0
C      1  0.5142090000000  0.4001360000000  0.5158210000000 1.0
C      1  0.5161280000000  0.5460110000000  0.4375610000000 1.0
C      1  0.4308170000000  0.4462720000000  0.4611950000000 1.0
C      1  0.5315420000000  0.4827960000000  0.4706940000000 1.0
C      1  0.4153550000000  0.4634000000000  0.5361190000000 1.0
C      1  0.4784710000000  0.6152350000000  0.4805130000000 1.0
C      1  0.5178580000000  0.4336420000000  0.5676000000000 1.0
C      1  0.4761070000000  0.5163560000000  0.5789710000000 1.0
C      1  0.4902020000000  0.4797420000000  0.5713010000000 1.0
C      1  0.5031770000000  0.5579640000000  0.5406020000000 1.0
C      1  0.5424050000000  0.4617070000000  0.4917200000000 1.0
C      1  0.5422830000000  0.5108200000000  0.4555960000000 1.0
C      1  0.4293760000000  0.5256010000000  0.4108460000000 1.0
C      1  0.5132860000000  0.5383340000000  0.4900140000000 1.0
C      1  0.5053330000000  0.6072110000000  0.4877890000000 1.0
C      1  0.4137490000000  0.4547400000000  0.5062640000000 1.0
C      1  0.5618970000000  0.4531950000000  0.5557780000000 1.0
C      1  0.4912360000000  0.4845640000000  0.4425510000000 1.0
C      1  0.5914940000000  0.4692450000000  0.4697010000000 1.0
C      1  0.4499970000000  0.4934280000000  0.5274390000000 1.0
C      1  0.5726330000000  0.5555450000000  0.4966280000000 1.0
C      1  0.5242880000000  0.4905680000000  0.5250020000000 1.0
C      1  0.5142740000000  0.5226410000000  0.4134900000000 1.0
C      1  0.4536230000000  0.4241160000000  0.5070730000000 1.0
C      1  0.5875960000000  0.5170480000000  0.4593210000000 1.0
C      1  0.4823390000000  0.5512380000000  0.4419940000000 1.0
C      1  0.4583100000000  0.5677030000000  0.4601100000000 1.0
C      1  0.5235390000000  0.4406420000000  0.4325110000000 1.0
C      1  0.4485700000000  0.5118550000000  0.4428710000000 1.0
C      1  0.5397670000000  0.4684590000000  0.4428330000000 1.0
C      1  0.4867760000000  0.5176970000000  0.4032010000000 1.0
C      1  0.4160940000000  0.5221160000000  0.4397560000000 1.0
C      1  0.5467720000000  0.5610820000000  0.5371110000000 1.0
C      1  0.4675960000000  0.4649490000000  0.5296060000000 1.0
C      1  0.5114700000000  0.5595320000000  0.4677750000000 1.0
C      1  0.4732190000000  0.4699730000000  0.6060780000000 1.0
C      1  0.5612560000000  0.4857000000000  0.4310280000000 1.0
C      1  0.4324520000000  0.5602970000000  0.4780770000000 1.0
C      1  0.4365730000000  0.4864910000000  0.5811140000000 1.0
C      1  0.4498570000000  0.4750050000000  0.4811000000000 1.0
C      1  0.4787070000000  0.4446120000000  0.5967140000000 1.0
C      1  0.4099860000000  0.5101880000000  0.5165030000000 1.0
C      1  0.5732090000000  0.4438150000000  0.5098400000000 1.0
C      1  0.4870950000000  0.4302940000000  0.5669400000000 1.0
C      1  0.4442580000000  0.5308650000000  0.4666850000000 1.0
C      1  0.5433410000000  0.4179630000000  0.5592400000000 1.0
C      1  0.5168550000000  0.5919590000000  0.4637750000000 1.0
C      1  0.4827660000000  0.4081310000000  0.5143970000000 1.0
C      1  0.5175040000000  0.5031850000000  0.4393070000000 1.0
C      1  0.4418990000000  0.4596020000000  0.5715830000000 1.0
C      1  0.5198890000000  0.4827130000000  0.5848200000000 1.0
C      1  0.5380550000000  0.5189390000000  0.4862770000000 1.0
C      1  0.5007450000000  0.4648580000000  0.4882860000000 1.0
C      1  0.5190730000000  0.4593350000000  0.5159190000000 1.0
C      1  0.4897810000000  0.4569590000000  0.4011540000000 1.0
C      1  0.5124430000000  0.5952050000000  0.5127790000000 1.0
C      1  0.4613270000000  0.5218530000000  0.4891420000000 1.0
C      1  0.6071060000000  0.4781530000000  0.4950460000000 1.0
C      1  0.5744490000000  0.5432160000000  0.5268490000000 1.0
C      1  0.4112000000000  0.5349440000000  0.4701200000000 1.0
C      1  0.5677200000000  0.5110210000000  0.5683840000000 1.0
C      1  0.4377080000000  0.4733920000000  0.5045980000000 1.0
C      1  0.5858680000000  0.5134650000000  0.5394120000000 1.0
C      1  0.5837610000000  0.4879970000000  0.4492830000000 1.0
C      1  0.5444990000000  0.4394500000000  0.4589880000000 1.0
C      1  0.4650390000000  0.4958320000000  0.5546720000000 1.0
C      1  0.5351580000000  0.5177040000000  0.5623010000000 1.0
C      1  0.4094860000000  0.5071870000000  0.4885970000000 1.0
C      1  0.5085520000000  0.5070380000000  0.4778160000000 1.0
C      1  0.4476170000000  0.4774310000000  0.4229050000000 1.0
C      1  0.4675250000000  0.5999480000000  0.4586840000000 1.0
C      1  0.4637190000000  0.4904090000000  0.4576860000000 1.0
C      1  0.4853540000000  0.4830990000000  0.5117030000000 1.0
C      1  0.4828350000000  0.5631880000000  0.4800670000000 1.0
C      1  0.5914190000000  0.5141230000000  0.4904150000000 1.0
C      1  0.4983880000000  0.4236400000000  0.4384270000000 1.0
C      1  0.4712260000000  0.4570940000000  0.5596160000000 1.0
C      1  0.4119000000000  0.4918690000000  0.5393650000000 1.0
C      1  0.5603380000000  0.4285560000000  0.5321660000000 1.0
C      1  0.5400920000000  0.4553030000000  0.5826080000000 1.0
C      1  0.5022710000000  0.5088970000000  0.5603370000000 1.0
C      1  0.5549690000000  0.5780450000000  0.4936470000000 1.0
C      1  0.4876320000000  0.5188970000000  0.4430810000000 1.0
C      1  0.5383140000000  0.5823990000000  0.5164590000000 1.0
C      1  0.4759320000000  0.5454780000000  0.5024070000000 1.0
C      1  0.5473130000000  0.5523870000000  0.4496680000000 1.0
C      1  0.5723110000000  0.5431270000000  0.4709720000000 1.0
C      1  0.5455380000000  0.5799500000000  0.4667390000000 1.0
C      1  0.5192320000000  0.5103800000000  0.5984190000000 1.0
C      1  0.4753770000000  0.4296330000000  0.4615950000000 1.0
C      1  0.5702160000000  0.4477640000000  0.4781790000000 1.0
C      1  0.5328020000000  0.4807690000000  0.4035700000000 1.0
C      1  0.4811140000000  0.4993010000000  0.4840570000000 1.0
C      1  0.4607280000000  0.4936660000000  0.5953410000000 1.0
C      1  0.4165400000000  0.4953640000000  0.4600460000000 1.0
C      1  0.4907460000000  0.5841450000000  0.4443940000000 1.0
C      1  0.5269720000000  0.5506780000000  0.5627500000000 1.0
C      1  0.4243780000000  0.5045950000000  0.5623970000000 1.0
C      1  0.5008920000000  0.4166440000000  0.4776140000000 1.0
C      1  0.5462790000000  0.5063570000000  0.5110640000000 1.0
C      1  0.5780390000000  0.4827540000000  0.5528220000000 1.0
C      1  0.4627100000000  0.5775090000000  0.5221170000000 1.0
C      1  0.5367590000000  0.4082350000000  0.5212690000000 1.0
C      1  0.4984820000000  0.4365800000000  0.5198360000000 1.0
C      1  0.4939790000000  0.5513300000000  0.5721170000000 1.0
C      1  0.5094950000000  0.5326060000000  0.5937530000000 1.0
C      1  0.5623630000000  0.4810460000000  0.5835620000000 1.0
C      1  0.5724380000000  0.4945430000000  0.5062120000000 1.0
C      1  0.5202850000000  0.4370770000000  0.4827520000000 1.0
C      1  0.5854950000000  0.4690770000000  0.5171200000000 1.0
C      1  0.5168220000000  0.4595820000000  0.4084990000000 1.0
C      1  0.5460950000000  0.5099370000000  0.4124710000000 1.0
C      1  0.4359810000000  0.5646710000000  0.5088310000000 1.0
C      1  0.4491830000000  0.4314520000000  0.4763660000000 1.0
C      1  0.4297880000000  0.4723030000000  0.4467050000000 1.0
C      1  0.4227030000000  0.5402640000000  0.5260680000000 1.0
C      1  0.6091260000000  0.5049520000000  0.5160690000000 1.0
C      1  0.4642000000000  0.4583420000000  0.4102160000000 1.0
C      1  0.5005880000000  0.5365140000000  0.5194080000000 1.0
END
