TITL C-2778435-5768-595 0.011498284529074 125000 -1123.08959813245 0 0 195 (C1) n - 1
REM
REM in /home/nfs/bkarasulu/CARBON/AIRSS/Generating-Clusters/REBO/Only-C1/SD-CG/HFTN-CG
REM
REM
REM
REM
REM
REM ./C.cell (11c1c37f851c82e70ff6c80c92926a4b)
REM
REM compiler GCC version 9.2.1 20190827 (Red Hat 9.2.1-1)
REM options -cpp -mtune=generic -march=x86-64 -g -O0 -fpre-include=/usr/include/finclude/math-vector-fortran.h
REM seed 186755024 1868445383 1469347422 205817684 910299758 1444937835 -736997164 -993547392 2073074357 -1719084512 -741663647 1064992076 -1347846388 903874097 -1407102842 1116647901 1130485278 -1769296532 1497339672 1578106985 -31667035 1022421451 -640667105 -368480850 2133476917 -1082416838 2057028863 396160453 -759452379 -2101946307 1276434263 -1149039798 158765355
REM
CELL 1.54180   50.00000   50.00000   50.00000   90.00000   90.00000   90.00000
LATT -1
SFAC C  
C      1  0.4218630000000  0.4603380000000  0.5061690000000 1.0
C      1  0.4890790000000  0.4361620000000  0.4925210000000 1.0
C      1  0.4219040000000  0.4722840000000  0.4681420000000 1.0
C      1  0.5310420000000  0.5650480000000  0.5244260000000 1.0
C      1  0.5834710000000  0.4368540000000  0.5585270000000 1.0
C      1  0.5860130000000  0.5741190000000  0.4803280000000 1.0
C      1  0.4365180000000  0.4879280000000  0.4929720000000 1.0
C      1  0.4106300000000  0.5086460000000  0.5806260000000 1.0
C      1  0.6008000000000  0.5265860000000  0.4918900000000 1.0
C      1  0.4941170000000  0.4236700000000  0.5226000000000 1.0
C      1  0.5459200000000  0.6030080000000  0.4922970000000 1.0
C      1  0.4438260000000  0.5531760000000  0.4716990000000 1.0
C      1  0.5291360000000  0.4845400000000  0.4036790000000 1.0
C      1  0.5718670000000  0.4803100000000  0.5267170000000 1.0
C      1  0.4840770000000  0.5828240000000  0.4378000000000 1.0
C      1  0.5036040000000  0.5361590000000  0.5259440000000 1.0
C      1  0.4785990000000  0.5604860000000  0.4964790000000 1.0
C      1  0.5315980000000  0.4915920000000  0.5402720000000 1.0
C      1  0.5548200000000  0.5147340000000  0.5844070000000 1.0
C      1  0.5901500000000  0.5450510000000  0.5651830000000 1.0
C      1  0.4697480000000  0.5038590000000  0.5300260000000 1.0
C      1  0.4600270000000  0.5534710000000  0.5943860000000 1.0
C      1  0.5578120000000  0.5419240000000  0.3964200000000 1.0
C      1  0.4852890000000  0.4183730000000  0.4368990000000 1.0
C      1  0.4373540000000  0.4334580000000  0.5120060000000 1.0
C      1  0.4941230000000  0.5152600000000  0.5495020000000 1.0
C      1  0.5130930000000  0.3884380000000  0.5112690000000 1.0
C      1  0.5136390000000  0.3927850000000  0.5603750000000 1.0
C      1  0.4914210000000  0.5251660000000  0.6149740000000 1.0
C      1  0.4647870000000  0.5007880000000  0.4213760000000 1.0
C      1  0.4968780000000  0.5890640000000  0.6005510000000 1.0
C      1  0.5016290000000  0.5685890000000  0.4149580000000 1.0
C      1  0.4378320000000  0.4474410000000  0.5421840000000 1.0
C      1  0.5324090000000  0.5213140000000  0.5255150000000 1.0
C      1  0.3925260000000  0.4879570000000  0.5352540000000 1.0
C      1  0.6014710000000  0.4336320000000  0.5309530000000 1.0
C      1  0.5173790000000  0.4524700000000  0.4400640000000 1.0
C      1  0.4132020000000  0.5577340000000  0.5204800000000 1.0
C      1  0.4133200000000  0.5347460000000  0.5689780000000 1.0
C      1  0.4709220000000  0.6016610000000  0.4798790000000 1.0
C      1  0.5339470000000  0.4610630000000  0.5922510000000 1.0
C      1  0.4927370000000  0.4876630000000  0.5041550000000 1.0
C      1  0.5299100000000  0.4105920000000  0.4972900000000 1.0
C      1  0.4584650000000  0.5259560000000  0.5841050000000 1.0
C      1  0.5697310000000  0.5101060000000  0.5330440000000 1.0
C      1  0.5759670000000  0.4952350000000  0.4278980000000 1.0
C      1  0.5606650000000  0.4798920000000  0.5990080000000 1.0
C      1  0.4443020000000  0.4647160000000  0.5901820000000 1.0
C      1  0.4381040000000  0.4407810000000  0.4325560000000 1.0
C      1  0.4338030000000  0.5459930000000  0.4987620000000 1.0
C      1  0.5002720000000  0.5999650000000  0.4716480000000 1.0
C      1  0.4422840000000  0.4418130000000  0.5736350000000 1.0
C      1  0.4800540000000  0.5413450000000  0.4442570000000 1.0
C      1  0.4408320000000  0.4460730000000  0.4743240000000 1.0
C      1  0.4695170000000  0.4066040000000  0.4560830000000 1.0
C      1  0.3925010000000  0.4594930000000  0.5792310000000 1.0
C      1  0.4458200000000  0.5864910000000  0.4646190000000 1.0
C      1  0.5647330000000  0.5518220000000  0.4261890000000 1.0
C      1  0.4650950000000  0.4602350000000  0.4933210000000 1.0
C      1  0.4609750000000  0.4224270000000  0.4816930000000 1.0
C      1  0.5946810000000  0.4639060000000  0.5441030000000 1.0
C      1  0.5460980000000  0.4684960000000  0.5111940000000 1.0
C      1  0.4635440000000  0.5032250000000  0.4962860000000 1.0
C      1  0.5078100000000  0.4620590000000  0.5527020000000 1.0
C      1  0.3928800000000  0.5437700000000  0.4647780000000 1.0
C      1  0.5119820000000  0.5683170000000  0.4760940000000 1.0
C      1  0.3837550000000  0.5043130000000  0.4901640000000 1.0
C      1  0.5118800000000  0.4842270000000  0.4782920000000 1.0
C      1  0.4187920000000  0.4894810000000  0.4219120000000 1.0
C      1  0.4320170000000  0.5436740000000  0.4433310000000 1.0
C      1  0.5570780000000  0.4527470000000  0.5706370000000 1.0
C      1  0.4544260000000  0.4048650000000  0.5101530000000 1.0
C      1  0.5582160000000  0.4485340000000  0.4562470000000 1.0
C      1  0.5181660000000  0.5342810000000  0.5629330000000 1.0
C      1  0.5614390000000  0.4180700000000  0.4993260000000 1.0
C      1  0.4953180000000  0.3920800000000  0.5360350000000 1.0
C      1  0.6105990000000  0.4668420000000  0.4614460000000 1.0
C      1  0.5304250000000  0.6112290000000  0.5154110000000 1.0
C      1  0.4777370000000  0.4479120000000  0.3960640000000 1.0
C      1  0.4638650000000  0.4853740000000  0.3972130000000 1.0
C      1  0.3760920000000  0.4793190000000  0.4999170000000 1.0
C      1  0.5391730000000  0.4937680000000  0.4626600000000 1.0
C      1  0.5831270000000  0.4312080000000  0.4267050000000 1.0
C      1  0.6070650000000  0.5384290000000  0.5164330000000 1.0
C      1  0.5089100000000  0.5913140000000  0.5695250000000 1.0
C      1  0.5584750000000  0.5235550000000  0.5036890000000 1.0
C      1  0.4811140000000  0.4484230000000  0.5667280000000 1.0
C      1  0.5913460000000  0.5597490000000  0.5354550000000 1.0
C      1  0.5827180000000  0.4679600000000  0.4424180000000 1.0
C      1  0.5482330000000  0.5247380000000  0.5541310000000 1.0
C      1  0.5545220000000  0.4174090000000  0.4668400000000 1.0
C      1  0.5315120000000  0.6016380000000  0.4668580000000 1.0
C      1  0.5571000000000  0.4836600000000  0.4860930000000 1.0
C      1  0.4868430000000  0.5426790000000  0.4085220000000 1.0
C      1  0.4122500000000  0.5341790000000  0.5402980000000 1.0
C      1  0.4466270000000  0.4974730000000  0.4494770000000 1.0
C      1  0.5270480000000  0.5004040000000  0.5924010000000 1.0
C      1  0.5350130000000  0.5657150000000  0.4188550000000 1.0
C      1  0.4919880000000  0.5307540000000  0.4981490000000 1.0
C      1  0.5583030000000  0.4740080000000  0.4114980000000 1.0
C      1  0.5528340000000  0.4857240000000  0.5658930000000 1.0
C      1  0.4301890000000  0.5172280000000  0.4609510000000 1.0
C      1  0.4535810000000  0.5386850000000  0.5408200000000 1.0
C      1  0.4629870000000  0.4722350000000  0.5225050000000 1.0
C      1  0.5597900000000  0.4449160000000  0.4165240000000 1.0
C      1  0.3892880000000  0.5153530000000  0.4628770000000 1.0
C      1  0.5278100000000  0.5935450000000  0.5438460000000 1.0
C      1  0.5019550000000  0.5248900000000  0.3889730000000 1.0
C      1  0.5131410000000  0.4129440000000  0.4377470000000 1.0
C      1  0.5181720000000  0.5875700000000  0.4388020000000 1.0
C      1  0.4657700000000  0.4016420000000  0.5400680000000 1.0
C      1  0.5569420000000  0.5468910000000  0.4811830000000 1.0
C      1  0.4674530000000  0.5821620000000  0.5420440000000 1.0
C      1  0.5303080000000  0.4141920000000  0.5580520000000 1.0
C      1  0.4830900000000  0.4682490000000  0.4694110000000 1.0
C      1  0.6006440000000  0.4777800000000  0.5072650000000 1.0
C      1  0.5960330000000  0.5230160000000  0.5422300000000 1.0
C      1  0.5649040000000  0.5717390000000  0.5259890000000 1.0
C      1  0.4923270000000  0.4946910000000  0.4356560000000 1.0
C      1  0.4855640000000  0.5900310000000  0.5074310000000 1.0
C      1  0.5897380000000  0.4199830000000  0.5039440000000 1.0
C      1  0.4506250000000  0.5615280000000  0.5564930000000 1.0
C      1  0.4405020000000  0.5780640000000  0.5216020000000 1.0
C      1  0.4524150000000  0.5701680000000  0.4370650000000 1.0
C      1  0.5328390000000  0.5316370000000  0.4134000000000 1.0
C      1  0.4305070000000  0.4803310000000  0.5441030000000 1.0
C      1  0.5557380000000  0.4207820000000  0.5663220000000 1.0
C      1  0.4595710000000  0.5298890000000  0.4128620000000 1.0
C      1  0.4063860000000  0.4094020000000  0.4574360000000 1.0
C      1  0.4178110000000  0.5062550000000  0.5253670000000 1.0
C      1  0.5479850000000  0.5633410000000  0.5775460000000 1.0
C      1  0.5364740000000  0.5021430000000  0.4296370000000 1.0
C      1  0.5012250000000  0.6133160000000  0.5217970000000 1.0
C      1  0.5945590000000  0.5430200000000  0.4682970000000 1.0
C      1  0.4810150000000  0.5657920000000  0.4653230000000 1.0
C      1  0.5530080000000  0.5793180000000  0.5544850000000 1.0
C      1  0.5157740000000  0.5181590000000  0.4836080000000 1.0
C      1  0.4723990000000  0.3850450000000  0.4890940000000 1.0
C      1  0.4624140000000  0.4750050000000  0.5563990000000 1.0
C      1  0.4320670000000  0.5555580000000  0.5790860000000 1.0
C      1  0.4905590000000  0.5562260000000  0.6048350000000 1.0
C      1  0.4503750000000  0.5125290000000  0.5568030000000 1.0
C      1  0.5147450000000  0.4725620000000  0.5210940000000 1.0
C      1  0.5192390000000  0.4350580000000  0.5378620000000 1.0
C      1  0.5277310000000  0.5480210000000  0.4964340000000 1.0
C      1  0.5855480000000  0.4201810000000  0.4531720000000 1.0
C      1  0.6065720000000  0.4491710000000  0.5007880000000 1.0
C      1  0.4704570000000  0.4418080000000  0.4248070000000 1.0
C      1  0.4674420000000  0.4391260000000  0.5268210000000 1.0
C      1  0.5711350000000  0.5625460000000  0.4540580000000 1.0
C      1  0.6036850000000  0.4273590000000  0.4746920000000 1.0
C      1  0.4893740000000  0.6034700000000  0.5477790000000 1.0
C      1  0.4367590000000  0.4928920000000  0.5813200000000 1.0
C      1  0.5157140000000  0.5047320000000  0.3845310000000 1.0
C      1  0.4679550000000  0.5291210000000  0.4741270000000 1.0
C      1  0.5057090000000  0.5130760000000  0.4526350000000 1.0
C      1  0.4368090000000  0.5397190000000  0.4039450000000 1.0
C      1  0.4020930000000  0.4917920000000  0.4481730000000 1.0
C      1  0.4740970000000  0.4810010000000  0.5881860000000 1.0
C      1  0.5123390000000  0.4926730000000  0.5668870000000 1.0
C      1  0.5830070000000  0.5013910000000  0.4947200000000 1.0
C      1  0.5678230000000  0.5438840000000  0.5829520000000 1.0
C      1  0.5049650000000  0.4455640000000  0.4639330000000 1.0
C      1  0.3946490000000  0.4603200000000  0.5064910000000 1.0
C      1  0.5149390000000  0.5110150000000  0.6208660000000 1.0
C      1  0.4630570000000  0.4207330000000  0.5618890000000 1.0
C      1  0.5488100000000  0.5238360000000  0.4499150000000 1.0
C      1  0.4579730000000  0.5429070000000  0.5141090000000 1.0
C      1  0.3953110000000  0.5595340000000  0.4427290000000 1.0
C      1  0.3936750000000  0.4594660000000  0.4545800000000 1.0
C      1  0.5328230000000  0.5526080000000  0.4574180000000 1.0
C      1  0.5801950000000  0.5257250000000  0.4424460000000 1.0
C      1  0.4375080000000  0.4698530000000  0.4224230000000 1.0
C      1  0.4997120000000  0.3882960000000  0.4841000000000 1.0
C      1  0.3956600000000  0.5546450000000  0.4914870000000 1.0
C      1  0.4161330000000  0.4352870000000  0.4543910000000 1.0
C      1  0.5344980000000  0.4327340000000  0.4249730000000 1.0
C      1  0.6360790000000  0.4668390000000  0.4636450000000 1.0
C      1  0.5084460000000  0.4741820000000  0.4250360000000 1.0
C      1  0.4472740000000  0.5852850000000  0.4973380000000 1.0
C      1  0.4638200000000  0.4685270000000  0.4449040000000 1.0
C      1  0.5175740000000  0.4779530000000  0.6164280000000 1.0
C      1  0.4028770000000  0.4804590000000  0.5646800000000 1.0
C      1  0.5232130000000  0.4041020000000  0.4648980000000 1.0
C      1  0.5686000000000  0.5864990000000  0.4990990000000 1.0
C      1  0.5134790000000  0.5380910000000  0.4377980000000 1.0
C      1  0.5394420000000  0.4384010000000  0.5145510000000 1.0
C      1  0.4999240000000  0.4621040000000  0.5918770000000 1.0
C      1  0.4973760000000  0.5682980000000  0.5308720000000 1.0
C      1  0.5151970000000  0.5598570000000  0.5815470000000 1.0
C      1  0.5801760000000  0.4657510000000  0.4751500000000 1.0
C      1  0.4163720000000  0.5126950000000  0.4919450000000 1.0
C      1  0.4742620000000  0.5091610000000  0.5991200000000 1.0
C      1  0.6153260000000  0.4859700000000  0.5348240000000 1.0
C      1  0.4838750000000  0.4530510000000  0.3718320000000 1.0
END
