TITL C-2778437-8639-250 -0.0621978142123541 125000 -374.20677616366 0 0 66 (C1) n - 1
REM
REM in /home/nfs/bkarasulu/CARBON/AIRSS/Generating-Clusters/REBO/Only-C1/SD-CG/HFTN-CG
REM
REM
REM
REM
REM
REM ./C.cell (11c1c37f851c82e70ff6c80c92926a4b)
REM
REM compiler GCC version 9.2.1 20190827 (Red Hat 9.2.1-1)
REM options -cpp -mtune=generic -march=x86-64 -g -O0 -fpre-include=/usr/include/finclude/math-vector-fortran.h
REM seed -2041394909 -1481543750 918527672 1342876198 -1947698241 -1899468134 -709451498 144028599 1092786059 6745032 -34568453 -2070992655 557317255 1367348582 -2120044909 -486438403 -1924939307 924068578 2095450593 -691645106 -692784892 -1791143492 721478668 -1179294680 -106704971 -1748159486 1330238921 -915288802 -253556267 -764756003 -1081631823 -1455059028 -648318387
REM
CELL 1.54180   50.00000   50.00000   50.00000   90.00000   90.00000   90.00000
LATT -1
SFAC C  
C      1  0.4741980000000  0.4958170000000  0.4243510000000 1.0
C      1  0.5522570000000  0.5969220000000  0.4679360000000 1.0
C      1  0.4861550000000  0.5169910000000  0.4394490000000 1.0
C      1  0.4810380000000  0.4507750000000  0.5520550000000 1.0
C      1  0.5001210000000  0.5452130000000  0.5463770000000 1.0
C      1  0.5508800000000  0.4707290000000  0.5182380000000 1.0
C      1  0.5233470000000  0.4955370000000  0.5762460000000 1.0
C      1  0.5574870000000  0.5290500000000  0.5199430000000 1.0
C      1  0.4812490000000  0.5100320000000  0.5063040000000 1.0
C      1  0.4332190000000  0.5163650000000  0.4800140000000 1.0
C      1  0.5689660000000  0.5196530000000  0.4928250000000 1.0
C      1  0.5469760000000  0.4908750000000  0.5371760000000 1.0
C      1  0.5044150000000  0.4694720000000  0.5031060000000 1.0
C      1  0.5182030000000  0.4587930000000  0.4541630000000 1.0
C      1  0.4357010000000  0.4722240000000  0.4499900000000 1.0
C      1  0.5439560000000  0.4308810000000  0.4900180000000 1.0
C      1  0.4730370000000  0.5322580000000  0.4909130000000 1.0
C      1  0.4891210000000  0.4643080000000  0.4431980000000 1.0
C      1  0.5634360000000  0.5616260000000  0.4247570000000 1.0
C      1  0.5429280000000  0.5713290000000  0.4684030000000 1.0
C      1  0.5147700000000  0.5219860000000  0.5667470000000 1.0
C      1  0.4450180000000  0.4882940000000  0.5497570000000 1.0
C      1  0.5495100000000  0.4900740000000  0.5653560000000 1.0
C      1  0.5159070000000  0.4315800000000  0.4975780000000 1.0
C      1  0.4731340000000  0.5039860000000  0.5556970000000 1.0
C      1  0.5388930000000  0.5361030000000  0.5471050000000 1.0
C      1  0.4342620000000  0.4630800000000  0.5000430000000 1.0
C      1  0.4440840000000  0.5201410000000  0.4336420000000 1.0
C      1  0.4849540000000  0.4865180000000  0.4927210000000 1.0
C      1  0.4231720000000  0.4622690000000  0.4734470000000 1.0
C      1  0.5301260000000  0.5232280000000  0.4995500000000 1.0
C      1  0.5392610000000  0.4810410000000  0.4693840000000 1.0
C      1  0.4927710000000  0.5087110000000  0.5323870000000 1.0
C      1  0.5166690000000  0.5493360000000  0.5167590000000 1.0
C      1  0.4325710000000  0.4833770000000  0.5189750000000 1.0
C      1  0.4778270000000  0.4759660000000  0.5688100000000 1.0
C      1  0.5001710000000  0.4413370000000  0.4750920000000 1.0
C      1  0.5435570000000  0.5104040000000  0.4729230000000 1.0
C      1  0.5489040000000  0.5533880000000  0.4471020000000 1.0
C      1  0.4741770000000  0.4511250000000  0.4777750000000 1.0
C      1  0.5136890000000  0.5217600000000  0.4353560000000 1.0
C      1  0.5476780000000  0.4479980000000  0.4672650000000 1.0
C      1  0.4579070000000  0.5527020000000  0.5099790000000 1.0
C      1  0.4709100000000  0.4824590000000  0.4655460000000 1.0
C      1  0.4586150000000  0.4475780000000  0.5013210000000 1.0
C      1  0.5262830000000  0.5670680000000  0.5442280000000 1.0
C      1  0.5138000000000  0.4455390000000  0.5539570000000 1.0
C      1  0.5376150000000  0.5272290000000  0.4487270000000 1.0
C      1  0.5634190000000  0.4174600000000  0.5031810000000 1.0
C      1  0.4410870000000  0.5372910000000  0.5348640000000 1.0
C      1  0.5319020000000  0.4682240000000  0.4977650000000 1.0
C      1  0.4299740000000  0.5123660000000  0.5331700000000 1.0
C      1  0.4368270000000  0.4707140000000  0.5695050000000 1.0
C      1  0.5045570000000  0.4353000000000  0.5239260000000 1.0
C      1  0.5770860000000  0.5693650000000  0.4037660000000 1.0
C      1  0.4734520000000  0.4410930000000  0.5242640000000 1.0
C      1  0.4750230000000  0.5291680000000  0.4629050000000 1.0
C      1  0.4589830000000  0.4696250000000  0.4299050000000 1.0
C      1  0.5072930000000  0.4713740000000  0.5737930000000 1.0
C      1  0.4335010000000  0.5353310000000  0.4956770000000 1.0
C      1  0.5234630000000  0.5111210000000  0.5294760000000 1.0
C      1  0.4709890000000  0.5256660000000  0.5734010000000 1.0
C      1  0.4459860000000  0.5026460000000  0.4556700000000 1.0
C      1  0.5272660000000  0.5618570000000  0.4896050000000 1.0
C      1  0.5953740000000  0.5189450000000  0.4852080000000 1.0
C      1  0.4708920000000  0.5493290000000  0.5412300000000 1.0
END
