TITL C-2778429-3646-365 0.00651908187955819 125000 -830.312965939795 0 0 141 (C1) n - 1
REM
REM in /home/nfs/bkarasulu/CARBON/AIRSS/Generating-Clusters/REBO/Only-C1/SD-CG/HFTN-CG
REM
REM
REM
REM
REM
REM ./C.cell (11c1c37f851c82e70ff6c80c92926a4b)
REM
REM compiler GCC version 9.2.1 20190827 (Red Hat 9.2.1-1)
REM options -cpp -mtune=generic -march=x86-64 -g -O0 -fpre-include=/usr/include/finclude/math-vector-fortran.h
REM seed -160561140 -994893863 -1564487366 -1951862628 1277218415 -379390432 -1509074074 -66505855 1847744709 -1168781455 1987515331 -1365248484 159938647 -204608662 -1589431987 -1046065365 -1664926993 -1414901597 1311678729 -1213665134 -2141776521 -766629156 -945872558 -352788607 266264814 -1718985905 765337178 1271638278 -1357228875 -166368249 1082002952 -1799420169 -5272588
REM
CELL 1.54180   50.00000   50.00000   50.00000   90.00000   90.00000   90.00000
LATT -1
SFAC C  
C      1  0.5549890000000  0.4359600000000  0.4505420000000 1.0
C      1  0.5288700000000  0.5400580000000  0.4824440000000 1.0
C      1  0.4995710000000  0.4918930000000  0.5576580000000 1.0
C      1  0.4620040000000  0.4405220000000  0.4888780000000 1.0
C      1  0.5681360000000  0.5679780000000  0.5506040000000 1.0
C      1  0.4913960000000  0.4349180000000  0.4302490000000 1.0
C      1  0.4187770000000  0.4592160000000  0.5156560000000 1.0
C      1  0.5736220000000  0.5520840000000  0.4858830000000 1.0
C      1  0.4259670000000  0.4674130000000  0.4610960000000 1.0
C      1  0.5223420000000  0.5599970000000  0.5795280000000 1.0
C      1  0.4958390000000  0.5792260000000  0.4353610000000 1.0
C      1  0.5165350000000  0.4993150000000  0.5346660000000 1.0
C      1  0.5168470000000  0.4755840000000  0.5127290000000 1.0
C      1  0.4844550000000  0.4952750000000  0.4178590000000 1.0
C      1  0.5447350000000  0.5394730000000  0.4201910000000 1.0
C      1  0.5139060000000  0.5954540000000  0.5083120000000 1.0
C      1  0.4722950000000  0.3969700000000  0.5201640000000 1.0
C      1  0.5219520000000  0.5268340000000  0.5206810000000 1.0
C      1  0.4784210000000  0.5686760000000  0.5606410000000 1.0
C      1  0.4226050000000  0.5074820000000  0.4263390000000 1.0
C      1  0.5177300000000  0.5038690000000  0.4950560000000 1.0
C      1  0.5298080000000  0.4026020000000  0.4924860000000 1.0
C      1  0.5217250000000  0.5817030000000  0.5358470000000 1.0
C      1  0.4609940000000  0.5179450000000  0.5647830000000 1.0
C      1  0.4388830000000  0.4361380000000  0.4566930000000 1.0
C      1  0.5369970000000  0.5585070000000  0.4627230000000 1.0
C      1  0.5560460000000  0.5735570000000  0.4945090000000 1.0
C      1  0.4075040000000  0.5043710000000  0.5459280000000 1.0
C      1  0.4484100000000  0.4841990000000  0.5059360000000 1.0
C      1  0.4392230000000  0.5425180000000  0.5749570000000 1.0
C      1  0.5131200000000  0.5343600000000  0.5901930000000 1.0
C      1  0.4944220000000  0.5462800000000  0.5252270000000 1.0
C      1  0.4794890000000  0.4360030000000  0.5156940000000 1.0
C      1  0.4020060000000  0.4860110000000  0.5029500000000 1.0
C      1  0.5308170000000  0.4530480000000  0.4828010000000 1.0
C      1  0.5010210000000  0.5429190000000  0.4861490000000 1.0
C      1  0.4727270000000  0.4830240000000  0.5492090000000 1.0
C      1  0.4128700000000  0.4727980000000  0.5460950000000 1.0
C      1  0.4507340000000  0.4118460000000  0.4773600000000 1.0
C      1  0.4570850000000  0.5692000000000  0.5396830000000 1.0
C      1  0.5197380000000  0.5215860000000  0.4459090000000 1.0
C      1  0.4911820000000  0.5568910000000  0.4193690000000 1.0
C      1  0.4883920000000  0.5737280000000  0.5154280000000 1.0
C      1  0.5011420000000  0.5069140000000  0.4679470000000 1.0
C      1  0.4707260000000  0.5179230000000  0.4724820000000 1.0
C      1  0.4603350000000  0.4822520000000  0.4195380000000 1.0
C      1  0.4590590000000  0.4642690000000  0.5728110000000 1.0
C      1  0.4036200000000  0.5117320000000  0.5175730000000 1.0
C      1  0.5139130000000  0.4800530000000  0.5853260000000 1.0
C      1  0.4740190000000  0.5075280000000  0.6019720000000 1.0
C      1  0.5184000000000  0.5841580000000  0.4590420000000 1.0
C      1  0.4837080000000  0.5221270000000  0.5037340000000 1.0
C      1  0.5803490000000  0.5383280000000  0.4555310000000 1.0
C      1  0.4729420000000  0.5571860000000  0.4783620000000 1.0
C      1  0.4370120000000  0.5627280000000  0.4618310000000 1.0
C      1  0.4755730000000  0.4972400000000  0.5195990000000 1.0
C      1  0.4487510000000  0.4105230000000  0.5114230000000 1.0
C      1  0.5576510000000  0.5109180000000  0.4134390000000 1.0
C      1  0.4114910000000  0.4909390000000  0.4515820000000 1.0
C      1  0.4804910000000  0.4821860000000  0.5937470000000 1.0
C      1  0.4603120000000  0.5400960000000  0.4516760000000 1.0
C      1  0.5762840000000  0.4932340000000  0.5668870000000 1.0
C      1  0.5066280000000  0.5724880000000  0.5582820000000 1.0
C      1  0.4031840000000  0.5217920000000  0.4535690000000 1.0
C      1  0.4367740000000  0.4318570000000  0.5256170000000 1.0
C      1  0.5250560000000  0.4321090000000  0.4344670000000 1.0
C      1  0.4782420000000  0.5221280000000  0.5429600000000 1.0
C      1  0.5716420000000  0.4647970000000  0.5765910000000 1.0
C      1  0.5523580000000  0.5385070000000  0.5287490000000 1.0
C      1  0.5726010000000  0.4463610000000  0.5536770000000 1.0
C      1  0.5319090000000  0.4952330000000  0.4026720000000 1.0
C      1  0.5750840000000  0.4796630000000  0.4329620000000 1.0
C      1  0.5481120000000  0.5138640000000  0.4935020000000 1.0
C      1  0.5466610000000  0.4352680000000  0.5472770000000 1.0
C      1  0.5175240000000  0.4240310000000  0.5400290000000 1.0
C      1  0.4457310000000  0.5140890000000  0.4952970000000 1.0
C      1  0.4424870000000  0.5449550000000  0.4885420000000 1.0
C      1  0.5923630000000  0.4660780000000  0.4801590000000 1.0
C      1  0.5304750000000  0.4683750000000  0.4112660000000 1.0
C      1  0.4438500000000  0.4945370000000  0.5774020000000 1.0
C      1  0.4358980000000  0.4495960000000  0.5524820000000 1.0
C      1  0.4878190000000  0.4337000000000  0.5424650000000 1.0
C      1  0.5529230000000  0.4594630000000  0.4258900000000 1.0
C      1  0.5499460000000  0.5712550000000  0.5253120000000 1.0
C      1  0.5130860000000  0.5375400000000  0.4180400000000 1.0
C      1  0.5587150000000  0.4920180000000  0.5173420000000 1.0
C      1  0.5938320000000  0.5099080000000  0.5125400000000 1.0
C      1  0.5044780000000  0.4851810000000  0.4418990000000 1.0
C      1  0.5360990000000  0.4130870000000  0.4673170000000 1.0
C      1  0.3858720000000  0.4821320000000  0.4808100000000 1.0
C      1  0.5301770000000  0.4505470000000  0.5226460000000 1.0
C      1  0.4823990000000  0.4418520000000  0.5687450000000 1.0
C      1  0.4559230000000  0.5807600000000  0.5077810000000 1.0
C      1  0.4778180000000  0.4682480000000  0.4652550000000 1.0
C      1  0.4151360000000  0.5368200000000  0.5073880000000 1.0
C      1  0.5423300000000  0.4723390000000  0.5689640000000 1.0
C      1  0.4538550000000  0.4642770000000  0.4442100000000 1.0
C      1  0.5792260000000  0.4594770000000  0.4555490000000 1.0
C      1  0.4685700000000  0.5528360000000  0.5824740000000 1.0
C      1  0.4655050000000  0.5453880000000  0.4199830000000 1.0
C      1  0.5977810000000  0.5117230000000  0.4640600000000 1.0
C      1  0.4206720000000  0.5438410000000  0.4425540000000 1.0
C      1  0.4554360000000  0.5863730000000  0.4758610000000 1.0
C      1  0.5044030000000  0.4472990000000  0.5849460000000 1.0
C      1  0.5451180000000  0.5052750000000  0.4435270000000 1.0
C      1  0.4848350000000  0.5329650000000  0.5950070000000 1.0
C      1  0.4834650000000  0.4043010000000  0.4714020000000 1.0
C      1  0.5297710000000  0.5103410000000  0.5880800000000 1.0
C      1  0.4979740000000  0.3962550000000  0.4977760000000 1.0
C      1  0.5504280000000  0.5626190000000  0.5769330000000 1.0
C      1  0.4370630000000  0.5418580000000  0.5420440000000 1.0
C      1  0.5419170000000  0.4836530000000  0.5431440000000 1.0
C      1  0.5785060000000  0.5345480000000  0.5085850000000 1.0
C      1  0.5026460000000  0.3985180000000  0.5308560000000 1.0
C      1  0.5835400000000  0.5108140000000  0.4345190000000 1.0
C      1  0.4422610000000  0.4862090000000  0.5383770000000 1.0
C      1  0.5609970000000  0.5365970000000  0.5606240000000 1.0
C      1  0.5224720000000  0.4591640000000  0.4517450000000 1.0
C      1  0.5341000000000  0.5905850000000  0.4860420000000 1.0
C      1  0.4397800000000  0.4605550000000  0.4898080000000 1.0
C      1  0.4377900000000  0.5335250000000  0.4194880000000 1.0
C      1  0.5088560000000  0.4080710000000  0.4512000000000 1.0
C      1  0.5650240000000  0.5040950000000  0.4692910000000 1.0
C      1  0.5450030000000  0.4781430000000  0.4641650000000 1.0
C      1  0.5012960000000  0.4428810000000  0.4963850000000 1.0
C      1  0.4416100000000  0.5160660000000  0.5286260000000 1.0
C      1  0.5023770000000  0.4599620000000  0.4174540000000 1.0
C      1  0.4769740000000  0.4349380000000  0.4581280000000 1.0
C      1  0.5984240000000  0.4934520000000  0.4884930000000 1.0
C      1  0.5849660000000  0.4961590000000  0.5391820000000 1.0
C      1  0.5533950000000  0.4410240000000  0.5015260000000 1.0
C      1  0.4956980000000  0.4718300000000  0.4863360000000 1.0
C      1  0.5855270000000  0.4479790000000  0.5004100000000 1.0
C      1  0.4859740000000  0.5941690000000  0.4630200000000 1.0
C      1  0.4855980000000  0.6007590000000  0.4944160000000 1.0
C      1  0.5553870000000  0.5512620000000  0.4434680000000 1.0
C      1  0.5559760000000  0.5117950000000  0.5751070000000 1.0
C      1  0.4215960000000  0.5145990000000  0.5680840000000 1.0
C      1  0.5688550000000  0.4604400000000  0.5251210000000 1.0
C      1  0.5072810000000  0.5097870000000  0.4050970000000 1.0
C      1  0.4289690000000  0.5652500000000  0.5200320000000 1.0
END
