TITL C-2778424-3986-1038 -0.00236448608633336 125000 -964.155052918883 0 0 167 (C1) n - 1
REM
REM in /home/nfs/bkarasulu/CARBON/AIRSS/Generating-Clusters/REBO/Only-C1/SD-CG/HFTN-CG
REM
REM
REM
REM
REM
REM ./C.cell (11c1c37f851c82e70ff6c80c92926a4b)
REM
REM compiler GCC version 9.2.1 20190827 (Red Hat 9.2.1-1)
REM options -cpp -mtune=generic -march=x86-64 -g -O0 -fpre-include=/usr/include/finclude/math-vector-fortran.h
REM seed -1669625637 -1220486860 615831816 12447398 -763670984 197599035 332393987 592347868 807071647 -1560711724 436918158 -998617146 1385279900 1807601765 -1329183548 -714909632 1772805812 1386632316 -109591340 507482258 -975902802 -1775822622 1053607066 54045618 250331699 -894253507 1809427823 1223870557 1586680527 391615135 867808773 387242132 1221015010
REM
CELL 1.54180   50.00000   50.00000   50.00000   90.00000   90.00000   90.00000
LATT -1
SFAC C  
C      1  0.4009590000000  0.5214670000000  0.5236980000000 1.0
C      1  0.4010960000000  0.4970590000000  0.5000190000000 1.0
C      1  0.4530660000000  0.5222360000000  0.5264270000000 1.0
C      1  0.6347480000000  0.4677530000000  0.5494860000000 1.0
C      1  0.5554810000000  0.5787900000000  0.4479310000000 1.0
C      1  0.4605860000000  0.5609680000000  0.4802350000000 1.0
C      1  0.5612410000000  0.5325030000000  0.5714990000000 1.0
C      1  0.5776590000000  0.5636030000000  0.4668800000000 1.0
C      1  0.5398310000000  0.5543850000000  0.4754840000000 1.0
C      1  0.5182740000000  0.5641420000000  0.5850680000000 1.0
C      1  0.4385770000000  0.4571570000000  0.5130980000000 1.0
C      1  0.5270790000000  0.4772540000000  0.5858190000000 1.0
C      1  0.5355890000000  0.4940010000000  0.5493770000000 1.0
C      1  0.5065900000000  0.5692120000000  0.4216470000000 1.0
C      1  0.4647820000000  0.5581180000000  0.5910440000000 1.0
C      1  0.5467850000000  0.4642720000000  0.5496640000000 1.0
C      1  0.4311070000000  0.5246650000000  0.4236620000000 1.0
C      1  0.4626050000000  0.5300920000000  0.4652530000000 1.0
C      1  0.5579140000000  0.5442090000000  0.5221930000000 1.0
C      1  0.5117590000000  0.4081440000000  0.4709430000000 1.0
C      1  0.6115150000000  0.4664180000000  0.5384090000000 1.0
C      1  0.5608080000000  0.4358680000000  0.4473540000000 1.0
C      1  0.4648770000000  0.4721160000000  0.5267750000000 1.0
C      1  0.4211940000000  0.5174040000000  0.4814650000000 1.0
C      1  0.5429400000000  0.4865020000000  0.5167120000000 1.0
C      1  0.4970230000000  0.5957760000000  0.5464360000000 1.0
C      1  0.4069990000000  0.5495970000000  0.5202920000000 1.0
C      1  0.5279980000000  0.5176870000000  0.3970210000000 1.0
C      1  0.5236260000000  0.4650490000000  0.4349100000000 1.0
C      1  0.4250010000000  0.5219980000000  0.5679570000000 1.0
C      1  0.5304620000000  0.5235690000000  0.5206340000000 1.0
C      1  0.5044010000000  0.4859550000000  0.6078200000000 1.0
C      1  0.5146410000000  0.6017770000000  0.4714760000000 1.0
C      1  0.5104600000000  0.5298240000000  0.4237610000000 1.0
C      1  0.4602050000000  0.5044060000000  0.6039420000000 1.0
C      1  0.5409070000000  0.5717260000000  0.5115090000000 1.0
C      1  0.5404810000000  0.4189830000000  0.4295510000000 1.0
C      1  0.5368520000000  0.4622630000000  0.4023620000000 1.0
C      1  0.4686340000000  0.5847040000000  0.4602740000000 1.0
C      1  0.5099820000000  0.5621590000000  0.4736760000000 1.0
C      1  0.4524450000000  0.4840630000000  0.5625510000000 1.0
C      1  0.4788140000000  0.4955050000000  0.5457220000000 1.0
C      1  0.5018950000000  0.4382960000000  0.4581840000000 1.0
C      1  0.4825240000000  0.4517080000000  0.5678210000000 1.0
C      1  0.5325370000000  0.5581980000000  0.4411530000000 1.0
C      1  0.5972920000000  0.4605800000000  0.5098130000000 1.0
C      1  0.4573460000000  0.5266640000000  0.4041840000000 1.0
C      1  0.4101890000000  0.4840100000000  0.4509500000000 1.0
C      1  0.4938340000000  0.4967010000000  0.4379460000000 1.0
C      1  0.4585550000000  0.4081400000000  0.4798930000000 1.0
C      1  0.5046550000000  0.5043510000000  0.5242000000000 1.0
C      1  0.4416250000000  0.5026790000000  0.5824640000000 1.0
C      1  0.4920370000000  0.5365750000000  0.4795220000000 1.0
C      1  0.4927970000000  0.4969870000000  0.4098730000000 1.0
C      1  0.5753660000000  0.5217300000000  0.5033800000000 1.0
C      1  0.5439360000000  0.5289560000000  0.4454660000000 1.0
C      1  0.4207840000000  0.5647990000000  0.4806130000000 1.0
C      1  0.5172700000000  0.3967890000000  0.5026380000000 1.0
C      1  0.4418050000000  0.4490990000000  0.5911140000000 1.0
C      1  0.5424630000000  0.6011310000000  0.4668030000000 1.0
C      1  0.4335330000000  0.4957600000000  0.5201240000000 1.0
C      1  0.5546900000000  0.4136080000000  0.5346630000000 1.0
C      1  0.4069810000000  0.5096670000000  0.5491400000000 1.0
C      1  0.4571860000000  0.4756980000000  0.4633310000000 1.0
C      1  0.5041150000000  0.4589930000000  0.4074330000000 1.0
C      1  0.5163250000000  0.5894410000000  0.5667820000000 1.0
C      1  0.4424120000000  0.5453820000000  0.4435580000000 1.0
C      1  0.4305900000000  0.4743170000000  0.4158160000000 1.0
C      1  0.4813760000000  0.5508410000000  0.4050120000000 1.0
C      1  0.4925900000000  0.4878910000000  0.4896640000000 1.0
C      1  0.5125200000000  0.5479200000000  0.3951200000000 1.0
C      1  0.5470620000000  0.4654560000000  0.4918330000000 1.0
C      1  0.4162820000000  0.4977860000000  0.4139160000000 1.0
C      1  0.5069170000000  0.4683060000000  0.5596170000000 1.0
C      1  0.4059870000000  0.4649750000000  0.5109860000000 1.0
C      1  0.5803990000000  0.4695130000000  0.5447870000000 1.0
C      1  0.5239260000000  0.5023530000000  0.4487780000000 1.0
C      1  0.4904570000000  0.5462170000000  0.5446780000000 1.0
C      1  0.5808340000000  0.5210600000000  0.5500530000000 1.0
C      1  0.4706780000000  0.5015550000000  0.4543560000000 1.0
C      1  0.5628350000000  0.4904140000000  0.4823880000000 1.0
C      1  0.5483980000000  0.5555810000000  0.5529000000000 1.0
C      1  0.5544990000000  0.4763300000000  0.4252280000000 1.0
C      1  0.4791000000000  0.4231440000000  0.4295400000000 1.0
C      1  0.5435050000000  0.5859660000000  0.5567560000000 1.0
C      1  0.4745930000000  0.4529230000000  0.4467100000000 1.0
C      1  0.4870670000000  0.3920940000000  0.4875540000000 1.0
C      1  0.4326640000000  0.4632810000000  0.4443470000000 1.0
C      1  0.5077400000000  0.4736100000000  0.5296060000000 1.0
C      1  0.5792300000000  0.4601340000000  0.4364170000000 1.0
C      1  0.5058840000000  0.6113650000000  0.5238340000000 1.0
C      1  0.4290870000000  0.4211000000000  0.5508020000000 1.0
C      1  0.4930790000000  0.5341470000000  0.5125910000000 1.0
C      1  0.5054430000000  0.5136650000000  0.5921300000000 1.0
C      1  0.5242910000000  0.4269790000000  0.5126250000000 1.0
C      1  0.4847910000000  0.4569180000000  0.4890380000000 1.0
C      1  0.5627750000000  0.5053010000000  0.4575530000000 1.0
C      1  0.5854280000000  0.4928170000000  0.4444900000000 1.0
C      1  0.4108890000000  0.4480150000000  0.5402380000000 1.0
C      1  0.5168330000000  0.4868320000000  0.3910410000000 1.0
C      1  0.4753080000000  0.4530300000000  0.4135820000000 1.0
C      1  0.5424460000000  0.5065910000000  0.5789210000000 1.0
C      1  0.4491750000000  0.4093340000000  0.5654070000000 1.0
C      1  0.5776830000000  0.4357270000000  0.5209050000000 1.0
C      1  0.4815730000000  0.4040210000000  0.4554670000000 1.0
C      1  0.6032660000000  0.4606710000000  0.4593660000000 1.0
C      1  0.5247710000000  0.4983760000000  0.4903960000000 1.0
C      1  0.5470950000000  0.5956820000000  0.5310470000000 1.0
C      1  0.4577200000000  0.5536470000000  0.5194270000000 1.0
C      1  0.4643320000000  0.4416290000000  0.5406890000000 1.0
C      1  0.4694680000000  0.5000040000000  0.5072020000000 1.0
C      1  0.3963170000000  0.4750470000000  0.4744780000000 1.0
C      1  0.5017870000000  0.6025780000000  0.4968530000000 1.0
C      1  0.5441160000000  0.5263310000000  0.4895100000000 1.0
C      1  0.4518650000000  0.5834430000000  0.4355560000000 1.0
C      1  0.4927680000000  0.5478410000000  0.5759210000000 1.0
C      1  0.6306270000000  0.5391800000000  0.5454200000000 1.0
C      1  0.4319950000000  0.4587370000000  0.5637660000000 1.0
C      1  0.5071930000000  0.5657640000000  0.5114620000000 1.0
C      1  0.4069760000000  0.4445370000000  0.4853650000000 1.0
C      1  0.5295760000000  0.4447890000000  0.5825760000000 1.0
C      1  0.4958860000000  0.5390620000000  0.4453660000000 1.0
C      1  0.4755360000000  0.5743410000000  0.5399840000000 1.0
C      1  0.4761180000000  0.4798190000000  0.6085630000000 1.0
C      1  0.4344230000000  0.4432530000000  0.4677230000000 1.0
C      1  0.4712100000000  0.5551130000000  0.4340920000000 1.0
C      1  0.5056880000000  0.5024910000000  0.5637630000000 1.0
C      1  0.5527780000000  0.4351570000000  0.5011310000000 1.0
C      1  0.4562520000000  0.5604310000000  0.5620710000000 1.0
C      1  0.5426740000000  0.3922560000000  0.5195970000000 1.0
C      1  0.4471090000000  0.4808090000000  0.4921740000000 1.0
C      1  0.4199480000000  0.5109330000000  0.4529050000000 1.0
C      1  0.5137130000000  0.4435400000000  0.4894520000000 1.0
C      1  0.5698410000000  0.4985930000000  0.5331420000000 1.0
C      1  0.4681800000000  0.4563750000000  0.5940270000000 1.0
C      1  0.4471710000000  0.5897790000000  0.5071060000000 1.0
C      1  0.4375610000000  0.5405650000000  0.4945530000000 1.0
C      1  0.4789900000000  0.5806100000000  0.4991820000000 1.0
C      1  0.4397580000000  0.4275380000000  0.5216050000000 1.0
C      1  0.5069920000000  0.4286340000000  0.5645450000000 1.0
C      1  0.5911120000000  0.4918510000000  0.4979080000000 1.0
C      1  0.5446120000000  0.5063950000000  0.4220080000000 1.0
C      1  0.5145430000000  0.4769640000000  0.4656390000000 1.0
C      1  0.4423340000000  0.5385120000000  0.5528190000000 1.0
C      1  0.5509010000000  0.5574220000000  0.5923960000000 1.0
C      1  0.5131170000000  0.4195490000000  0.4326720000000 1.0
C      1  0.5969640000000  0.4441670000000  0.4816150000000 1.0
C      1  0.5300170000000  0.4355080000000  0.5437400000000 1.0
C      1  0.6060940000000  0.5302520000000  0.5477020000000 1.0
C      1  0.5868990000000  0.5407090000000  0.4781600000000 1.0
C      1  0.4230060000000  0.5656150000000  0.4554640000000 1.0
C      1  0.6060860000000  0.4896720000000  0.4681100000000 1.0
C      1  0.5286950000000  0.5329610000000  0.5945220000000 1.0
C      1  0.5724520000000  0.4295340000000  0.4769800000000 1.0
C      1  0.4781970000000  0.5284310000000  0.5999420000000 1.0
C      1  0.4277450000000  0.5697500000000  0.5195780000000 1.0
C      1  0.4168440000000  0.4813020000000  0.5450350000000 1.0
C      1  0.4670540000000  0.4998920000000  0.3987900000000 1.0
C      1  0.4987240000000  0.5823830000000  0.4520140000000 1.0
C      1  0.5382660000000  0.4470780000000  0.4661650000000 1.0
C      1  0.4640590000000  0.4409830000000  0.4832130000000 1.0
C      1  0.4307950000000  0.4209950000000  0.4927550000000 1.0
C      1  0.5686430000000  0.4387860000000  0.5528190000000 1.0
C      1  0.4551290000000  0.4736310000000  0.4025240000000 1.0
C      1  0.5576310000000  0.5807220000000  0.4871220000000 1.0
C      1  0.4769620000000  0.4143370000000  0.5573980000000 1.0
C      1  0.5213330000000  0.5482140000000  0.5371260000000 1.0
END
