TITL C-2778436-5916-60 0.000500772590614659 125000 -847.360069841048 0 0 146 (C1) n - 1
REM
REM in /home/nfs/bkarasulu/CARBON/AIRSS/Generating-Clusters/REBO/Only-C1/SD-CG/HFTN-CG
REM
REM
REM
REM
REM
REM ./C.cell (11c1c37f851c82e70ff6c80c92926a4b)
REM
REM compiler GCC version 9.2.1 20190827 (Red Hat 9.2.1-1)
REM options -cpp -mtune=generic -march=x86-64 -g -O0 -fpre-include=/usr/include/finclude/math-vector-fortran.h
REM seed 1888253653 -1773038498 1748467817 96559712 1715444719 773630867 -1628062239 -1776902413 1656549969 -1501735715 529209529 1211776368 -1423087520 -1072222575 -144621319 519263845 1786405391 1582874959 -940074474 110977847 -665404476 665912057 -2063024456 -327382596 720541110 -1677283137 809279894 1939582496 -552780196 -858260366 -1838330998 329345551 -2136483682
REM
CELL 1.54180   50.00000   50.00000   50.00000   90.00000   90.00000   90.00000
LATT -1
SFAC C  
C      1  0.5055140000000  0.5878880000000  0.4826850000000 1.0
C      1  0.5119790000000  0.5593190000000  0.5368780000000 1.0
C      1  0.4605910000000  0.4707090000000  0.4181750000000 1.0
C      1  0.4988150000000  0.4793470000000  0.5352430000000 1.0
C      1  0.4796700000000  0.4398280000000  0.4912020000000 1.0
C      1  0.4662280000000  0.4799530000000  0.4651090000000 1.0
C      1  0.5789850000000  0.4462990000000  0.5012580000000 1.0
C      1  0.5370840000000  0.5893350000000  0.5301350000000 1.0
C      1  0.6034440000000  0.5239210000000  0.4953990000000 1.0
C      1  0.5091520000000  0.5991330000000  0.5393710000000 1.0
C      1  0.5659650000000  0.4383200000000  0.5603630000000 1.0
C      1  0.5574910000000  0.3976640000000  0.5171700000000 1.0
C      1  0.5257770000000  0.4900820000000  0.4942230000000 1.0
C      1  0.4937410000000  0.5334620000000  0.4390410000000 1.0
C      1  0.5500730000000  0.4766380000000  0.5367580000000 1.0
C      1  0.5278350000000  0.6083720000000  0.4819370000000 1.0
C      1  0.5077610000000  0.4584120000000  0.4496950000000 1.0
C      1  0.4250030000000  0.5444520000000  0.5409350000000 1.0
C      1  0.4486630000000  0.5671490000000  0.5182200000000 1.0
C      1  0.5294280000000  0.5704670000000  0.4442300000000 1.0
C      1  0.5206200000000  0.4397030000000  0.5126560000000 1.0
C      1  0.4810050000000  0.5079410000000  0.5790440000000 1.0
C      1  0.4916800000000  0.5769060000000  0.4140840000000 1.0
C      1  0.4201380000000  0.5043370000000  0.4739780000000 1.0
C      1  0.5289340000000  0.5157980000000  0.3989780000000 1.0
C      1  0.5048790000000  0.5260010000000  0.5956060000000 1.0
C      1  0.4652030000000  0.4612480000000  0.5735970000000 1.0
C      1  0.4105630000000  0.5357770000000  0.4828470000000 1.0
C      1  0.5582730000000  0.5487870000000  0.5623360000000 1.0
C      1  0.4844400000000  0.4150560000000  0.4606330000000 1.0
C      1  0.5088870000000  0.4947410000000  0.5645530000000 1.0
C      1  0.4274360000000  0.4487100000000  0.5446740000000 1.0
C      1  0.4336710000000  0.4856340000000  0.4327240000000 1.0
C      1  0.5566610000000  0.4905200000000  0.5091290000000 1.0
C      1  0.3989660000000  0.5080860000000  0.4982150000000 1.0
C      1  0.4761700000000  0.4592450000000  0.5254640000000 1.0
C      1  0.4530470000000  0.5516000000000  0.4243280000000 1.0
C      1  0.4159270000000  0.5176610000000  0.5472020000000 1.0
C      1  0.4710800000000  0.5236600000000  0.5338700000000 1.0
C      1  0.4947630000000  0.5875380000000  0.5618540000000 1.0
C      1  0.4559180000000  0.4909900000000  0.5702690000000 1.0
C      1  0.5426680000000  0.5718470000000  0.4756380000000 1.0
C      1  0.4306450000000  0.4193330000000  0.4539680000000 1.0
C      1  0.4904400000000  0.4162480000000  0.5760690000000 1.0
C      1  0.5725480000000  0.5118900000000  0.5389220000000 1.0
C      1  0.5445730000000  0.5269600000000  0.5267490000000 1.0
C      1  0.5294260000000  0.4055610000000  0.5313100000000 1.0
C      1  0.5893200000000  0.5004150000000  0.5144750000000 1.0
C      1  0.4723090000000  0.4951680000000  0.5422490000000 1.0
C      1  0.5044600000000  0.4954910000000  0.4245370000000 1.0
C      1  0.5215180000000  0.4678930000000  0.4133660000000 1.0
C      1  0.4206760000000  0.4605570000000  0.4847920000000 1.0
C      1  0.4730010000000  0.4010270000000  0.4878140000000 1.0
C      1  0.4889310000000  0.4577600000000  0.4148190000000 1.0
C      1  0.4684880000000  0.6075960000000  0.4988550000000 1.0
C      1  0.5348800000000  0.5325190000000  0.4822340000000 1.0
C      1  0.4539410000000  0.5033770000000  0.4951110000000 1.0
C      1  0.4627020000000  0.5234010000000  0.4119470000000 1.0
C      1  0.5454350000000  0.5258270000000  0.4504950000000 1.0
C      1  0.4260140000000  0.4961050000000  0.5635280000000 1.0
C      1  0.4781380000000  0.4701480000000  0.4932820000000 1.0
C      1  0.5705120000000  0.5684600000000  0.4303680000000 1.0
C      1  0.5612490000000  0.4013940000000  0.4639150000000 1.0
C      1  0.4475340000000  0.5634890000000  0.5508160000000 1.0
C      1  0.5618740000000  0.4995940000000  0.4503110000000 1.0
C      1  0.4636060000000  0.5930560000000  0.4486780000000 1.0
C      1  0.4693670000000  0.4199330000000  0.5581160000000 1.0
C      1  0.4906990000000  0.6036830000000  0.5162350000000 1.0
C      1  0.5118700000000  0.4427810000000  0.5442040000000 1.0
C      1  0.4789530000000  0.4256280000000  0.5299020000000 1.0
C      1  0.4121090000000  0.4395630000000  0.4607120000000 1.0
C      1  0.5436430000000  0.4504160000000  0.4299160000000 1.0
C      1  0.4752290000000  0.5543500000000  0.5052990000000 1.0
C      1  0.5483790000000  0.4211340000000  0.4467390000000 1.0
C      1  0.5359600000000  0.4291790000000  0.4775190000000 1.0
C      1  0.5152950000000  0.5254390000000  0.5093620000000 1.0
C      1  0.4495330000000  0.4393500000000  0.5647880000000 1.0
C      1  0.4772660000000  0.5990820000000  0.4720900000000 1.0
C      1  0.4443020000000  0.5958960000000  0.5087450000000 1.0
C      1  0.5641220000000  0.5523750000000  0.5144020000000 1.0
C      1  0.4482260000000  0.4725500000000  0.5350090000000 1.0
C      1  0.5239310000000  0.5229850000000  0.4300210000000 1.0
C      1  0.4652910000000  0.5771730000000  0.4252070000000 1.0
C      1  0.4936040000000  0.4353710000000  0.4369670000000 1.0
C      1  0.4385470000000  0.5547300000000  0.4614550000000 1.0
C      1  0.4492640000000  0.5260200000000  0.5154570000000 1.0
C      1  0.5579110000000  0.4173700000000  0.5437580000000 1.0
C      1  0.5288150000000  0.4669310000000  0.5584020000000 1.0
C      1  0.5770550000000  0.4669790000000  0.5510470000000 1.0
C      1  0.4923270000000  0.4555720000000  0.5691660000000 1.0
C      1  0.4906360000000  0.5406690000000  0.5500650000000 1.0
C      1  0.5026820000000  0.4059110000000  0.5242350000000 1.0
C      1  0.5234230000000  0.4896280000000  0.5944350000000 1.0
C      1  0.5163540000000  0.4352160000000  0.5801370000000 1.0
C      1  0.4608760000000  0.5255490000000  0.4449050000000 1.0
C      1  0.5162940000000  0.5203420000000  0.5433300000000 1.0
C      1  0.4569170000000  0.4291180000000  0.4509140000000 1.0
C      1  0.3985500000000  0.5078370000000  0.5261540000000 1.0
C      1  0.4997820000000  0.5715580000000  0.5120640000000 1.0
C      1  0.4203400000000  0.4692170000000  0.4518750000000 1.0
C      1  0.5649980000000  0.5327550000000  0.4902040000000 1.0
C      1  0.4257520000000  0.5472720000000  0.5066640000000 1.0
C      1  0.5749970000000  0.4811890000000  0.4828180000000 1.0
C      1  0.5498150000000  0.5781540000000  0.5062540000000 1.0
C      1  0.5671220000000  0.4956670000000  0.5674050000000 1.0
C      1  0.4498860000000  0.5060570000000  0.4632600000000 1.0
C      1  0.5538610000000  0.5253270000000  0.5782330000000 1.0
C      1  0.4923640000000  0.3889470000000  0.5034590000000 1.0
C      1  0.5695200000000  0.4669520000000  0.4445580000000 1.0
C      1  0.5851930000000  0.4533440000000  0.4702310000000 1.0
C      1  0.5096390000000  0.5602540000000  0.4284560000000 1.0
C      1  0.4247320000000  0.5132220000000  0.4330610000000 1.0
C      1  0.5453510000000  0.4483420000000  0.5817590000000 1.0
C      1  0.5636350000000  0.3945310000000  0.4902230000000 1.0
C      1  0.4951700000000  0.4858660000000  0.4524650000000 1.0
C      1  0.5350780000000  0.4554720000000  0.4611820000000 1.0
C      1  0.5059080000000  0.4237030000000  0.4861210000000 1.0
C      1  0.4194430000000  0.6077670000000  0.5089560000000 1.0
C      1  0.5912860000000  0.5479090000000  0.4745840000000 1.0
C      1  0.4839600000000  0.5088740000000  0.4023560000000 1.0
C      1  0.5445200000000  0.4801990000000  0.4725640000000 1.0
C      1  0.4775130000000  0.5404570000000  0.5876640000000 1.0
C      1  0.4890320000000  0.5409280000000  0.4686500000000 1.0
C      1  0.4330190000000  0.4444980000000  0.5113570000000 1.0
C      1  0.5100200000000  0.4933700000000  0.6181540000000 1.0
C      1  0.5373660000000  0.5664560000000  0.5528020000000 1.0
C      1  0.5531270000000  0.4349910000000  0.5037970000000 1.0
C      1  0.5774460000000  0.5436420000000  0.5415850000000 1.0
C      1  0.4612150000000  0.5553650000000  0.4748010000000 1.0
C      1  0.4120590000000  0.4722820000000  0.5598460000000 1.0
C      1  0.4580530000000  0.4571130000000  0.4463860000000 1.0
C      1  0.5229530000000  0.4718290000000  0.5192490000000 1.0
C      1  0.5322220000000  0.5284830000000  0.5959360000000 1.0
C      1  0.4741130000000  0.5628380000000  0.5658570000000 1.0
C      1  0.5041940000000  0.5207760000000  0.3848640000000 1.0
C      1  0.5635730000000  0.5539770000000  0.4565120000000 1.0
C      1  0.4839220000000  0.5216600000000  0.4960830000000 1.0
C      1  0.4191200000000  0.5356800000000  0.4497280000000 1.0
C      1  0.4405630000000  0.4779760000000  0.5042840000000 1.0
C      1  0.5499210000000  0.4789550000000  0.5898930000000 1.0
C      1  0.5830460000000  0.5095100000000  0.4735940000000 1.0
C      1  0.5128890000000  0.5563550000000  0.4776420000000 1.0
C      1  0.5872580000000  0.4673160000000  0.5201080000000 1.0
C      1  0.5375470000000  0.4897400000000  0.3960620000000 1.0
C      1  0.4553980000000  0.4244140000000  0.5053940000000 1.0
C      1  0.4982990000000  0.4942480000000  0.4839920000000 1.0
END
