TITL C-2778423-5760-1470 -0.000139883356951093 125000 -292.282178381718 0 0 51 (C1) n - 1
REM
REM in /home/nfs/bkarasulu/CARBON/AIRSS/Generating-Clusters/REBO/Only-C1/SD-CG/HFTN-CG
REM
REM
REM
REM
REM
REM ./C.cell (11c1c37f851c82e70ff6c80c92926a4b)
REM
REM compiler GCC version 9.2.1 20190827 (Red Hat 9.2.1-1)
REM options -cpp -mtune=generic -march=x86-64 -g -O0 -fpre-include=/usr/include/finclude/math-vector-fortran.h
REM seed -812784976 -1747243766 -925123908 1771408240 -825294077 2144288289 1031371596 1647202098 1535714748 -1665636655 -914372137 -1759193436 -2140782815 -13883359 896903182 1381960230 765584139 -41395716 -1599068366 1105169766 -727761690 1330514364 2039848750 -113504025 -366212995 -79866376 1186728239 -101030379 -477157607 97728848 1217910550 -2130030262 -1791807296
REM
CELL 1.54180   50.00000   50.00000   50.00000   90.00000   90.00000   90.00000
LATT -1
SFAC C  
C      1  0.4757100000000  0.5612900000000  0.5120780000000 1.0
C      1  0.4884590000000  0.5584810000000  0.5374640000000 1.0
C      1  0.5423840000000  0.5204110000000  0.4639560000000 1.0
C      1  0.5369080000000  0.4962560000000  0.5621980000000 1.0
C      1  0.4493750000000  0.5214800000000  0.4607170000000 1.0
C      1  0.5186750000000  0.4609550000000  0.5233220000000 1.0
C      1  0.4913270000000  0.4136290000000  0.5020870000000 1.0
C      1  0.5208500000000  0.5203670000000  0.5561790000000 1.0
C      1  0.5302050000000  0.4934280000000  0.4774880000000 1.0
C      1  0.4660230000000  0.5153320000000  0.5459370000000 1.0
C      1  0.5567300000000  0.5305180000000  0.5075300000000 1.0
C      1  0.5775540000000  0.5144790000000  0.4954950000000 1.0
C      1  0.4922640000000  0.5701280000000  0.4899470000000 1.0
C      1  0.4532360000000  0.4565200000000  0.4898760000000 1.0
C      1  0.4241890000000  0.5069650000000  0.5230780000000 1.0
C      1  0.4996990000000  0.5021020000000  0.4889710000000 1.0
C      1  0.5182020000000  0.5589740000000  0.4880900000000 1.0
C      1  0.5400800000000  0.5418320000000  0.4866320000000 1.0
C      1  0.4989770000000  0.5786430000000  0.5530410000000 1.0
C      1  0.5091880000000  0.4742720000000  0.4462660000000 1.0
C      1  0.5363710000000  0.5281090000000  0.4380650000000 1.0
C      1  0.5361190000000  0.4648980000000  0.4629350000000 1.0
C      1  0.5077740000000  0.5161470000000  0.5190720000000 1.0
C      1  0.5208930000000  0.4872230000000  0.5098230000000 1.0
C      1  0.4532130000000  0.5438270000000  0.5075720000000 1.0
C      1  0.5405900000000  0.5166280000000  0.5282250000000 1.0
C      1  0.4902460000000  0.4228200000000  0.5278790000000 1.0
C      1  0.5524970000000  0.4861930000000  0.5377880000000 1.0
C      1  0.5656630000000  0.4769020000000  0.4622240000000 1.0
C      1  0.4460940000000  0.5240150000000  0.5276190000000 1.0
C      1  0.3868960000000  0.4764480000000  0.5186360000000 1.0
C      1  0.4871560000000  0.4841130000000  0.4662520000000 1.0
C      1  0.5684780000000  0.5027010000000  0.4706240000000 1.0
C      1  0.5300420000000  0.4414730000000  0.4811560000000 1.0
C      1  0.4987250000000  0.4326530000000  0.4791920000000 1.0
C      1  0.5069560000000  0.4417530000000  0.4485600000000 1.0
C      1  0.4794550000000  0.4653240000000  0.5514210000000 1.0
C      1  0.4969890000000  0.4489660000000  0.5368110000000 1.0
C      1  0.4448760000000  0.5387620000000  0.4810480000000 1.0
C      1  0.4821600000000  0.5864980000000  0.4706800000000 1.0
C      1  0.5089770000000  0.5978120000000  0.5678510000000 1.0
C      1  0.4775260000000  0.4570950000000  0.4785330000000 1.0
C      1  0.5121620000000  0.4887610000000  0.4201190000000 1.0
C      1  0.5146890000000  0.5010700000000  0.3979080000000 1.0
C      1  0.4642170000000  0.5003090000000  0.4532840000000 1.0
C      1  0.4307050000000  0.4648700000000  0.5016870000000 1.0
C      1  0.5585520000000  0.4629070000000  0.5233910000000 1.0
C      1  0.4671590000000  0.4890140000000  0.5554030000000 1.0
C      1  0.4130920000000  0.4825510000000  0.5145890000000 1.0
C      1  0.5393910000000  0.4447060000000  0.5080420000000 1.0
C      1  0.4923040000000  0.5293870000000  0.5432570000000 1.0
END
