TITL C-2778433-5640-1253 -0.000741535044383446 125000 -984.892428694969 0 0 169 (C1) n - 1
REM
REM in /home/nfs/bkarasulu/CARBON/AIRSS/Generating-Clusters/REBO/Only-C1/SD-CG/HFTN-CG
REM
REM
REM
REM
REM
REM ./C.cell (11c1c37f851c82e70ff6c80c92926a4b)
REM
REM compiler GCC version 9.2.1 20190827 (Red Hat 9.2.1-1)
REM options -cpp -mtune=generic -march=x86-64 -g -O0 -fpre-include=/usr/include/finclude/math-vector-fortran.h
REM seed 168595083 -1839219162 83100565 -1131743096 1640716604 893645759 -1825490186 -1213194189 245461165 -2063400943 -480111305 -1944555379 -734891327 1868329955 337403259 -104193986 -1866360732 -239657995 1266788555 1278532285 2000620491 -1525927527 861162789 -1704657164 -289288067 120131163 1069072879 1058280696 167253692 297461475 -917006109 489307975 -1015832864
REM
CELL 1.54180   50.00000   50.00000   50.00000   90.00000   90.00000   90.00000
LATT -1
SFAC C  
C      1  0.5987080000000  0.4817130000000  0.5244220000000 1.0
C      1  0.5375590000000  0.5385220000000  0.5093070000000 1.0
C      1  0.4314290000000  0.5442810000000  0.4172660000000 1.0
C      1  0.4724040000000  0.4352270000000  0.4154010000000 1.0
C      1  0.5257820000000  0.5016130000000  0.5411310000000 1.0
C      1  0.4855890000000  0.5351160000000  0.5433580000000 1.0
C      1  0.5121710000000  0.5341440000000  0.4032120000000 1.0
C      1  0.5337160000000  0.5175930000000  0.5647590000000 1.0
C      1  0.5180960000000  0.4485820000000  0.4705660000000 1.0
C      1  0.4288450000000  0.4407730000000  0.4744040000000 1.0
C      1  0.4323350000000  0.5665230000000  0.4659740000000 1.0
C      1  0.5309080000000  0.4667980000000  0.5176930000000 1.0
C      1  0.6125480000000  0.5022720000000  0.4778340000000 1.0
C      1  0.5107410000000  0.5772220000000  0.5564780000000 1.0
C      1  0.5184630000000  0.4431020000000  0.5020520000000 1.0
C      1  0.5301970000000  0.5474040000000  0.4246880000000 1.0
C      1  0.5424150000000  0.4992250000000  0.4390840000000 1.0
C      1  0.5937590000000  0.4484800000000  0.5091050000000 1.0
C      1  0.5149730000000  0.4196170000000  0.5166740000000 1.0
C      1  0.5493820000000  0.4569470000000  0.4738240000000 1.0
C      1  0.4953270000000  0.4262650000000  0.4637260000000 1.0
C      1  0.5080260000000  0.3990410000000  0.4698100000000 1.0
C      1  0.5573880000000  0.4674160000000  0.4202550000000 1.0
C      1  0.5198980000000  0.5048350000000  0.3975080000000 1.0
C      1  0.5487820000000  0.5055540000000  0.5914680000000 1.0
C      1  0.5457100000000  0.5076280000000  0.5156850000000 1.0
C      1  0.5019550000000  0.5826660000000  0.4497240000000 1.0
C      1  0.4165120000000  0.4863720000000  0.4645780000000 1.0
C      1  0.4554350000000  0.3920530000000  0.4826500000000 1.0
C      1  0.4620190000000  0.5049950000000  0.4825050000000 1.0
C      1  0.4393260000000  0.4656260000000  0.4634820000000 1.0
C      1  0.5286920000000  0.5841370000000  0.5330880000000 1.0
C      1  0.5763160000000  0.4858020000000  0.4750860000000 1.0
C      1  0.5237120000000  0.4720860000000  0.4474580000000 1.0
C      1  0.5507840000000  0.6167040000000  0.5286140000000 1.0
C      1  0.5356900000000  0.5911110000000  0.4102630000000 1.0
C      1  0.5296250000000  0.5293770000000  0.6026470000000 1.0
C      1  0.5685880000000  0.5056930000000  0.4503470000000 1.0
C      1  0.4641950000000  0.5760350000000  0.5676050000000 1.0
C      1  0.5298610000000  0.4178650000000  0.5403980000000 1.0
C      1  0.4388590000000  0.6092660000000  0.4865820000000 1.0
C      1  0.4454540000000  0.4960610000000  0.5119650000000 1.0
C      1  0.5091050000000  0.4613870000000  0.4186720000000 1.0
C      1  0.5868150000000  0.5320970000000  0.4403650000000 1.0
C      1  0.5729580000000  0.4292550000000  0.5532230000000 1.0
C      1  0.5076360000000  0.5473080000000  0.5620070000000 1.0
C      1  0.4522220000000  0.5926930000000  0.4686790000000 1.0
C      1  0.5201880000000  0.5662430000000  0.5098080000000 1.0
C      1  0.5365130000000  0.3987520000000  0.4884670000000 1.0
C      1  0.4445330000000  0.5617570000000  0.5359900000000 1.0
C      1  0.6023860000000  0.5069860000000  0.4522850000000 1.0
C      1  0.5314860000000  0.4704270000000  0.5516250000000 1.0
C      1  0.4464350000000  0.4369050000000  0.4367170000000 1.0
C      1  0.5059240000000  0.5356570000000  0.5900520000000 1.0
C      1  0.4248590000000  0.5938340000000  0.5065510000000 1.0
C      1  0.4810160000000  0.4913510000000  0.4492340000000 1.0
C      1  0.5123730000000  0.4757410000000  0.5799750000000 1.0
C      1  0.5768650000000  0.5724630000000  0.5585180000000 1.0
C      1  0.5647360000000  0.4786310000000  0.5530510000000 1.0
C      1  0.4292980000000  0.5158080000000  0.4582290000000 1.0
C      1  0.4210340000000  0.4071270000000  0.5154520000000 1.0
C      1  0.4281680000000  0.5174590000000  0.4069180000000 1.0
C      1  0.5719230000000  0.5078790000000  0.5694960000000 1.0
C      1  0.3920490000000  0.5174010000000  0.4930270000000 1.0
C      1  0.4921300000000  0.4915940000000  0.6009940000000 1.0
C      1  0.6085440000000  0.5237900000000  0.4953990000000 1.0
C      1  0.4113550000000  0.5024310000000  0.5631170000000 1.0
C      1  0.5510570000000  0.4827650000000  0.4959160000000 1.0
C      1  0.5787330000000  0.5386480000000  0.5649650000000 1.0
C      1  0.5201140000000  0.4930550000000  0.4728240000000 1.0
C      1  0.5707490000000  0.4660020000000  0.4478650000000 1.0
C      1  0.4044410000000  0.4530210000000  0.4927750000000 1.0
C      1  0.5387680000000  0.4459650000000  0.4173420000000 1.0
C      1  0.5060430000000  0.5405230000000  0.4828340000000 1.0
C      1  0.5400850000000  0.5472890000000  0.5594590000000 1.0
C      1  0.5322640000000  0.4385450000000  0.5599510000000 1.0
C      1  0.5576010000000  0.4112410000000  0.5351450000000 1.0
C      1  0.4027730000000  0.5422100000000  0.5136540000000 1.0
C      1  0.4714040000000  0.5235700000000  0.4275780000000 1.0
C      1  0.4842300000000  0.5181820000000  0.5935690000000 1.0
C      1  0.5587480000000  0.5592980000000  0.5834980000000 1.0
C      1  0.4010860000000  0.5435060000000  0.4740230000000 1.0
C      1  0.4436730000000  0.4265550000000  0.4979500000000 1.0
C      1  0.4887750000000  0.4263060000000  0.6071850000000 1.0
C      1  0.4188330000000  0.5456550000000  0.4456750000000 1.0
C      1  0.5457680000000  0.4938870000000  0.4078390000000 1.0
C      1  0.4412130000000  0.5898370000000  0.5298410000000 1.0
C      1  0.5532250000000  0.5526700000000  0.5331140000000 1.0
C      1  0.4669280000000  0.4376590000000  0.5168600000000 1.0
C      1  0.4260910000000  0.4472490000000  0.5425120000000 1.0
C      1  0.4849000000000  0.5875000000000  0.5517610000000 1.0
C      1  0.5066010000000  0.4328270000000  0.4356760000000 1.0
C      1  0.4853380000000  0.4226000000000  0.3972730000000 1.0
C      1  0.5762730000000  0.5571690000000  0.4454040000000 1.0
C      1  0.4594320000000  0.5452670000000  0.5595460000000 1.0
C      1  0.4904620000000  0.5344500000000  0.5096620000000 1.0
C      1  0.5564290000000  0.4357800000000  0.5780340000000 1.0
C      1  0.4388600000000  0.4772990000000  0.5488340000000 1.0
C      1  0.4002640000000  0.4210340000000  0.4935460000000 1.0
C      1  0.5399350000000  0.4772850000000  0.5961180000000 1.0
C      1  0.5624830000000  0.4074880000000  0.5073270000000 1.0
C      1  0.4652770000000  0.4765340000000  0.4724230000000 1.0
C      1  0.5222050000000  0.5218440000000  0.4397360000000 1.0
C      1  0.5694350000000  0.5061060000000  0.5359430000000 1.0
C      1  0.5671440000000  0.6384310000000  0.5246870000000 1.0
C      1  0.4995540000000  0.5159590000000  0.4602120000000 1.0
C      1  0.5977310000000  0.5149660000000  0.5225570000000 1.0
C      1  0.5337260000000  0.5212750000000  0.4800980000000 1.0
C      1  0.5465690000000  0.4107090000000  0.4587190000000 1.0
C      1  0.4278000000000  0.5112930000000  0.3805480000000 1.0
C      1  0.5340850000000  0.4188710000000  0.4338680000000 1.0
C      1  0.5199860000000  0.6163450000000  0.5301220000000 1.0
C      1  0.5034970000000  0.5044770000000  0.5193320000000 1.0
C      1  0.4054440000000  0.4743370000000  0.5452570000000 1.0
C      1  0.4821580000000  0.4633530000000  0.5746000000000 1.0
C      1  0.4585530000000  0.5230140000000  0.5808870000000 1.0
C      1  0.4800550000000  0.5879820000000  0.5208120000000 1.0
C      1  0.4611160000000  0.5257530000000  0.4561520000000 1.0
C      1  0.5188810000000  0.5869030000000  0.4299250000000 1.0
C      1  0.4519240000000  0.4760570000000  0.5865080000000 1.0
C      1  0.4357290000000  0.4694640000000  0.4315480000000 1.0
C      1  0.4927740000000  0.6240410000000  0.5321710000000 1.0
C      1  0.4618610000000  0.5542920000000  0.4698540000000 1.0
C      1  0.4356700000000  0.5104280000000  0.5413950000000 1.0
C      1  0.4400590000000  0.5015470000000  0.5803800000000 1.0
C      1  0.4949900000000  0.5763920000000  0.5001280000000 1.0
C      1  0.4129610000000  0.5681400000000  0.4939520000000 1.0
C      1  0.5658780000000  0.4307800000000  0.4655600000000 1.0
C      1  0.4084310000000  0.5291600000000  0.5420050000000 1.0
C      1  0.5850420000000  0.5427260000000  0.5332590000000 1.0
C      1  0.4261080000000  0.5182530000000  0.4923260000000 1.0
C      1  0.5836540000000  0.4556760000000  0.5405310000000 1.0
C      1  0.4217850000000  0.3964070000000  0.4837540000000 1.0
C      1  0.4839530000000  0.4334730000000  0.5808340000000 1.0
C      1  0.4369460000000  0.5427750000000  0.5133960000000 1.0
C      1  0.4989780000000  0.4855470000000  0.4036800000000 1.0
C      1  0.4628720000000  0.6137010000000  0.5314180000000 1.0
C      1  0.5616780000000  0.5857930000000  0.5336890000000 1.0
C      1  0.4565700000000  0.5564560000000  0.4103420000000 1.0
C      1  0.4747010000000  0.4337170000000  0.4845200000000 1.0
C      1  0.4292170000000  0.4991320000000  0.4281120000000 1.0
C      1  0.4837560000000  0.5427780000000  0.4079160000000 1.0
C      1  0.4623580000000  0.5348870000000  0.4950540000000 1.0
C      1  0.4809300000000  0.4151370000000  0.5612740000000 1.0
C      1  0.5464800000000  0.5605730000000  0.4440750000000 1.0
C      1  0.5976500000000  0.5479720000000  0.4865310000000 1.0
C      1  0.4699210000000  0.4782660000000  0.5507800000000 1.0
C      1  0.5356240000000  0.5547700000000  0.4732380000000 1.0
C      1  0.5682060000000  0.5629230000000  0.4774960000000 1.0
C      1  0.6017910000000  0.4756980000000  0.4917410000000 1.0
C      1  0.4702660000000  0.4756300000000  0.6105980000000 1.0
C      1  0.4650040000000  0.4685250000000  0.5200390000000 1.0
C      1  0.5555620000000  0.4550940000000  0.5986840000000 1.0
C      1  0.4688970000000  0.4625810000000  0.4353080000000 1.0
C      1  0.4836990000000  0.4651820000000  0.4938660000000 1.0
C      1  0.5818440000000  0.5652300000000  0.5085990000000 1.0
C      1  0.5845920000000  0.4224310000000  0.4995620000000 1.0
C      1  0.4662530000000  0.4113040000000  0.5351570000000 1.0
C      1  0.4358590000000  0.4229490000000  0.5369290000000 1.0
C      1  0.5084590000000  0.4815920000000  0.4982430000000 1.0
C      1  0.4825310000000  0.5778040000000  0.4724460000000 1.0
C      1  0.5043390000000  0.3948780000000  0.5014380000000 1.0
C      1  0.5903130000000  0.4384150000000  0.4506570000000 1.0
C      1  0.4738490000000  0.5054870000000  0.5315020000000 1.0
C      1  0.4441490000000  0.4146720000000  0.4598730000000 1.0
C      1  0.3980800000000  0.4864210000000  0.4895070000000 1.0
C      1  0.4776690000000  0.4967970000000  0.4176690000000 1.0
C      1  0.4732660000000  0.3945240000000  0.5063630000000 1.0
C      1  0.4173490000000  0.4763210000000  0.5141330000000 1.0
END
