TITL C-2778437-8639-1002 -0.00263561108964114 125000 -994.189901868527 0 0 171 (C1) n - 1
REM
REM in /home/nfs/bkarasulu/CARBON/AIRSS/Generating-Clusters/REBO/Only-C1/SD-CG/HFTN-CG
REM
REM
REM
REM
REM
REM ./C.cell (11c1c37f851c82e70ff6c80c92926a4b)
REM
REM compiler GCC version 9.2.1 20190827 (Red Hat 9.2.1-1)
REM options -cpp -mtune=generic -march=x86-64 -g -O0 -fpre-include=/usr/include/finclude/math-vector-fortran.h
REM seed 108268957 717803603 353389995 1089881469 -73159958 330106487 -1388640470 1248548905 -31556705 2099633381 628791730 -975519510 15310796 -62827936 -262930418 -308568904 -684073189 503281824 -1753237674 184606077 -151640493 -1806566292 1610562905 -758312058 1166507624 1195065868 -1444824104 -967548131 1490545483 1150161084 942827563 1872423201 -591313561
REM
CELL 1.54180   50.00000   50.00000   50.00000   90.00000   90.00000   90.00000
LATT -1
SFAC C  
C      1  0.4351420000000  0.5245610000000  0.5913270000000 1.0
C      1  0.5357670000000  0.5467370000000  0.4605040000000 1.0
C      1  0.5303560000000  0.5187310000000  0.5653850000000 1.0
C      1  0.4758910000000  0.5158940000000  0.4227890000000 1.0
C      1  0.5691500000000  0.4673570000000  0.4164400000000 1.0
C      1  0.4835140000000  0.4652780000000  0.6017470000000 1.0
C      1  0.5676580000000  0.4309360000000  0.4649460000000 1.0
C      1  0.4857910000000  0.5722100000000  0.4694140000000 1.0
C      1  0.5369940000000  0.4822620000000  0.4785540000000 1.0
C      1  0.4713720000000  0.5870070000000  0.5301890000000 1.0
C      1  0.4077070000000  0.4786280000000  0.4414870000000 1.0
C      1  0.5389170000000  0.5309660000000  0.5361410000000 1.0
C      1  0.4318680000000  0.5931620000000  0.4742240000000 1.0
C      1  0.4525690000000  0.4639310000000  0.4691860000000 1.0
C      1  0.5685430000000  0.5585680000000  0.4413570000000 1.0
C      1  0.5526920000000  0.5438170000000  0.5713940000000 1.0
C      1  0.4982820000000  0.4219690000000  0.5357800000000 1.0
C      1  0.5338840000000  0.4930750000000  0.5245200000000 1.0
C      1  0.4553500000000  0.4642050000000  0.5271940000000 1.0
C      1  0.4111980000000  0.5390300000000  0.4874130000000 1.0
C      1  0.5953810000000  0.5281670000000  0.5065830000000 1.0
C      1  0.5040520000000  0.4053130000000  0.4840400000000 1.0
C      1  0.5820450000000  0.4210220000000  0.5107230000000 1.0
C      1  0.5578040000000  0.5642270000000  0.5472900000000 1.0
C      1  0.5520280000000  0.5770750000000  0.4614700000000 1.0
C      1  0.5612210000000  0.4943390000000  0.5722120000000 1.0
C      1  0.5511320000000  0.4188420000000  0.4377290000000 1.0
C      1  0.4666790000000  0.4646410000000  0.4978220000000 1.0
C      1  0.5547490000000  0.5463890000000  0.4861200000000 1.0
C      1  0.4799150000000  0.5031000000000  0.5266200000000 1.0
C      1  0.5168260000000  0.4380010000000  0.4575570000000 1.0
C      1  0.5903570000000  0.4523980000000  0.4634030000000 1.0
C      1  0.4601290000000  0.5537680000000  0.5112750000000 1.0
C      1  0.4764610000000  0.4874050000000  0.6161360000000 1.0
C      1  0.4730210000000  0.4361010000000  0.5529140000000 1.0
C      1  0.5282810000000  0.5022470000000  0.5933760000000 1.0
C      1  0.5737550000000  0.5039310000000  0.4604900000000 1.0
C      1  0.5930800000000  0.4893280000000  0.4973760000000 1.0
C      1  0.5367160000000  0.4215370000000  0.5521960000000 1.0
C      1  0.5087830000000  0.4696050000000  0.4649520000000 1.0
C      1  0.4086350000000  0.5057800000000  0.5490740000000 1.0
C      1  0.5577990000000  0.4362780000000  0.5750650000000 1.0
C      1  0.5072610000000  0.5189340000000  0.4629480000000 1.0
C      1  0.4236950000000  0.5265810000000  0.4319970000000 1.0
C      1  0.5159310000000  0.4664550000000  0.5323070000000 1.0
C      1  0.4987450000000  0.4131790000000  0.4513660000000 1.0
C      1  0.4284440000000  0.4477130000000  0.5233030000000 1.0
C      1  0.4369710000000  0.4269950000000  0.5003440000000 1.0
C      1  0.5305210000000  0.5780560000000  0.4878700000000 1.0
C      1  0.4557660000000  0.5580970000000  0.4617390000000 1.0
C      1  0.4855210000000  0.5708910000000  0.5034250000000 1.0
C      1  0.4315990000000  0.4544280000000  0.4437780000000 1.0
C      1  0.6093370000000  0.4810590000000  0.4692750000000 1.0
C      1  0.5327490000000  0.5862880000000  0.5397940000000 1.0
C      1  0.4647190000000  0.5258110000000  0.3966560000000 1.0
C      1  0.5635900000000  0.5092880000000  0.5454850000000 1.0
C      1  0.4639240000000  0.4927290000000  0.4330130000000 1.0
C      1  0.5955250000000  0.5507530000000  0.4564240000000 1.0
C      1  0.4951780000000  0.4525310000000  0.4913880000000 1.0
C      1  0.4606390000000  0.4249170000000  0.5239760000000 1.0
C      1  0.5938810000000  0.5542360000000  0.4847900000000 1.0
C      1  0.4327290000000  0.4853950000000  0.5371950000000 1.0
C      1  0.5930910000000  0.5282880000000  0.4354960000000 1.0
C      1  0.5099040000000  0.5043260000000  0.5426910000000 1.0
C      1  0.4903410000000  0.5710570000000  0.5611230000000 1.0
C      1  0.4666380000000  0.4949490000000  0.4897930000000 1.0
C      1  0.5025320000000  0.5975990000000  0.5281260000000 1.0
C      1  0.4532510000000  0.4414480000000  0.4242530000000 1.0
C      1  0.4837080000000  0.3915320000000  0.5308000000000 1.0
C      1  0.5004800000000  0.4254430000000  0.5686930000000 1.0
C      1  0.4456520000000  0.4791900000000  0.3899810000000 1.0
C      1  0.4685140000000  0.4232070000000  0.4436830000000 1.0
C      1  0.5468750000000  0.4815880000000  0.4062820000000 1.0
C      1  0.4141120000000  0.5695400000000  0.4871880000000 1.0
C      1  0.4587990000000  0.5351440000000  0.6026920000000 1.0
C      1  0.5257850000000  0.4633350000000  0.3981830000000 1.0
C      1  0.4542500000000  0.4230970000000  0.4711610000000 1.0
C      1  0.4938710000000  0.5296160000000  0.4376070000000 1.0
C      1  0.5405820000000  0.5117400000000  0.4601110000000 1.0
C      1  0.4051150000000  0.5275980000000  0.5252560000000 1.0
C      1  0.3990810000000  0.4793270000000  0.5004680000000 1.0
C      1  0.5064300000000  0.5962820000000  0.4810330000000 1.0
C      1  0.6079830000000  0.4669980000000  0.5259860000000 1.0
C      1  0.5678740000000  0.4913310000000  0.5187120000000 1.0
C      1  0.6070970000000  0.5012520000000  0.5246590000000 1.0
C      1  0.5065350000000  0.5234140000000  0.3982780000000 1.0
C      1  0.5139560000000  0.5871210000000  0.5646170000000 1.0
C      1  0.4930010000000  0.5304510000000  0.5685330000000 1.0
C      1  0.4385630000000  0.5487260000000  0.4358240000000 1.0
C      1  0.4379350000000  0.5806920000000  0.5335090000000 1.0
C      1  0.5326320000000  0.4593000000000  0.5036470000000 1.0
C      1  0.5554650000000  0.4672190000000  0.5720170000000 1.0
C      1  0.5362520000000  0.4559000000000  0.4359490000000 1.0
C      1  0.5293390000000  0.4221230000000  0.5855740000000 1.0
C      1  0.5643250000000  0.4155330000000  0.4902600000000 1.0
C      1  0.5702830000000  0.5197560000000  0.4870230000000 1.0
C      1  0.4930030000000  0.4682810000000  0.4002280000000 1.0
C      1  0.3968300000000  0.5102850000000  0.4994670000000 1.0
C      1  0.5072100000000  0.5428780000000  0.5394640000000 1.0
C      1  0.4932410000000  0.5113790000000  0.4993790000000 1.0
C      1  0.4657320000000  0.5779510000000  0.4353100000000 1.0
C      1  0.5923270000000  0.5220280000000  0.5450110000000 1.0
C      1  0.4889820000000  0.5665290000000  0.4237740000000 1.0
C      1  0.4709090000000  0.5539080000000  0.5810710000000 1.0
C      1  0.4865990000000  0.4726500000000  0.5358880000000 1.0
C      1  0.4165690000000  0.5567740000000  0.5394610000000 1.0
C      1  0.4470700000000  0.5955830000000  0.4511250000000 1.0
C      1  0.5176090000000  0.4740660000000  0.5829360000000 1.0
C      1  0.4763250000000  0.4663830000000  0.5684170000000 1.0
C      1  0.4227520000000  0.5326650000000  0.5607040000000 1.0
C      1  0.5128410000000  0.4327190000000  0.5115110000000 1.0
C      1  0.5495780000000  0.5892180000000  0.5130270000000 1.0
C      1  0.5700900000000  0.5761680000000  0.4907330000000 1.0
C      1  0.6061040000000  0.4577940000000  0.4931480000000 1.0
C      1  0.5259360000000  0.6154040000000  0.6076220000000 1.0
C      1  0.5844210000000  0.5503010000000  0.5306410000000 1.0
C      1  0.5076790000000  0.3898240000000  0.5141210000000 1.0
C      1  0.5326860000000  0.4029800000000  0.5293200000000 1.0
C      1  0.4733220000000  0.4687160000000  0.4453240000000 1.0
C      1  0.4172090000000  0.4340580000000  0.5913740000000 1.0
C      1  0.5199950000000  0.6013780000000  0.5862960000000 1.0
C      1  0.4500330000000  0.5070270000000  0.5239010000000 1.0
C      1  0.4080510000000  0.4667420000000  0.4733490000000 1.0
C      1  0.5275900000000  0.4541720000000  0.5570590000000 1.0
C      1  0.5353100000000  0.4118630000000  0.4967780000000 1.0
C      1  0.5451610000000  0.4530350000000  0.4663210000000 1.0
C      1  0.4407030000000  0.5123790000000  0.4914580000000 1.0
C      1  0.4563700000000  0.5275360000000  0.5576290000000 1.0
C      1  0.4772450000000  0.4237910000000  0.4943140000000 1.0
C      1  0.5602590000000  0.4394120000000  0.4174850000000 1.0
C      1  0.3910060000000  0.5208510000000  0.4684100000000 1.0
C      1  0.5543120000000  0.5500730000000  0.5166040000000 1.0
C      1  0.5040850000000  0.5219940000000  0.5984060000000 1.0
C      1  0.5237260000000  0.4123190000000  0.4282410000000 1.0
C      1  0.5413240000000  0.5124110000000  0.5011100000000 1.0
C      1  0.5185070000000  0.4825210000000  0.4341600000000 1.0
C      1  0.4885360000000  0.5475830000000  0.4020080000000 1.0
C      1  0.5082080000000  0.5564110000000  0.4492790000000 1.0
C      1  0.4483940000000  0.5061500000000  0.3844770000000 1.0
C      1  0.4735790000000  0.5484800000000  0.5397090000000 1.0
C      1  0.5029190000000  0.6117000000000  0.5036780000000 1.0
C      1  0.5076150000000  0.4453170000000  0.5940250000000 1.0
C      1  0.4791540000000  0.5159030000000  0.6121770000000 1.0
C      1  0.5175790000000  0.5294360000000  0.4935950000000 1.0
C      1  0.4317000000000  0.4902820000000  0.4709980000000 1.0
C      1  0.4909660000000  0.4943710000000  0.4702050000000 1.0
C      1  0.4618560000000  0.4594650000000  0.4029720000000 1.0
C      1  0.4947670000000  0.4959240000000  0.5700850000000 1.0
C      1  0.4445410000000  0.5436900000000  0.4853030000000 1.0
C      1  0.5628510000000  0.5308400000000  0.4261350000000 1.0
C      1  0.5812000000000  0.4762690000000  0.4419150000000 1.0
C      1  0.6038790000000  0.5009770000000  0.4445720000000 1.0
C      1  0.4359280000000  0.4977570000000  0.4398060000000 1.0
C      1  0.4277630000000  0.5905680000000  0.5065010000000 1.0
C      1  0.5142760000000  0.5561010000000  0.5085090000000 1.0
C      1  0.5073640000000  0.4977720000000  0.4060960000000 1.0
C      1  0.4578920000000  0.5783590000000  0.5606540000000 1.0
C      1  0.4096390000000  0.4741480000000  0.5585090000000 1.0
C      1  0.4467600000000  0.4739040000000  0.5731580000000 1.0
C      1  0.5118510000000  0.4355650000000  0.4122450000000 1.0
C      1  0.4049080000000  0.4618870000000  0.5208630000000 1.0
C      1  0.4232150000000  0.4372200000000  0.4720220000000 1.0
C      1  0.4228060000000  0.4566160000000  0.5782640000000 1.0
C      1  0.5832610000000  0.4464220000000  0.5238000000000 1.0
C      1  0.5406430000000  0.5074360000000  0.4259480000000 1.0
C      1  0.4432940000000  0.5008810000000  0.5724530000000 1.0
C      1  0.5596480000000  0.4615140000000  0.5196670000000 1.0
C      1  0.4907830000000  0.4537910000000  0.4299120000000 1.0
C      1  0.5587370000000  0.5178470000000  0.5925580000000 1.0
C      1  0.3988780000000  0.5113580000000  0.4429410000000 1.0
C      1  0.4374340000000  0.5357350000000  0.5236830000000 1.0
END
