TITL C-2778429-3646-477 -0.00348183148748464 125000 -807.530067356696 0 0 138 (C1) n - 1
REM
REM in /home/nfs/bkarasulu/CARBON/AIRSS/Generating-Clusters/REBO/Only-C1/SD-CG/HFTN-CG
REM
REM
REM
REM
REM
REM ./C.cell (11c1c37f851c82e70ff6c80c92926a4b)
REM
REM compiler GCC version 9.2.1 20190827 (Red Hat 9.2.1-1)
REM options -cpp -mtune=generic -march=x86-64 -g -O0 -fpre-include=/usr/include/finclude/math-vector-fortran.h
REM seed 271990118 1410217137 -559916327 269900290 -799739971 1658995638 -2065667476 1300933476 1287568877 -309631792 1355064620 -710071031 -1805945870 1804978311 1512997128 -946519698 -469320921 1428086695 -1072604490 545393078 1018366895 -1648741861 -1782695524 -1498988566 357186395 1011312265 1371217570 1092510171 -2029417357 920484337 -127272128 -590814311 1330187682
REM
CELL 1.54180   50.00000   50.00000   50.00000   90.00000   90.00000   90.00000
LATT -1
SFAC C  
C      1  0.4875450000000  0.5565260000000  0.4981140000000 1.0
C      1  0.5236700000000  0.4003020000000  0.5374170000000 1.0
C      1  0.5537230000000  0.3918720000000  0.5267020000000 1.0
C      1  0.5711860000000  0.5609430000000  0.5166970000000 1.0
C      1  0.5118010000000  0.4458490000000  0.5724590000000 1.0
C      1  0.4541400000000  0.4599900000000  0.5798580000000 1.0
C      1  0.4422350000000  0.5432420000000  0.5659180000000 1.0
C      1  0.5365970000000  0.5668520000000  0.4367610000000 1.0
C      1  0.4761780000000  0.6057540000000  0.5136180000000 1.0
C      1  0.5064980000000  0.4680450000000  0.5020990000000 1.0
C      1  0.5152560000000  0.5349450000000  0.5879630000000 1.0
C      1  0.5133670000000  0.4765440000000  0.5297960000000 1.0
C      1  0.5324890000000  0.6000230000000  0.4784810000000 1.0
C      1  0.5237660000000  0.4644450000000  0.4302120000000 1.0
C      1  0.4516070000000  0.5663910000000  0.4125200000000 1.0
C      1  0.5328980000000  0.5090100000000  0.5471020000000 1.0
C      1  0.5023200000000  0.4023680000000  0.5170040000000 1.0
C      1  0.5197000000000  0.4376070000000  0.5242630000000 1.0
C      1  0.5858300000000  0.5177350000000  0.4269140000000 1.0
C      1  0.3961380000000  0.5503320000000  0.5027110000000 1.0
C      1  0.4722460000000  0.5840710000000  0.4935830000000 1.0
C      1  0.4930050000000  0.5935930000000  0.4341020000000 1.0
C      1  0.3955660000000  0.5521080000000  0.5273220000000 1.0
C      1  0.5847380000000  0.5327100000000  0.5122110000000 1.0
C      1  0.4592120000000  0.5463050000000  0.4476140000000 1.0
C      1  0.5533910000000  0.4533260000000  0.3913070000000 1.0
C      1  0.4329060000000  0.5779220000000  0.4916720000000 1.0
C      1  0.5531230000000  0.4538370000000  0.5512730000000 1.0
C      1  0.4785280000000  0.4739810000000  0.5084990000000 1.0
C      1  0.5738090000000  0.4487100000000  0.4741940000000 1.0
C      1  0.5187810000000  0.5629390000000  0.5736980000000 1.0
C      1  0.4394520000000  0.4240570000000  0.5168200000000 1.0
C      1  0.4161800000000  0.5522990000000  0.4794470000000 1.0
C      1  0.5292210000000  0.5553510000000  0.5107590000000 1.0
C      1  0.4736640000000  0.5949360000000  0.4673700000000 1.0
C      1  0.5127130000000  0.4494760000000  0.4530200000000 1.0
C      1  0.5475900000000  0.5761360000000  0.4637440000000 1.0
C      1  0.4451200000000  0.5261660000000  0.5867830000000 1.0
C      1  0.5092130000000  0.4693830000000  0.3998260000000 1.0
C      1  0.4952220000000  0.4670020000000  0.5545040000000 1.0
C      1  0.4433350000000  0.5105090000000  0.4194470000000 1.0
C      1  0.4907640000000  0.5500910000000  0.5988880000000 1.0
C      1  0.5526210000000  0.4505470000000  0.4183680000000 1.0
C      1  0.5436200000000  0.4791630000000  0.5348120000000 1.0
C      1  0.4243970000000  0.5001340000000  0.4776830000000 1.0
C      1  0.5812940000000  0.5473030000000  0.4658910000000 1.0
C      1  0.5770570000000  0.4162730000000  0.5239340000000 1.0
C      1  0.4682010000000  0.5713830000000  0.5548340000000 1.0
C      1  0.4807220000000  0.5290020000000  0.4277570000000 1.0
C      1  0.4575730000000  0.4921650000000  0.4797510000000 1.0
C      1  0.4606850000000  0.5845840000000  0.4376350000000 1.0
C      1  0.5838460000000  0.5243230000000  0.4859490000000 1.0
C      1  0.5365720000000  0.4816330000000  0.5886090000000 1.0
C      1  0.5517280000000  0.4419770000000  0.4489090000000 1.0
C      1  0.5375710000000  0.4551960000000  0.5769500000000 1.0
C      1  0.4459990000000  0.4274100000000  0.4666510000000 1.0
C      1  0.5300360000000  0.4643870000000  0.3806640000000 1.0
C      1  0.4449620000000  0.4496240000000  0.4438260000000 1.0
C      1  0.5418140000000  0.4326500000000  0.5091250000000 1.0
C      1  0.5748370000000  0.5717200000000  0.4842400000000 1.0
C      1  0.4516350000000  0.5134620000000  0.5033450000000 1.0
C      1  0.5518170000000  0.4032340000000  0.4959580000000 1.0
C      1  0.4162690000000  0.5551680000000  0.5514380000000 1.0
C      1  0.4291640000000  0.4742110000000  0.4581560000000 1.0
C      1  0.5219730000000  0.5276010000000  0.5267110000000 1.0
C      1  0.4756220000000  0.4874430000000  0.5362780000000 1.0
C      1  0.5837160000000  0.5108040000000  0.5301620000000 1.0
C      1  0.5095730000000  0.4164570000000  0.4919560000000 1.0
C      1  0.4812740000000  0.4685940000000  0.5841350000000 1.0
C      1  0.4332340000000  0.4354630000000  0.4912760000000 1.0
C      1  0.5954730000000  0.5409030000000  0.4388520000000 1.0
C      1  0.5118510000000  0.4447190000000  0.4857230000000 1.0
C      1  0.5755540000000  0.4985100000000  0.4832840000000 1.0
C      1  0.5080770000000  0.5043460000000  0.4792920000000 1.0
C      1  0.5056720000000  0.5789430000000  0.5148860000000 1.0
C      1  0.4840470000000  0.4979520000000  0.4646220000000 1.0
C      1  0.5056640000000  0.4846080000000  0.5916750000000 1.0
C      1  0.5043570000000  0.5269650000000  0.4975830000000 1.0
C      1  0.4735010000000  0.4324990000000  0.4977560000000 1.0
C      1  0.5138280000000  0.5097230000000  0.5715240000000 1.0
C      1  0.4515770000000  0.4390560000000  0.5601110000000 1.0
C      1  0.5769250000000  0.4245290000000  0.4924010000000 1.0
C      1  0.4045920000000  0.4448900000000  0.5453850000000 1.0
C      1  0.4750440000000  0.4275370000000  0.5487070000000 1.0
C      1  0.4831000000000  0.5033660000000  0.5646210000000 1.0
C      1  0.5420880000000  0.5652800000000  0.5586000000000 1.0
C      1  0.4198120000000  0.5262670000000  0.4644730000000 1.0
C      1  0.5549340000000  0.5015980000000  0.5795330000000 1.0
C      1  0.4559470000000  0.5393400000000  0.4086170000000 1.0
C      1  0.5624290000000  0.5068370000000  0.4391430000000 1.0
C      1  0.4948380000000  0.5834020000000  0.5408940000000 1.0
C      1  0.5548300000000  0.4822630000000  0.5046890000000 1.0
C      1  0.5525890000000  0.5269600000000  0.4611690000000 1.0
C      1  0.4742910000000  0.4511750000000  0.4293920000000 1.0
C      1  0.5462340000000  0.4866330000000  0.4337970000000 1.0
C      1  0.4901880000000  0.5387910000000  0.5263250000000 1.0
C      1  0.4360940000000  0.5290580000000  0.4417270000000 1.0
C      1  0.5355370000000  0.5362380000000  0.4361190000000 1.0
C      1  0.4491400000000  0.4819540000000  0.4319460000000 1.0
C      1  0.5038900000000  0.3988680000000  0.4644860000000 1.0
C      1  0.4193870000000  0.4950550000000  0.5626440000000 1.0
C      1  0.4134700000000  0.4972230000000  0.5306830000000 1.0
C      1  0.4884050000000  0.5735890000000  0.5789290000000 1.0
C      1  0.4689380000000  0.4076730000000  0.5213070000000 1.0
C      1  0.5898760000000  0.4716600000000  0.4889410000000 1.0
C      1  0.5057970000000  0.6055200000000  0.4965610000000 1.0
C      1  0.4915240000000  0.4396770000000  0.5257590000000 1.0
C      1  0.5367390000000  0.3947660000000  0.4724060000000 1.0
C      1  0.4867510000000  0.4739800000000  0.4184910000000 1.0
C      1  0.5282660000000  0.4202180000000  0.4535590000000 1.0
C      1  0.4655650000000  0.5401280000000  0.5448190000000 1.0
C      1  0.5425150000000  0.5488210000000  0.4822540000000 1.0
C      1  0.4435030000000  0.5694220000000  0.4628570000000 1.0
C      1  0.4767630000000  0.4140250000000  0.4693110000000 1.0
C      1  0.5924660000000  0.4860790000000  0.5173210000000 1.0
C      1  0.4117120000000  0.5232230000000  0.5497380000000 1.0
C      1  0.4373610000000  0.5845100000000  0.5169570000000 1.0
C      1  0.5611310000000  0.5510770000000  0.5455990000000 1.0
C      1  0.4395370000000  0.5755240000000  0.5425320000000 1.0
C      1  0.4297350000000  0.4355340000000  0.5415650000000 1.0
C      1  0.5505290000000  0.4202370000000  0.5458670000000 1.0
C      1  0.5459050000000  0.4673690000000  0.4687790000000 1.0
C      1  0.4786250000000  0.4995550000000  0.4347220000000 1.0
C      1  0.4329060000000  0.4787500000000  0.5802410000000 1.0
C      1  0.4598010000000  0.5131770000000  0.5294710000000 1.0
C      1  0.5643360000000  0.4525000000000  0.5127970000000 1.0
C      1  0.5638320000000  0.5193300000000  0.5525570000000 1.0
C      1  0.5819290000000  0.4443060000000  0.5400430000000 1.0
C      1  0.5075510000000  0.5424450000000  0.4246660000000 1.0
C      1  0.5484510000000  0.5824010000000  0.5029120000000 1.0
C      1  0.5319120000000  0.4900820000000  0.4807150000000 1.0
C      1  0.4645340000000  0.5070160000000  0.5842120000000 1.0
C      1  0.4156470000000  0.4858490000000  0.5063730000000 1.0
C      1  0.5035920000000  0.6077910000000  0.4624980000000 1.0
C      1  0.4629560000000  0.4611200000000  0.4838320000000 1.0
C      1  0.4226180000000  0.4620000000000  0.4886170000000 1.0
C      1  0.5099450000000  0.5739610000000  0.4237100000000 1.0
C      1  0.4808500000000  0.4456060000000  0.4607320000000 1.0
END
