TITL C-2778427-5640-1121 0.00357687128403948 125000 -792.608304374818 0 0 139 (C1) n - 1
REM
REM in /home/nfs/bkarasulu/CARBON/AIRSS/Generating-Clusters/REBO/Only-C1/SD-CG/HFTN-CG
REM
REM
REM
REM
REM
REM ./C.cell (11c1c37f851c82e70ff6c80c92926a4b)
REM
REM compiler GCC version 9.2.1 20190827 (Red Hat 9.2.1-1)
REM options -cpp -mtune=generic -march=x86-64 -g -O0 -fpre-include=/usr/include/finclude/math-vector-fortran.h
REM seed 1687395173 1830197113 623585227 2110480425 431903803 -1369628697 -2008707438 -105636195 -1236169934 -1148574538 -1776486216 1681766657 -1540364344 -344914598 1141616374 -1790516252 -1023344460 195229592 1005154454 -218430121 14273514 -925189188 1183800344 2112866233 2059859051 198162658 -969842513 -498773417 -356580771 -629604262 -1853533291 976652923 79003708
REM
CELL 1.54180   50.00000   50.00000   50.00000   90.00000   90.00000   90.00000
LATT -1
SFAC C  
C      1  0.5484030000000  0.4819960000000  0.5045490000000 1.0
C      1  0.5279680000000  0.4610610000000  0.4900130000000 1.0
C      1  0.5470200000000  0.5317950000000  0.4338080000000 1.0
C      1  0.4166500000000  0.4726440000000  0.4615390000000 1.0
C      1  0.4605290000000  0.5198110000000  0.4620800000000 1.0
C      1  0.5718410000000  0.5637790000000  0.5036650000000 1.0
C      1  0.4725820000000  0.4566490000000  0.5820840000000 1.0
C      1  0.4588240000000  0.4531550000000  0.4367200000000 1.0
C      1  0.4993760000000  0.4906930000000  0.5154870000000 1.0
C      1  0.4937060000000  0.4058290000000  0.5151500000000 1.0
C      1  0.5895810000000  0.4948100000000  0.5527210000000 1.0
C      1  0.4750850000000  0.4951130000000  0.4248840000000 1.0
C      1  0.5562640000000  0.4153440000000  0.4904370000000 1.0
C      1  0.5197690000000  0.4190810000000  0.5597820000000 1.0
C      1  0.4902060000000  0.5218190000000  0.4021590000000 1.0
C      1  0.4225070000000  0.4416190000000  0.4742600000000 1.0
C      1  0.6195480000000  0.5090690000000  0.5023850000000 1.0
C      1  0.5166140000000  0.5156870000000  0.5069240000000 1.0
C      1  0.4476940000000  0.5527880000000  0.5141640000000 1.0
C      1  0.4245540000000  0.5450230000000  0.5382650000000 1.0
C      1  0.4342370000000  0.4752700000000  0.4364940000000 1.0
C      1  0.4966780000000  0.4325600000000  0.5802910000000 1.0
C      1  0.4674400000000  0.4112150000000  0.4976500000000 1.0
C      1  0.5336000000000  0.4792300000000  0.5353720000000 1.0
C      1  0.4378530000000  0.5158860000000  0.5821790000000 1.0
C      1  0.5692290000000  0.4988040000000  0.5781210000000 1.0
C      1  0.5457200000000  0.5804030000000  0.5058630000000 1.0
C      1  0.5724630000000  0.4861850000000  0.5247210000000 1.0
C      1  0.4084900000000  0.5014430000000  0.4715100000000 1.0
C      1  0.4692180000000  0.5642960000000  0.4829120000000 1.0
C      1  0.4916220000000  0.5124160000000  0.4493170000000 1.0
C      1  0.5399280000000  0.5125830000000  0.5391280000000 1.0
C      1  0.5582130000000  0.5484460000000  0.5758950000000 1.0
C      1  0.4878490000000  0.4497680000000  0.4774540000000 1.0
C      1  0.4584240000000  0.4856960000000  0.4828440000000 1.0
C      1  0.5215770000000  0.5792910000000  0.5254440000000 1.0
C      1  0.5241910000000  0.5279160000000  0.5757960000000 1.0
C      1  0.5197610000000  0.4163190000000  0.4538160000000 1.0
C      1  0.5106890000000  0.5235040000000  0.5472880000000 1.0
C      1  0.4162970000000  0.5247150000000  0.5594290000000 1.0
C      1  0.4539440000000  0.5671500000000  0.4373360000000 1.0
C      1  0.5445620000000  0.4614240000000  0.4296920000000 1.0
C      1  0.5230300000000  0.4773180000000  0.5866170000000 1.0
C      1  0.5249600000000  0.4478880000000  0.5407230000000 1.0
C      1  0.3931490000000  0.5079220000000  0.5314740000000 1.0
C      1  0.5225640000000  0.4160040000000  0.4877040000000 1.0
C      1  0.4407050000000  0.5316030000000  0.4247830000000 1.0
C      1  0.4547850000000  0.4527830000000  0.4712780000000 1.0
C      1  0.4380370000000  0.4965140000000  0.5155020000000 1.0
C      1  0.4887300000000  0.4137050000000  0.5460650000000 1.0
C      1  0.4777830000000  0.6090810000000  0.5050040000000 1.0
C      1  0.4816530000000  0.4338020000000  0.4485330000000 1.0
C      1  0.5640060000000  0.5349710000000  0.5487200000000 1.0
C      1  0.5216270000000  0.5650930000000  0.4880740000000 1.0
C      1  0.5199540000000  0.5773670000000  0.4451610000000 1.0
C      1  0.4289790000000  0.4751680000000  0.4933330000000 1.0
C      1  0.5670170000000  0.5419440000000  0.4780490000000 1.0
C      1  0.3859910000000  0.5100980000000  0.4843680000000 1.0
C      1  0.4763690000000  0.5069130000000  0.4964000000000 1.0
C      1  0.4425870000000  0.5033270000000  0.4191340000000 1.0
C      1  0.5072930000000  0.5486910000000  0.4053420000000 1.0
C      1  0.5088310000000  0.4364370000000  0.4282740000000 1.0
C      1  0.5848890000000  0.4376480000000  0.5071330000000 1.0
C      1  0.4232240000000  0.4450820000000  0.5081420000000 1.0
C      1  0.4508950000000  0.5593300000000  0.5531430000000 1.0
C      1  0.4665920000000  0.5738970000000  0.5315940000000 1.0
C      1  0.4817620000000  0.5362260000000  0.4798280000000 1.0
C      1  0.5294660000000  0.5274470000000  0.4058710000000 1.0
C      1  0.5734650000000  0.4650950000000  0.5580370000000 1.0
C      1  0.4354570000000  0.4433600000000  0.5398400000000 1.0
C      1  0.4591220000000  0.4896330000000  0.4523610000000 1.0
C      1  0.3894450000000  0.5244570000000  0.5087050000000 1.0
C      1  0.4158120000000  0.5492310000000  0.4719340000000 1.0
C      1  0.4847370000000  0.4662980000000  0.4186070000000 1.0
C      1  0.5368140000000  0.5301840000000  0.4761450000000 1.0
C      1  0.5454410000000  0.4424440000000  0.5070830000000 1.0
C      1  0.5757890000000  0.5176030000000  0.5229550000000 1.0
C      1  0.4885750000000  0.5873810000000  0.4909340000000 1.0
C      1  0.5039870000000  0.4666190000000  0.4455060000000 1.0
C      1  0.4223910000000  0.5430280000000  0.4416130000000 1.0
C      1  0.5223450000000  0.5823230000000  0.5585830000000 1.0
C      1  0.4924200000000  0.5826000000000  0.5430740000000 1.0
C      1  0.5669300000000  0.4545120000000  0.5281640000000 1.0
C      1  0.4479910000000  0.5232290000000  0.5020510000000 1.0
C      1  0.4769730000000  0.5052990000000  0.5360000000000 1.0
C      1  0.5474080000000  0.4062420000000  0.5445830000000 1.0
C      1  0.4695000000000  0.4147720000000  0.4713390000000 1.0
C      1  0.5733300000000  0.5140480000000  0.4407170000000 1.0
C      1  0.5287780000000  0.4197750000000  0.5211750000000 1.0
C      1  0.5625680000000  0.4736190000000  0.4747090000000 1.0
C      1  0.4690290000000  0.5506280000000  0.5736950000000 1.0
C      1  0.5035920000000  0.4787110000000  0.4755890000000 1.0
C      1  0.5132950000000  0.4973730000000  0.4083550000000 1.0
C      1  0.5808490000000  0.5564070000000  0.5291110000000 1.0
C      1  0.5454820000000  0.5625850000000  0.4470370000000 1.0
C      1  0.5479510000000  0.4321310000000  0.4429330000000 1.0
C      1  0.4146820000000  0.4953690000000  0.5747040000000 1.0
C      1  0.5543780000000  0.4694520000000  0.5819970000000 1.0
C      1  0.4653670000000  0.5229640000000  0.5805800000000 1.0
C      1  0.4920040000000  0.4595380000000  0.5213270000000 1.0
C      1  0.4987780000000  0.5571370000000  0.4351020000000 1.0
C      1  0.4611360000000  0.4239820000000  0.5286780000000 1.0
C      1  0.6095180000000  0.5162150000000  0.4778430000000 1.0
C      1  0.5077190000000  0.5957540000000  0.4673140000000 1.0
C      1  0.4627530000000  0.4775190000000  0.5217270000000 1.0
C      1  0.5651030000000  0.5740840000000  0.4715080000000 1.0
C      1  0.5681900000000  0.4131860000000  0.5220540000000 1.0
C      1  0.4985600000000  0.4360700000000  0.5010420000000 1.0
C      1  0.5276150000000  0.5589590000000  0.5809050000000 1.0
C      1  0.4929690000000  0.5324820000000  0.5222840000000 1.0
C      1  0.6061680000000  0.5074090000000  0.5257380000000 1.0
C      1  0.5176640000000  0.4635750000000  0.4088480000000 1.0
C      1  0.4491650000000  0.4549230000000  0.5687830000000 1.0
C      1  0.4477940000000  0.5715510000000  0.4631310000000 1.0
C      1  0.5384960000000  0.5934240000000  0.4765780000000 1.0
C      1  0.4932840000000  0.4467310000000  0.5494970000000 1.0
C      1  0.5382340000000  0.4851080000000  0.4533000000000 1.0
C      1  0.4564650000000  0.4493510000000  0.5064980000000 1.0
C      1  0.4306040000000  0.5692940000000  0.4920530000000 1.0
C      1  0.4818980000000  0.5042950000000  0.5665630000000 1.0
C      1  0.5868190000000  0.5247820000000  0.4637000000000 1.0
C      1  0.5253970000000  0.4484080000000  0.4622120000000 1.0
C      1  0.4224220000000  0.4700880000000  0.5566280000000 1.0
C      1  0.5109550000000  0.5076480000000  0.4767230000000 1.0
C      1  0.4154570000000  0.4929260000000  0.5352420000000 1.0
C      1  0.5127710000000  0.4916780000000  0.5594990000000 1.0
C      1  0.5236220000000  0.5075950000000  0.4391940000000 1.0
C      1  0.4975840000000  0.5604070000000  0.5104500000000 1.0
C      1  0.4311900000000  0.5217520000000  0.4742460000000 1.0
C      1  0.5399440000000  0.5061960000000  0.5849260000000 1.0
C      1  0.4953050000000  0.5667340000000  0.5731190000000 1.0
C      1  0.5791540000000  0.4465140000000  0.4803590000000 1.0
C      1  0.4089520000000  0.5478730000000  0.5078580000000 1.0
C      1  0.5473530000000  0.5251740000000  0.5083010000000 1.0
C      1  0.5017180000000  0.4598940000000  0.5977960000000 1.0
C      1  0.5080870000000  0.5455700000000  0.4657770000000 1.0
C      1  0.5686780000000  0.4827470000000  0.4421100000000 1.0
C      1  0.5699360000000  0.4240650000000  0.4623850000000 1.0
C      1  0.4710550000000  0.5434490000000  0.4207110000000 1.0
END
