TITL C-2778437-8639-931 0.00231404756387109 125000 -726.021781986998 0 0 125 (C1) n - 1
REM
REM in /home/nfs/bkarasulu/CARBON/AIRSS/Generating-Clusters/REBO/Only-C1/SD-CG/HFTN-CG
REM
REM
REM
REM
REM
REM ./C.cell (11c1c37f851c82e70ff6c80c92926a4b)
REM
REM compiler GCC version 9.2.1 20190827 (Red Hat 9.2.1-1)
REM options -cpp -mtune=generic -march=x86-64 -g -O0 -fpre-include=/usr/include/finclude/math-vector-fortran.h
REM seed -697594250 -267746190 1780160095 -1728766762 1330052935 128927850 1436303706 -2122545538 854649942 1026958222 1116335470 2120901866 -1955849981 1994871226 2087373901 1652821064 -946484009 281326407 -1212299225 296088784 1316721945 -348610160 1541457168 952120363 367546507 1401583922 -1112102494 -1315112733 -1288324688 -1708274422 2000866008 -1649308590 268432268
REM
CELL 1.54180   50.00000   50.00000   50.00000   90.00000   90.00000   90.00000
LATT -1
SFAC C  
C      1  0.5202280000000  0.5697900000000  0.4598530000000 1.0
C      1  0.5330700000000  0.4528900000000  0.4353030000000 1.0
C      1  0.5679550000000  0.4996700000000  0.4400780000000 1.0
C      1  0.4884610000000  0.4695100000000  0.5296180000000 1.0
C      1  0.4941140000000  0.5576330000000  0.5251520000000 1.0
C      1  0.5867610000000  0.5337910000000  0.5164530000000 1.0
C      1  0.5015260000000  0.5366360000000  0.4154960000000 1.0
C      1  0.4881120000000  0.4383120000000  0.5268780000000 1.0
C      1  0.4633680000000  0.4834690000000  0.5840220000000 1.0
C      1  0.5511950000000  0.5463230000000  0.5725430000000 1.0
C      1  0.5445010000000  0.5037480000000  0.4233070000000 1.0
C      1  0.5717270000000  0.5574970000000  0.5181750000000 1.0
C      1  0.4899310000000  0.3983960000000  0.4989840000000 1.0
C      1  0.4820090000000  0.5146920000000  0.5573650000000 1.0
C      1  0.5337860000000  0.5796810000000  0.4341850000000 1.0
C      1  0.4256710000000  0.5171800000000  0.5561690000000 1.0
C      1  0.4177730000000  0.4815640000000  0.4707660000000 1.0
C      1  0.4687710000000  0.4892230000000  0.4053070000000 1.0
C      1  0.4522810000000  0.5689160000000  0.4127300000000 1.0
C      1  0.4473400000000  0.5771430000000  0.4829730000000 1.0
C      1  0.4378880000000  0.4484660000000  0.5161100000000 1.0
C      1  0.5733140000000  0.5107390000000  0.4709460000000 1.0
C      1  0.4318440000000  0.4689390000000  0.4422620000000 1.0
C      1  0.4928290000000  0.5606700000000  0.4533730000000 1.0
C      1  0.6213580000000  0.5179900000000  0.4849660000000 1.0
C      1  0.5114530000000  0.5134030000000  0.5460350000000 1.0
C      1  0.4644540000000  0.5679580000000  0.5110390000000 1.0
C      1  0.4708520000000  0.4860430000000  0.4945910000000 1.0
C      1  0.5458500000000  0.4559830000000  0.4624570000000 1.0
C      1  0.4294390000000  0.5225940000000  0.4649930000000 1.0
C      1  0.4371080000000  0.4641220000000  0.5618350000000 1.0
C      1  0.5395470000000  0.4201010000000  0.5192200000000 1.0
C      1  0.4607910000000  0.5720310000000  0.5418260000000 1.0
C      1  0.5296120000000  0.5028850000000  0.4743560000000 1.0
C      1  0.5012460000000  0.4288920000000  0.5533920000000 1.0
C      1  0.4523850000000  0.4976390000000  0.4610620000000 1.0
C      1  0.4262740000000  0.4661580000000  0.5352320000000 1.0
C      1  0.5148300000000  0.5107240000000  0.4985260000000 1.0
C      1  0.5161050000000  0.5131280000000  0.4067680000000 1.0
C      1  0.5869620000000  0.4833950000000  0.5294490000000 1.0
C      1  0.4578930000000  0.5503830000000  0.4324520000000 1.0
C      1  0.4574410000000  0.4646310000000  0.4192270000000 1.0
C      1  0.5013170000000  0.5965300000000  0.5307970000000 1.0
C      1  0.5122250000000  0.5246640000000  0.5932640000000 1.0
C      1  0.5633720000000  0.4402880000000  0.5176910000000 1.0
C      1  0.4328490000000  0.5282790000000  0.5189280000000 1.0
C      1  0.5076200000000  0.4323690000000  0.4260910000000 1.0
C      1  0.5101510000000  0.4100270000000  0.4749010000000 1.0
C      1  0.5644700000000  0.5239400000000  0.5582460000000 1.0
C      1  0.5541130000000  0.4905280000000  0.5297360000000 1.0
C      1  0.4629710000000  0.4067960000000  0.5023990000000 1.0
C      1  0.5285160000000  0.4254470000000  0.5480860000000 1.0
C      1  0.4149420000000  0.5361460000000  0.4908740000000 1.0
C      1  0.4164800000000  0.5650220000000  0.4877850000000 1.0
C      1  0.4540370000000  0.5402330000000  0.4961700000000 1.0
C      1  0.5436870000000  0.4097610000000  0.4721550000000 1.0
C      1  0.5512230000000  0.5270360000000  0.4994360000000 1.0
C      1  0.5537370000000  0.4840640000000  0.4803880000000 1.0
C      1  0.4385150000000  0.4841260000000  0.4980390000000 1.0
C      1  0.4343710000000  0.4942060000000  0.5769670000000 1.0
C      1  0.5376160000000  0.5069670000000  0.5621100000000 1.0
C      1  0.5123140000000  0.4614790000000  0.4088940000000 1.0
C      1  0.4724000000000  0.5433650000000  0.5670990000000 1.0
C      1  0.5131870000000  0.5831890000000  0.5682130000000 1.0
C      1  0.5446820000000  0.5175090000000  0.5241760000000 1.0
C      1  0.5295400000000  0.4965880000000  0.5931420000000 1.0
C      1  0.5112360000000  0.4924730000000  0.5231940000000 1.0
C      1  0.5397400000000  0.4713710000000  0.5096320000000 1.0
C      1  0.4993470000000  0.5573440000000  0.5553140000000 1.0
C      1  0.5229520000000  0.4831750000000  0.4317980000000 1.0
C      1  0.4732950000000  0.5504540000000  0.4693340000000 1.0
C      1  0.5124680000000  0.4709050000000  0.5794340000000 1.0
C      1  0.5820970000000  0.4587100000000  0.5068350000000 1.0
C      1  0.5149430000000  0.5437620000000  0.5027150000000 1.0
C      1  0.5629380000000  0.4917130000000  0.5887410000000 1.0
C      1  0.4383880000000  0.5125800000000  0.4338990000000 1.0
C      1  0.5438630000000  0.5627390000000  0.5310780000000 1.0
C      1  0.4506140000000  0.4142010000000  0.5508910000000 1.0
C      1  0.4824520000000  0.4508680000000  0.4328610000000 1.0
C      1  0.5236500000000  0.4588500000000  0.4853120000000 1.0
C      1  0.5313640000000  0.5387960000000  0.5387220000000 1.0
C      1  0.4781170000000  0.5309630000000  0.4310700000000 1.0
C      1  0.5559250000000  0.5751160000000  0.4952910000000 1.0
C      1  0.4623580000000  0.4204990000000  0.4527690000000 1.0
C      1  0.5826380000000  0.4554850000000  0.4775570000000 1.0
C      1  0.5706570000000  0.4845960000000  0.5594700000000 1.0
C      1  0.5106930000000  0.4227620000000  0.5066330000000 1.0
C      1  0.5006280000000  0.4692380000000  0.4728090000000 1.0
C      1  0.4927910000000  0.4450720000000  0.5747820000000 1.0
C      1  0.4115360000000  0.5037130000000  0.4959370000000 1.0
C      1  0.4547430000000  0.5005390000000  0.5489700000000 1.0
C      1  0.4452560000000  0.4378310000000  0.4365080000000 1.0
C      1  0.4445920000000  0.5432930000000  0.5474530000000 1.0
C      1  0.4513890000000  0.4195110000000  0.4798060000000 1.0
C      1  0.4584440000000  0.4263980000000  0.5268450000000 1.0
C      1  0.4832350000000  0.5337380000000  0.5037390000000 1.0
C      1  0.4184470000000  0.4986120000000  0.5288630000000 1.0
C      1  0.4598900000000  0.4846370000000  0.5248830000000 1.0
C      1  0.5834990000000  0.4754410000000  0.4553890000000 1.0
C      1  0.4881780000000  0.4823040000000  0.5611670000000 1.0
C      1  0.4529940000000  0.4644050000000  0.4669450000000 1.0
C      1  0.4507800000000  0.5107630000000  0.4100200000000 1.0
C      1  0.4814970000000  0.5107220000000  0.4525280000000 1.0
C      1  0.4407230000000  0.4456370000000  0.4875890000000 1.0
C      1  0.5395700000000  0.4729820000000  0.5624910000000 1.0
C      1  0.5413230000000  0.4540980000000  0.5394230000000 1.0
C      1  0.4420580000000  0.5521300000000  0.4600700000000 1.0
C      1  0.5644360000000  0.5448640000000  0.4809330000000 1.0
C      1  0.4919800000000  0.4164730000000  0.4503290000000 1.0
C      1  0.5619130000000  0.4305750000000  0.4702220000000 1.0
C      1  0.5229930000000  0.5455810000000  0.5769580000000 1.0
C      1  0.4992890000000  0.5936070000000  0.4989690000000 1.0
C      1  0.4845660000000  0.5280700000000  0.5947880000000 1.0
C      1  0.5095840000000  0.5640040000000  0.4220260000000 1.0
C      1  0.5080400000000  0.4931440000000  0.4548420000000 1.0
C      1  0.4858410000000  0.5083940000000  0.4843510000000 1.0
C      1  0.5290210000000  0.5859940000000  0.5139780000000 1.0
C      1  0.5303060000000  0.5598640000000  0.4838690000000 1.0
C      1  0.4777100000000  0.5925360000000  0.4827620000000 1.0
C      1  0.4800840000000  0.4554170000000  0.4607400000000 1.0
C      1  0.5949510000000  0.5214610000000  0.4910800000000 1.0
C      1  0.4651710000000  0.4530040000000  0.5755770000000 1.0
C      1  0.4974590000000  0.4896110000000  0.4018650000000 1.0
C      1  0.4795560000000  0.5913710000000  0.5484210000000 1.0
C      1  0.5833970000000  0.5161070000000  0.5384590000000 1.0
END
