TITL C-2778434-4341-131 0.0080493524141597 125000 -1159.56884280576 0 0 197 (C1) n - 1
REM
REM in /home/nfs/bkarasulu/CARBON/AIRSS/Generating-Clusters/REBO/Only-C1/SD-CG/HFTN-CG
REM
REM
REM
REM
REM
REM ./C.cell (11c1c37f851c82e70ff6c80c92926a4b)
REM
REM compiler GCC version 9.2.1 20190827 (Red Hat 9.2.1-1)
REM options -cpp -mtune=generic -march=x86-64 -g -O0 -fpre-include=/usr/include/finclude/math-vector-fortran.h
REM seed 1505284679 -351548308 1703070206 673240732 1962682148 -753548009 1351946335 1882421283 1175481794 -291664948 1270494695 -1972766689 -1290427175 626471441 610076995 -1188447725 -1030984006 526962582 -946787262 595741064 425456075 135116068 2119276206 537285953 1132564531 -659933614 -457009792 -500810447 -1412449154 1992475138 1931123844 1127745727 2092538650
REM
CELL 1.54180   50.00000   50.00000   50.00000   90.00000   90.00000   90.00000
LATT -1
SFAC C  
C      1  0.4872740000000  0.5534840000000  0.5776470000000 1.0
C      1  0.4967950000000  0.5916710000000  0.5818900000000 1.0
C      1  0.3821230000000  0.4854030000000  0.4919520000000 1.0
C      1  0.5514540000000  0.4863420000000  0.5228280000000 1.0
C      1  0.4628030000000  0.5103240000000  0.4237750000000 1.0
C      1  0.4714130000000  0.4685380000000  0.4097320000000 1.0
C      1  0.5867900000000  0.4369190000000  0.5174400000000 1.0
C      1  0.5246420000000  0.5361700000000  0.5856880000000 1.0
C      1  0.5730040000000  0.4100860000000  0.4573290000000 1.0
C      1  0.4584810000000  0.4298100000000  0.4727090000000 1.0
C      1  0.5196130000000  0.5917450000000  0.4905550000000 1.0
C      1  0.4605700000000  0.4729920000000  0.6103490000000 1.0
C      1  0.5175140000000  0.4840840000000  0.5247440000000 1.0
C      1  0.5459310000000  0.3900630000000  0.5038100000000 1.0
C      1  0.5042780000000  0.5671030000000  0.3998220000000 1.0
C      1  0.4394520000000  0.5750470000000  0.5657550000000 1.0
C      1  0.5493360000000  0.5259330000000  0.5124660000000 1.0
C      1  0.5738780000000  0.5168220000000  0.5751860000000 1.0
C      1  0.4400440000000  0.4141470000000  0.5137990000000 1.0
C      1  0.4421340000000  0.4495280000000  0.4877230000000 1.0
C      1  0.5577780000000  0.5816680000000  0.4637740000000 1.0
C      1  0.5655070000000  0.4128430000000  0.5110320000000 1.0
C      1  0.4526660000000  0.4788760000000  0.4817480000000 1.0
C      1  0.5981020000000  0.5058430000000  0.4597640000000 1.0
C      1  0.5418560000000  0.4113590000000  0.4702430000000 1.0
C      1  0.5585550000000  0.5584950000000  0.4219610000000 1.0
C      1  0.4603440000000  0.5541630000000  0.4648730000000 1.0
C      1  0.4764600000000  0.5526960000000  0.3980660000000 1.0
C      1  0.3730900000000  0.5250380000000  0.5178900000000 1.0
C      1  0.5206540000000  0.4226650000000  0.4918020000000 1.0
C      1  0.4320710000000  0.5701100000000  0.4602780000000 1.0
C      1  0.5450170000000  0.4615820000000  0.4523980000000 1.0
C      1  0.4334950000000  0.4990800000000  0.4191780000000 1.0
C      1  0.5319090000000  0.5092860000000  0.3911860000000 1.0
C      1  0.4733530000000  0.5456100000000  0.6059180000000 1.0
C      1  0.5147740000000  0.4593070000000  0.5741890000000 1.0
C      1  0.4970640000000  0.3832500000000  0.5246920000000 1.0
C      1  0.5921980000000  0.5132340000000  0.5028840000000 1.0
C      1  0.5096510000000  0.4056990000000  0.5552550000000 1.0
C      1  0.3826250000000  0.4708990000000  0.5228180000000 1.0
C      1  0.4614990000000  0.5819820000000  0.5421060000000 1.0
C      1  0.4444580000000  0.5081350000000  0.4563940000000 1.0
C      1  0.4554670000000  0.6103260000000  0.5301170000000 1.0
C      1  0.4251390000000  0.5860750000000  0.5095530000000 1.0
C      1  0.4220180000000  0.5790070000000  0.5366240000000 1.0
C      1  0.5091570000000  0.4858010000000  0.5944320000000 1.0
C      1  0.4710630000000  0.4143430000000  0.5071930000000 1.0
C      1  0.5086260000000  0.4374890000000  0.4040980000000 1.0
C      1  0.5173530000000  0.5309430000000  0.4099990000000 1.0
C      1  0.4108360000000  0.5779940000000  0.4857160000000 1.0
C      1  0.4532640000000  0.4977110000000  0.5285970000000 1.0
C      1  0.4765400000000  0.4275350000000  0.5603400000000 1.0
C      1  0.4496720000000  0.5189560000000  0.5649600000000 1.0
C      1  0.3930020000000  0.5248120000000  0.4564020000000 1.0
C      1  0.5624210000000  0.4696160000000  0.5784490000000 1.0
C      1  0.4848810000000  0.4631710000000  0.6000550000000 1.0
C      1  0.4084030000000  0.5491040000000  0.4691710000000 1.0
C      1  0.5848230000000  0.5114860000000  0.4065100000000 1.0
C      1  0.4759510000000  0.4653640000000  0.4371250000000 1.0
C      1  0.5316530000000  0.4540310000000  0.4994400000000 1.0
C      1  0.5028230000000  0.4727610000000  0.4793340000000 1.0
C      1  0.4245600000000  0.5474320000000  0.5413520000000 1.0
C      1  0.5789630000000  0.4307470000000  0.6034670000000 1.0
C      1  0.3995410000000  0.4717010000000  0.4664940000000 1.0
C      1  0.4703380000000  0.6189310000000  0.5070590000000 1.0
C      1  0.4109300000000  0.4442910000000  0.4762750000000 1.0
C      1  0.4354920000000  0.5517570000000  0.4249170000000 1.0
C      1  0.5307290000000  0.4860950000000  0.4874070000000 1.0
C      1  0.5278970000000  0.5223640000000  0.5290310000000 1.0
C      1  0.4874410000000  0.5096590000000  0.4472430000000 1.0
C      1  0.5113210000000  0.4284410000000  0.4368120000000 1.0
C      1  0.5482930000000  0.4678380000000  0.6164530000000 1.0
C      1  0.5276150000000  0.4622500000000  0.3997160000000 1.0
C      1  0.5418940000000  0.5103270000000  0.4367780000000 1.0
C      1  0.6017030000000  0.5731890000000  0.5139250000000 1.0
C      1  0.4928670000000  0.5832100000000  0.5517720000000 1.0
C      1  0.3845690000000  0.5157760000000  0.4944390000000 1.0
C      1  0.4793760000000  0.4831640000000  0.4645190000000 1.0
C      1  0.5341130000000  0.5595920000000  0.4095740000000 1.0
C      1  0.5166460000000  0.4492600000000  0.4602210000000 1.0
C      1  0.4831690000000  0.4435820000000  0.4607200000000 1.0
C      1  0.4664490000000  0.5799050000000  0.5815810000000 1.0
C      1  0.5336050000000  0.5191950000000  0.5604190000000 1.0
C      1  0.3893070000000  0.5006020000000  0.4557050000000 1.0
C      1  0.6004750000000  0.5227970000000  0.4336520000000 1.0
C      1  0.4540670000000  0.5924650000000  0.4554100000000 1.0
C      1  0.4859460000000  0.4919450000000  0.3969920000000 1.0
C      1  0.4796980000000  0.4768210000000  0.5351400000000 1.0
C      1  0.5151000000000  0.4866710000000  0.3853560000000 1.0
C      1  0.6005820000000  0.4458250000000  0.4675200000000 1.0
C      1  0.4315330000000  0.4763170000000  0.4566920000000 1.0
C      1  0.4902410000000  0.4395160000000  0.5813190000000 1.0
C      1  0.4034670000000  0.4966060000000  0.5237540000000 1.0
C      1  0.6157460000000  0.4812780000000  0.5001510000000 1.0
C      1  0.4562710000000  0.4274000000000  0.4331310000000 1.0
C      1  0.5674310000000  0.5301860000000  0.4300380000000 1.0
C      1  0.5688610000000  0.5666310000000  0.5088790000000 1.0
C      1  0.4641160000000  0.5170700000000  0.4787030000000 1.0
C      1  0.5465800000000  0.4885230000000  0.5687110000000 1.0
C      1  0.5598430000000  0.4600130000000  0.4818480000000 1.0
C      1  0.5497290000000  0.5657800000000  0.4884820000000 1.0
C      1  0.5930680000000  0.5454740000000  0.4565230000000 1.0
C      1  0.4943540000000  0.4643890000000  0.5093050000000 1.0
C      1  0.4035140000000  0.4522380000000  0.5422260000000 1.0
C      1  0.5309820000000  0.4800730000000  0.4283280000000 1.0
C      1  0.5581540000000  0.4505260000000  0.4002920000000 1.0
C      1  0.4161570000000  0.4760050000000  0.5023090000000 1.0
C      1  0.4820730000000  0.5550260000000  0.5366790000000 1.0
C      1  0.4221070000000  0.4495490000000  0.5142350000000 1.0
C      1  0.5558830000000  0.5014820000000  0.4057130000000 1.0
C      1  0.5387640000000  0.4281420000000  0.4172770000000 1.0
C      1  0.6079870000000  0.4958110000000  0.5274010000000 1.0
C      1  0.4210220000000  0.4160210000000  0.4926760000000 1.0
C      1  0.4560410000000  0.4015560000000  0.4553190000000 1.0
C      1  0.4897040000000  0.5488710000000  0.5067730000000 1.0
C      1  0.5304420000000  0.5949520000000  0.5378950000000 1.0
C      1  0.5347190000000  0.4368490000000  0.5816020000000 1.0
C      1  0.4269290000000  0.4143870000000  0.4620520000000 1.0
C      1  0.4920860000000  0.4367790000000  0.4928610000000 1.0
C      1  0.5648830000000  0.5661920000000  0.5624910000000 1.0
C      1  0.4998430000000  0.5243920000000  0.6018910000000 1.0
C      1  0.5820150000000  0.5633380000000  0.5394300000000 1.0
C      1  0.5062760000000  0.5022750000000  0.4209380000000 1.0
C      1  0.5758720000000  0.4833250000000  0.5007680000000 1.0
C      1  0.4468160000000  0.5270070000000  0.5974370000000 1.0
C      1  0.4285110000000  0.5267990000000  0.4354200000000 1.0
C      1  0.4156920000000  0.5191320000000  0.5290870000000 1.0
C      1  0.4618360000000  0.6046920000000  0.4803880000000 1.0
C      1  0.5639640000000  0.4450110000000  0.4326830000000 1.0
C      1  0.4527060000000  0.5836680000000  0.5006920000000 1.0
C      1  0.5608200000000  0.5064140000000  0.5451520000000 1.0
C      1  0.4604520000000  0.5541540000000  0.4969210000000 1.0
C      1  0.5048880000000  0.4831850000000  0.5549170000000 1.0
C      1  0.5194550000000  0.4394820000000  0.5278110000000 1.0
C      1  0.5396820000000  0.5775620000000  0.5585800000000 1.0
C      1  0.5186390000000  0.5662060000000  0.5770770000000 1.0
C      1  0.4748980000000  0.5241370000000  0.3984930000000 1.0
C      1  0.4379860000000  0.5380740000000  0.5113230000000 1.0
C      1  0.5779720000000  0.4524240000000  0.5401830000000 1.0
C      1  0.5725580000000  0.5065780000000  0.4686930000000 1.0
C      1  0.5833200000000  0.4528950000000  0.5844840000000 1.0
C      1  0.4765280000000  0.3956310000000  0.4804500000000 1.0
C      1  0.4581360000000  0.4503590000000  0.3937230000000 1.0
C      1  0.4971380000000  0.5255490000000  0.4825160000000 1.0
C      1  0.5676090000000  0.4295180000000  0.4831310000000 1.0
C      1  0.5977980000000  0.5032210000000  0.5591280000000 1.0
C      1  0.4784560000000  0.5294600000000  0.5572720000000 1.0
C      1  0.4356570000000  0.4915720000000  0.5565610000000 1.0
C      1  0.4527000000000  0.4993200000000  0.6156440000000 1.0
C      1  0.5776060000000  0.5359050000000  0.5195880000000 1.0
C      1  0.6180350000000  0.4963370000000  0.4772590000000 1.0
C      1  0.4558160000000  0.4677910000000  0.5542970000000 1.0
C      1  0.5470590000000  0.5107710000000  0.4847450000000 1.0
C      1  0.4356390000000  0.4999180000000  0.5002520000000 1.0
C      1  0.4575120000000  0.5667460000000  0.4150640000000 1.0
C      1  0.5739130000000  0.5659360000000  0.4467160000000 1.0
C      1  0.5340640000000  0.5394950000000  0.4782680000000 1.0
C      1  0.4812920000000  0.4292900000000  0.4208370000000 1.0
C      1  0.4752150000000  0.5177760000000  0.6238810000000 1.0
C      1  0.3745130000000  0.5157380000000  0.5436420000000 1.0
C      1  0.5161580000000  0.5606860000000  0.4951810000000 1.0
C      1  0.3868020000000  0.4977120000000  0.5600710000000 1.0
C      1  0.5181830000000  0.6068260000000  0.5147250000000 1.0
C      1  0.5193670000000  0.5197760000000  0.4573780000000 1.0
C      1  0.6170100000000  0.5585580000000  0.4970070000000 1.0
C      1  0.4973400000000  0.6261410000000  0.5131430000000 1.0
C      1  0.4999700000000  0.3824170000000  0.4773810000000 1.0
C      1  0.4717020000000  0.5132490000000  0.5093410000000 1.0
C      1  0.5932310000000  0.4738840000000  0.5477060000000 1.0
C      1  0.4918680000000  0.4221150000000  0.5324310000000 1.0
C      1  0.4297790000000  0.4715760000000  0.4170900000000 1.0
C      1  0.4076100000000  0.4799020000000  0.5596810000000 1.0
C      1  0.5914630000000  0.4431930000000  0.4448410000000 1.0
C      1  0.4390930000000  0.4501690000000  0.4360710000000 1.0
C      1  0.5697220000000  0.5477730000000  0.5819810000000 1.0
C      1  0.5969620000000  0.4563690000000  0.4960590000000 1.0
C      1  0.5495140000000  0.4247470000000  0.5356880000000 1.0
C      1  0.5169000000000  0.3977750000000  0.5130260000000 1.0
C      1  0.5032400000000  0.5118870000000  0.5132860000000 1.0
C      1  0.5344030000000  0.4162420000000  0.5617970000000 1.0
C      1  0.5364010000000  0.4918440000000  0.6072230000000 1.0
C      1  0.4296620000000  0.4304030000000  0.5399690000000 1.0
C      1  0.6031030000000  0.5380870000000  0.4827790000000 1.0
C      1  0.4820270000000  0.5433180000000  0.4494230000000 1.0
C      1  0.5486670000000  0.5163960000000  0.5971000000000 1.0
C      1  0.5506570000000  0.4417600000000  0.6046240000000 1.0
C      1  0.5466910000000  0.4581330000000  0.5362590000000 1.0
C      1  0.4676220000000  0.5887620000000  0.4310040000000 1.0
C      1  0.4972560000000  0.5088500000000  0.5726270000000 1.0
C      1  0.5004630000000  0.5529680000000  0.4299060000000 1.0
C      1  0.5168230000000  0.6035800000000  0.4428870000000 1.0
C      1  0.5328820000000  0.5974750000000  0.4652330000000 1.0
C      1  0.4936490000000  0.5995330000000  0.4294680000000 1.0
C      1  0.4304660000000  0.5445230000000  0.5732740000000 1.0
C      1  0.5280010000000  0.3832250000000  0.4776360000000 1.0
C      1  0.4520400000000  0.4400250000000  0.5563480000000 1.0
C      1  0.4152600000000  0.5250080000000  0.4896330000000 1.0
END
