TITL C-2778428-5639-752 -2.38903005473368e-07 125000 -245.763541459303 0 0 44 (C1) n - 1
REM
REM in /home/nfs/bkarasulu/CARBON/AIRSS/Generating-Clusters/REBO/Only-C1/SD-CG/HFTN-CG
REM
REM
REM
REM
REM
REM ./C.cell (11c1c37f851c82e70ff6c80c92926a4b)
REM
REM compiler GCC version 9.2.1 20190827 (Red Hat 9.2.1-1)
REM options -cpp -mtune=generic -march=x86-64 -g -O0 -fpre-include=/usr/include/finclude/math-vector-fortran.h
REM seed -1438096670 -743401478 -1410086177 1954963637 1076258405 -217125919 -957982490 -1809028041 -232593390 752640568 -854020149 -42023775 -384305378 903771406 1624932996 2099191384 -144922421 154600181 -1347599533 240814722 -1937162672 266214530 -922548053 -1754410944 -1545136073 1315412298 1355573774 1390373611 -1339347381 377306069 -988039091 -1804052999 -17100562
REM
CELL 1.54180   50.00000   50.00000   50.00000   90.00000   90.00000   90.00000
LATT -1
SFAC C  
C      1  0.5128420000000  0.5795330000000  0.5104480000000 1.0
C      1  0.5074540000000  0.5201800000000  0.5275110000000 1.0
C      1  0.5232680000000  0.5674010000000  0.5319090000000 1.0
C      1  0.4337590000000  0.4755930000000  0.4732210000000 1.0
C      1  0.4610300000000  0.5475780000000  0.4799880000000 1.0
C      1  0.4385930000000  0.5227070000000  0.5168830000000 1.0
C      1  0.5348750000000  0.5128000000000  0.4509300000000 1.0
C      1  0.5519820000000  0.5276780000000  0.5478550000000 1.0
C      1  0.5126630000000  0.5637370000000  0.4311030000000 1.0
C      1  0.4777750000000  0.4515550000000  0.4594900000000 1.0
C      1  0.4877500000000  0.4587230000000  0.4876730000000 1.0
C      1  0.4777960000000  0.4634820000000  0.5199790000000 1.0
C      1  0.5564100000000  0.4722700000000  0.5373640000000 1.0
C      1  0.4982700000000  0.5772950000000  0.4878930000000 1.0
C      1  0.5063150000000  0.4548560000000  0.5226510000000 1.0
C      1  0.4453930000000  0.4909440000000  0.4482140000000 1.0
C      1  0.5566650000000  0.4840680000000  0.4836360000000 1.0
C      1  0.5595710000000  0.4911280000000  0.5100500000000 1.0
C      1  0.4565150000000  0.4995650000000  0.4791830000000 1.0
C      1  0.5003850000000  0.5474770000000  0.4492910000000 1.0
C      1  0.5277490000000  0.4551850000000  0.5408540000000 1.0
C      1  0.5476680000000  0.4347220000000  0.5010110000000 1.0
C      1  0.4852350000000  0.4907560000000  0.4874500000000 1.0
C      1  0.4257790000000  0.5202270000000  0.5464770000000 1.0
C      1  0.4597190000000  0.4615810000000  0.5637130000000 1.0
C      1  0.5170580000000  0.4466130000000  0.4928370000000 1.0
C      1  0.4894150000000  0.4983630000000  0.4565310000000 1.0
C      1  0.5233560000000  0.5397890000000  0.5460160000000 1.0
C      1  0.5074800000000  0.5194510000000  0.4503830000000 1.0
C      1  0.4605050000000  0.4737580000000  0.5392180000000 1.0
C      1  0.5105150000000  0.5417230000000  0.5738540000000 1.0
C      1  0.4673320000000  0.4270420000000  0.4527470000000 1.0
C      1  0.5534230000000  0.4404530000000  0.5283320000000 1.0
C      1  0.4456730000000  0.4968650000000  0.5355760000000 1.0
C      1  0.5454720000000  0.4585010000000  0.4795320000000 1.0
C      1  0.4490340000000  0.5252820000000  0.4916130000000 1.0
C      1  0.4978080000000  0.5061510000000  0.5103140000000 1.0
C      1  0.4998470000000  0.5433290000000  0.5969810000000 1.0
C      1  0.5831990000000  0.5128170000000  0.4544400000000 1.0
C      1  0.4813930000000  0.4744700000000  0.4425220000000 1.0
C      1  0.4174100000000  0.4567900000000  0.4832560000000 1.0
C      1  0.4848990000000  0.5593080000000  0.4707590000000 1.0
C      1  0.5618600000000  0.5050100000000  0.5382960000000 1.0
C      1  0.5588620000000  0.5032460000000  0.4620180000000 1.0
END
