TITL C-2778434-4341-1371 -0.00398325094312263 125000 -999.163233591762 0 0 167 (C1) n - 1
REM
REM in /home/nfs/bkarasulu/CARBON/AIRSS/Generating-Clusters/REBO/Only-C1/SD-CG/HFTN-CG
REM
REM
REM
REM
REM
REM ./C.cell (11c1c37f851c82e70ff6c80c92926a4b)
REM
REM compiler GCC version 9.2.1 20190827 (Red Hat 9.2.1-1)
REM options -cpp -mtune=generic -march=x86-64 -g -O0 -fpre-include=/usr/include/finclude/math-vector-fortran.h
REM seed -395115434 -157422158 1346355789 -1753113167 164533963 511085674 935498937 1893147954 720872716 262213222 -1498800202 3216132 1659811855 -250977936 917169353 -127953291 1312556104 117796431 -1751331729 -361218674 1300942 267180171 1681169626 996713474 1982823346 -127193945 -1743946020 -1124594154 756163933 652366292 -673135773 567660155 851279164
REM
CELL 1.54180   50.00000   50.00000   50.00000   90.00000   90.00000   90.00000
LATT -1
SFAC C  
C      1  0.5373530000000  0.4952400000000  0.4023780000000 1.0
C      1  0.4732720000000  0.4278050000000  0.4866680000000 1.0
C      1  0.3919870000000  0.4955530000000  0.5127950000000 1.0
C      1  0.4866970000000  0.5058260000000  0.6098460000000 1.0
C      1  0.5004340000000  0.4002060000000  0.4561150000000 1.0
C      1  0.4833970000000  0.5651460000000  0.5199020000000 1.0
C      1  0.5951330000000  0.4710650000000  0.5603530000000 1.0
C      1  0.5195770000000  0.5574840000000  0.5721230000000 1.0
C      1  0.4993130000000  0.4476810000000  0.5735150000000 1.0
C      1  0.5664690000000  0.4371240000000  0.5390930000000 1.0
C      1  0.5301510000000  0.4757790000000  0.4387030000000 1.0
C      1  0.5519570000000  0.5199940000000  0.5755350000000 1.0
C      1  0.5073650000000  0.4546960000000  0.5425390000000 1.0
C      1  0.5208000000000  0.5349020000000  0.4392170000000 1.0
C      1  0.5849740000000  0.5486080000000  0.5240720000000 1.0
C      1  0.4902270000000  0.4792200000000  0.4935200000000 1.0
C      1  0.4528290000000  0.4732160000000  0.5992560000000 1.0
C      1  0.5680070000000  0.5472200000000  0.4381010000000 1.0
C      1  0.4952630000000  0.5999860000000  0.4627950000000 1.0
C      1  0.4166650000000  0.4819110000000  0.5226720000000 1.0
C      1  0.6146240000000  0.5195460000000  0.4679720000000 1.0
C      1  0.4443240000000  0.5520010000000  0.5786870000000 1.0
C      1  0.4829250000000  0.4478940000000  0.4526430000000 1.0
C      1  0.5570060000000  0.5731850000000  0.4354470000000 1.0
C      1  0.5661920000000  0.5547800000000  0.5452260000000 1.0
C      1  0.5702030000000  0.5049180000000  0.4818910000000 1.0
C      1  0.5609580000000  0.4124060000000  0.5163690000000 1.0
C      1  0.4583370000000  0.4439720000000  0.4101580000000 1.0
C      1  0.5126320000000  0.4207040000000  0.4318080000000 1.0
C      1  0.5572380000000  0.5190430000000  0.4272150000000 1.0
C      1  0.4381770000000  0.4986150000000  0.5274090000000 1.0
C      1  0.5362840000000  0.5850610000000  0.5209060000000 1.0
C      1  0.5273600000000  0.5297080000000  0.5892770000000 1.0
C      1  0.4666000000000  0.5482470000000  0.4757140000000 1.0
C      1  0.4780780000000  0.4930780000000  0.4311030000000 1.0
C      1  0.4711350000000  0.3966490000000  0.5626340000000 1.0
C      1  0.5259410000000  0.4411440000000  0.4788990000000 1.0
C      1  0.5332870000000  0.4053570000000  0.5349400000000 1.0
C      1  0.4775700000000  0.4893640000000  0.5601080000000 1.0
C      1  0.4483110000000  0.4174350000000  0.5269310000000 1.0
C      1  0.4730570000000  0.5331470000000  0.5251370000000 1.0
C      1  0.5218970000000  0.4163250000000  0.5096100000000 1.0
C      1  0.4137550000000  0.4363990000000  0.4917580000000 1.0
C      1  0.4976120000000  0.4675920000000  0.4341060000000 1.0
C      1  0.4249830000000  0.4326980000000  0.5176410000000 1.0
C      1  0.5639370000000  0.4792310000000  0.5015130000000 1.0
C      1  0.5707860000000  0.5386870000000  0.5680150000000 1.0
C      1  0.4455460000000  0.5210620000000  0.4233140000000 1.0
C      1  0.5086350000000  0.5478030000000  0.5350930000000 1.0
C      1  0.4880440000000  0.4848090000000  0.3994240000000 1.0
C      1  0.4963100000000  0.5360050000000  0.5635190000000 1.0
C      1  0.4299420000000  0.5221540000000  0.4962000000000 1.0
C      1  0.4544920000000  0.5752430000000  0.4488000000000 1.0
C      1  0.4733690000000  0.4313930000000  0.5307220000000 1.0
C      1  0.4284820000000  0.5632600000000  0.4511500000000 1.0
C      1  0.5446450000000  0.5787500000000  0.4962280000000 1.0
C      1  0.5738480000000  0.5807520000000  0.4862200000000 1.0
C      1  0.5189560000000  0.5564370000000  0.4058430000000 1.0
C      1  0.4992510000000  0.5892550000000  0.5351100000000 1.0
C      1  0.5236570000000  0.5047250000000  0.4652670000000 1.0
C      1  0.4764760000000  0.3859830000000  0.5183920000000 1.0
C      1  0.4224150000000  0.5690310000000  0.5073140000000 1.0
C      1  0.5720780000000  0.5426070000000  0.4686800000000 1.0
C      1  0.4698780000000  0.5876060000000  0.4695110000000 1.0
C      1  0.5665120000000  0.5065580000000  0.5407690000000 1.0
C      1  0.4912920000000  0.5540810000000  0.4079400000000 1.0
C      1  0.5969020000000  0.4937280000000  0.4674590000000 1.0
C      1  0.4639960000000  0.4840660000000  0.5230950000000 1.0
C      1  0.4794330000000  0.4245980000000  0.4281260000000 1.0
C      1  0.4712110000000  0.5650330000000  0.4292230000000 1.0
C      1  0.4959820000000  0.4502080000000  0.4802520000000 1.0
C      1  0.5411970000000  0.4762390000000  0.4688650000000 1.0
C      1  0.5464430000000  0.4696200000000  0.5760080000000 1.0
C      1  0.5908100000000  0.5199620000000  0.5293940000000 1.0
C      1  0.5012780000000  0.4627900000000  0.5970540000000 1.0
C      1  0.3950120000000  0.4898990000000  0.4832740000000 1.0
C      1  0.3962460000000  0.5086600000000  0.5439500000000 1.0
C      1  0.4272340000000  0.4931620000000  0.4499210000000 1.0
C      1  0.4194580000000  0.4545570000000  0.5346280000000 1.0
C      1  0.5299170000000  0.4762300000000  0.5000890000000 1.0
C      1  0.4734580000000  0.4059110000000  0.4627450000000 1.0
C      1  0.5183870000000  0.5468960000000  0.4641040000000 1.0
C      1  0.5588490000000  0.4480250000000  0.4759990000000 1.0
C      1  0.4030300000000  0.5408100000000  0.4867220000000 1.0
C      1  0.4518270000000  0.5222540000000  0.4627370000000 1.0
C      1  0.5329060000000  0.5278570000000  0.4075520000000 1.0
C      1  0.4045870000000  0.4641080000000  0.4766290000000 1.0
C      1  0.5739370000000  0.4367680000000  0.4998320000000 1.0
C      1  0.5154400000000  0.4983810000000  0.5215350000000 1.0
C      1  0.4825890000000  0.5151750000000  0.4547900000000 1.0
C      1  0.5428320000000  0.5509450000000  0.4818900000000 1.0
C      1  0.4990940000000  0.5068590000000  0.4831440000000 1.0
C      1  0.5246760000000  0.4800790000000  0.5980860000000 1.0
C      1  0.4695390000000  0.6065330000000  0.5148780000000 1.0
C      1  0.5040430000000  0.5069340000000  0.5661210000000 1.0
C      1  0.5428390000000  0.4418190000000  0.5620530000000 1.0
C      1  0.4280830000000  0.4696200000000  0.5588400000000 1.0
C      1  0.4408770000000  0.5528280000000  0.4911830000000 1.0
C      1  0.5326450000000  0.4979340000000  0.5633940000000 1.0
C      1  0.5509740000000  0.5182460000000  0.4595140000000 1.0
C      1  0.4292350000000  0.5502500000000  0.5417080000000 1.0
C      1  0.5202330000000  0.4476500000000  0.5118620000000 1.0
C      1  0.5306820000000  0.4756780000000  0.5399260000000 1.0
C      1  0.5496170000000  0.3939390000000  0.4922400000000 1.0
C      1  0.4132920000000  0.4952520000000  0.5630930000000 1.0
C      1  0.4057750000000  0.5146690000000  0.4653720000000 1.0
C      1  0.6091730000000  0.5021460000000  0.5172090000000 1.0
C      1  0.5914070000000  0.5608220000000  0.4984400000000 1.0
C      1  0.4735670000000  0.5324790000000  0.4268970000000 1.0
C      1  0.5154520000000  0.5951960000000  0.4382790000000 1.0
C      1  0.3978810000000  0.5389720000000  0.5452210000000 1.0
C      1  0.5166010000000  0.3966280000000  0.4840170000000 1.0
C      1  0.5086250000000  0.5855890000000  0.5602730000000 1.0
C      1  0.5977850000000  0.4810310000000  0.4976590000000 1.0
C      1  0.5508900000000  0.4017170000000  0.4640990000000 1.0
C      1  0.4944530000000  0.5463480000000  0.4790320000000 1.0
C      1  0.5327550000000  0.6037980000000  0.4645510000000 1.0
C      1  0.4672560000000  0.5381560000000  0.5755180000000 1.0
C      1  0.5170030000000  0.4474330000000  0.4141940000000 1.0
C      1  0.5153880000000  0.5081180000000  0.6042850000000 1.0
C      1  0.5666680000000  0.4377970000000  0.4281960000000 1.0
C      1  0.4510540000000  0.4483740000000  0.4855500000000 1.0
C      1  0.4290080000000  0.4446930000000  0.4624770000000 1.0
C      1  0.4406050000000  0.4975540000000  0.4801530000000 1.0
C      1  0.4870580000000  0.5039270000000  0.5306540000000 1.0
C      1  0.4601000000000  0.4714850000000  0.4030210000000 1.0
C      1  0.5340130000000  0.4214800000000  0.4557860000000 1.0
C      1  0.4436360000000  0.5297790000000  0.5256400000000 1.0
C      1  0.4488710000000  0.3954820000000  0.5457330000000 1.0
C      1  0.4449220000000  0.4896640000000  0.4245560000000 1.0
C      1  0.4905860000000  0.4212580000000  0.5565710000000 1.0
C      1  0.4829780000000  0.4586900000000  0.5201740000000 1.0
C      1  0.4515600000000  0.4384770000000  0.4430600000000 1.0
C      1  0.4160560000000  0.5498770000000  0.5719400000000 1.0
C      1  0.5152260000000  0.4769360000000  0.3994500000000 1.0
C      1  0.5773160000000  0.4497200000000  0.4509340000000 1.0
C      1  0.4573110000000  0.4766210000000  0.4925110000000 1.0
C      1  0.5476690000000  0.4590750000000  0.4157510000000 1.0
C      1  0.5647740000000  0.4880410000000  0.4214290000000 1.0
C      1  0.5521160000000  0.5255800000000  0.4987740000000 1.0
C      1  0.4492510000000  0.6043700000000  0.5345030000000 1.0
C      1  0.4086000000000  0.5670530000000  0.4698820000000 1.0
C      1  0.5145770000000  0.5042050000000  0.4336490000000 1.0
C      1  0.5122060000000  0.6112710000000  0.4884140000000 1.0
C      1  0.5005830000000  0.5319980000000  0.5059290000000 1.0
C      1  0.5369230000000  0.5633210000000  0.5430590000000 1.0
C      1  0.5587510000000  0.5895730000000  0.4604350000000 1.0
C      1  0.5707040000000  0.4862200000000  0.5608120000000 1.0
C      1  0.4650480000000  0.5084600000000  0.5849020000000 1.0
C      1  0.5852540000000  0.4771680000000  0.4444010000000 1.0
C      1  0.4337070000000  0.5813170000000  0.5329490000000 1.0
C      1  0.4675440000000  0.5820620000000  0.4970120000000 1.0
C      1  0.4539310000000  0.4704110000000  0.5699890000000 1.0
C      1  0.4869500000000  0.4015520000000  0.4999670000000 1.0
C      1  0.4786470000000  0.4766780000000  0.6099940000000 1.0
C      1  0.5942910000000  0.4451200000000  0.5506630000000 1.0
C      1  0.4198010000000  0.5128250000000  0.6114710000000 1.0
C      1  0.5439020000000  0.5137420000000  0.5240200000000 1.0
C      1  0.5311430000000  0.5769680000000  0.4218960000000 1.0
C      1  0.3970720000000  0.5526790000000  0.5162590000000 1.0
C      1  0.5969710000000  0.4506420000000  0.5059090000000 1.0
C      1  0.6018280000000  0.5415050000000  0.4776500000000 1.0
C      1  0.5235190000000  0.4208250000000  0.5567110000000 1.0
C      1  0.5001290000000  0.6124350000000  0.5142960000000 1.0
C      1  0.5556510000000  0.4646690000000  0.5281780000000 1.0
C      1  0.4268420000000  0.5328460000000  0.4454020000000 1.0
C      1  0.4329380000000  0.4996070000000  0.5905180000000 1.0
END
