TITL C-2778427-5640-790 0.000203196137092508 125000 -1160.23217091763 0 0 197 (C1) n - 1
REM
REM in /home/nfs/bkarasulu/CARBON/AIRSS/Generating-Clusters/REBO/Only-C1/SD-CG/HFTN-CG
REM
REM
REM
REM
REM
REM ./C.cell (11c1c37f851c82e70ff6c80c92926a4b)
REM
REM compiler GCC version 9.2.1 20190827 (Red Hat 9.2.1-1)
REM options -cpp -mtune=generic -march=x86-64 -g -O0 -fpre-include=/usr/include/finclude/math-vector-fortran.h
REM seed 1809330841 1157983121 1973614167 1052964753 1976883134 -1204624726 -1511073842 2120433132 1389118986 1212673421 -857720856 -957766916 314966012 1837206759 -1512596267 -2077817539 19458501 662164612 -805510441 -73180495 2119655054 -1314105654 -2084670398 2088737698 -1733824974 -29592686 -1588328581 -728441933 1360525830 -1722914205 -1662161495 -1075856463 742328743
REM
CELL 1.54180   50.00000   50.00000   50.00000   90.00000   90.00000   90.00000
LATT -1
SFAC C  
C      1  0.5678810000000  0.4798110000000  0.4601670000000 1.0
C      1  0.4260080000000  0.4766770000000  0.4309270000000 1.0
C      1  0.5556550000000  0.5678100000000  0.4552560000000 1.0
C      1  0.4382440000000  0.5369080000000  0.4552370000000 1.0
C      1  0.4223120000000  0.4421300000000  0.4630320000000 1.0
C      1  0.5448420000000  0.5951220000000  0.4728350000000 1.0
C      1  0.4403760000000  0.5908560000000  0.4542400000000 1.0
C      1  0.4985900000000  0.4403010000000  0.5225160000000 1.0
C      1  0.5057570000000  0.5891060000000  0.4181100000000 1.0
C      1  0.5732550000000  0.4559720000000  0.5049420000000 1.0
C      1  0.4907250000000  0.5498090000000  0.5595160000000 1.0
C      1  0.5976330000000  0.5353740000000  0.4831390000000 1.0
C      1  0.5070780000000  0.4938780000000  0.4532800000000 1.0
C      1  0.4853750000000  0.5324550000000  0.5213080000000 1.0
C      1  0.4974090000000  0.3968430000000  0.4675870000000 1.0
C      1  0.4393450000000  0.5528880000000  0.5192430000000 1.0
C      1  0.5297090000000  0.5582230000000  0.4733000000000 1.0
C      1  0.5840510000000  0.5547690000000  0.4598010000000 1.0
C      1  0.5208210000000  0.5053120000000  0.6131660000000 1.0
C      1  0.4269250000000  0.4410030000000  0.4967450000000 1.0
C      1  0.5637590000000  0.5231030000000  0.4998670000000 1.0
C      1  0.4990430000000  0.4313500000000  0.5928860000000 1.0
C      1  0.5427410000000  0.5114840000000  0.4544050000000 1.0
C      1  0.4086340000000  0.5097320000000  0.5635550000000 1.0
C      1  0.5715290000000  0.5185610000000  0.4685040000000 1.0
C      1  0.5256370000000  0.5625750000000  0.5007560000000 1.0
C      1  0.4423730000000  0.4754860000000  0.4545630000000 1.0
C      1  0.4715310000000  0.5273480000000  0.6011020000000 1.0
C      1  0.4653000000000  0.4087980000000  0.4700980000000 1.0
C      1  0.6051590000000  0.5048710000000  0.5220240000000 1.0
C      1  0.4282210000000  0.4900460000000  0.5985130000000 1.0
C      1  0.4728020000000  0.4932380000000  0.6061910000000 1.0
C      1  0.5451790000000  0.4112780000000  0.4425020000000 1.0
C      1  0.5393350000000  0.5245990000000  0.4296330000000 1.0
C      1  0.4640110000000  0.5233900000000  0.5465920000000 1.0
C      1  0.5436340000000  0.4919960000000  0.3889650000000 1.0
C      1  0.5664670000000  0.5023460000000  0.5765940000000 1.0
C      1  0.6052060000000  0.4845020000000  0.4735920000000 1.0
C      1  0.4818850000000  0.5002030000000  0.3883160000000 1.0
C      1  0.4577290000000  0.4631980000000  0.6005320000000 1.0
C      1  0.5018610000000  0.4306650000000  0.4704970000000 1.0
C      1  0.5576030000000  0.5478950000000  0.4031960000000 1.0
C      1  0.4496400000000  0.5279700000000  0.5039150000000 1.0
C      1  0.3966530000000  0.5314500000000  0.5418060000000 1.0
C      1  0.5314950000000  0.5681330000000  0.5797200000000 1.0
C      1  0.4849420000000  0.3653170000000  0.4703990000000 1.0
C      1  0.5222270000000  0.5881150000000  0.5576970000000 1.0
C      1  0.5215840000000  0.3967970000000  0.4436740000000 1.0
C      1  0.6050110000000  0.4564430000000  0.4808150000000 1.0
C      1  0.5115380000000  0.6094780000000  0.5098440000000 1.0
C      1  0.5955140000000  0.5847200000000  0.5817940000000 1.0
C      1  0.4461630000000  0.5002050000000  0.4688070000000 1.0
C      1  0.5190940000000  0.4691100000000  0.4736970000000 1.0
C      1  0.5135050000000  0.3948070000000  0.4963660000000 1.0
C      1  0.5050160000000  0.5309160000000  0.6080610000000 1.0
C      1  0.4976440000000  0.5775340000000  0.5438280000000 1.0
C      1  0.4464920000000  0.4560420000000  0.5291860000000 1.0
C      1  0.5694410000000  0.4966850000000  0.4008950000000 1.0
C      1  0.5466980000000  0.4388780000000  0.5673220000000 1.0
C      1  0.5153620000000  0.5062030000000  0.3908350000000 1.0
C      1  0.4496650000000  0.4536110000000  0.5630630000000 1.0
C      1  0.5016530000000  0.4833730000000  0.6163590000000 1.0
C      1  0.4753140000000  0.5585740000000  0.5027530000000 1.0
C      1  0.4152820000000  0.5394150000000  0.4231340000000 1.0
C      1  0.5519350000000  0.5685140000000  0.5163820000000 1.0
C      1  0.4747370000000  0.5019350000000  0.4312620000000 1.0
C      1  0.4837240000000  0.4887860000000  0.5469720000000 1.0
C      1  0.5451730000000  0.4102860000000  0.5516390000000 1.0
C      1  0.4756000000000  0.5578870000000  0.5864260000000 1.0
C      1  0.5595310000000  0.4235090000000  0.4203810000000 1.0
C      1  0.4489090000000  0.4169650000000  0.5371410000000 1.0
C      1  0.5655270000000  0.5179140000000  0.5480960000000 1.0
C      1  0.4831220000000  0.4340040000000  0.4228050000000 1.0
C      1  0.5188230000000  0.6063080000000  0.4588150000000 1.0
C      1  0.5670210000000  0.4091690000000  0.3985320000000 1.0
C      1  0.4625950000000  0.4742510000000  0.3994660000000 1.0
C      1  0.5757950000000  0.5240860000000  0.4070220000000 1.0
C      1  0.4484280000000  0.5314130000000  0.5758050000000 1.0
C      1  0.5560720000000  0.5677180000000  0.5561010000000 1.0
C      1  0.4660820000000  0.5980030000000  0.4443470000000 1.0
C      1  0.4314150000000  0.5642900000000  0.5508380000000 1.0
C      1  0.5334030000000  0.4415150000000  0.4658860000000 1.0
C      1  0.4265010000000  0.4607730000000  0.5956200000000 1.0
C      1  0.4372200000000  0.4895120000000  0.4086060000000 1.0
C      1  0.4695250000000  0.5127360000000  0.4593130000000 1.0
C      1  0.4518620000000  0.4198010000000  0.5060270000000 1.0
C      1  0.3965340000000  0.4840380000000  0.5198780000000 1.0
C      1  0.5646620000000  0.4512800000000  0.4231920000000 1.0
C      1  0.4321600000000  0.4736290000000  0.5052460000000 1.0
C      1  0.5659200000000  0.4973260000000  0.5220180000000 1.0
C      1  0.4068110000000  0.4850350000000  0.4878990000000 1.0
C      1  0.4877290000000  0.4694190000000  0.4652220000000 1.0
C      1  0.5928270000000  0.4868760000000  0.4445710000000 1.0
C      1  0.5273130000000  0.5364980000000  0.4001310000000 1.0
C      1  0.4957550000000  0.4762300000000  0.4083510000000 1.0
C      1  0.5737860000000  0.5835270000000  0.4868660000000 1.0
C      1  0.5316080000000  0.4925400000000  0.5597070000000 1.0
C      1  0.5164830000000  0.5298550000000  0.5263060000000 1.0
C      1  0.4256010000000  0.5693020000000  0.4361820000000 1.0
C      1  0.4159690000000  0.5125360000000  0.4771670000000 1.0
C      1  0.5174620000000  0.4121870000000  0.5715280000000 1.0
C      1  0.5714720000000  0.5332870000000  0.4377000000000 1.0
C      1  0.5465760000000  0.5637530000000  0.4260770000000 1.0
C      1  0.4043350000000  0.5410660000000  0.4887390000000 1.0
C      1  0.4037370000000  0.4787890000000  0.5521720000000 1.0
C      1  0.4506490000000  0.5940040000000  0.5310470000000 1.0
C      1  0.5079080000000  0.4619670000000  0.5949230000000 1.0
C      1  0.5855010000000  0.5686420000000  0.5617110000000 1.0
C      1  0.4562650000000  0.4837150000000  0.5564370000000 1.0
C      1  0.4701140000000  0.5033460000000  0.5123410000000 1.0
C      1  0.5488280000000  0.4475290000000  0.5222250000000 1.0
C      1  0.4154470000000  0.4534790000000  0.5661860000000 1.0
C      1  0.5738060000000  0.4131250000000  0.5345390000000 1.0
C      1  0.5335320000000  0.5126150000000  0.5044500000000 1.0
C      1  0.4200750000000  0.5861310000000  0.5293580000000 1.0
C      1  0.5222550000000  0.5423910000000  0.5877210000000 1.0
C      1  0.4830270000000  0.4314160000000  0.4988890000000 1.0
C      1  0.4062480000000  0.5492660000000  0.4556970000000 1.0
C      1  0.5410910000000  0.5990980000000  0.5052840000000 1.0
C      1  0.5246740000000  0.4467030000000  0.5437660000000 1.0
C      1  0.5535040000000  0.4751040000000  0.5419860000000 1.0
C      1  0.4580480000000  0.4451670000000  0.4156030000000 1.0
C      1  0.4812760000000  0.5659200000000  0.4623360000000 1.0
C      1  0.4301920000000  0.5047170000000  0.5136060000000 1.0
C      1  0.4949890000000  0.5401570000000  0.3993940000000 1.0
C      1  0.5004800000000  0.5151060000000  0.4200900000000 1.0
C      1  0.4891080000000  0.5977070000000  0.4681280000000 1.0
C      1  0.4705120000000  0.5931620000000  0.5521870000000 1.0
C      1  0.5811700000000  0.4762360000000  0.4181470000000 1.0
C      1  0.4441420000000  0.5015170000000  0.5799730000000 1.0
C      1  0.5963360000000  0.4563260000000  0.5254570000000 1.0
C      1  0.4360650000000  0.5183280000000  0.4062600000000 1.0
C      1  0.5818110000000  0.4331440000000  0.4840060000000 1.0
C      1  0.4633740000000  0.5278490000000  0.3956100000000 1.0
C      1  0.5366640000000  0.4939670000000  0.4800160000000 1.0
C      1  0.5405640000000  0.4650640000000  0.5967550000000 1.0
C      1  0.5723630000000  0.4542440000000  0.5618490000000 1.0
C      1  0.4776530000000  0.4727930000000  0.4363100000000 1.0
C      1  0.5468810000000  0.5935320000000  0.5379040000000 1.0
C      1  0.5727750000000  0.4099320000000  0.5060740000000 1.0
C      1  0.4176940000000  0.5420360000000  0.5667720000000 1.0
C      1  0.4683330000000  0.4140470000000  0.5575110000000 1.0
C      1  0.5214040000000  0.4962860000000  0.5297960000000 1.0
C      1  0.5658150000000  0.4831640000000  0.4918210000000 1.0
C      1  0.4613730000000  0.5555810000000  0.5433490000000 1.0
C      1  0.4000810000000  0.5177310000000  0.5133450000000 1.0
C      1  0.4694100000000  0.5578680000000  0.4101480000000 1.0
C      1  0.5758520000000  0.5548890000000  0.5006940000000 1.0
C      1  0.5332770000000  0.4316710000000  0.5953490000000 1.0
C      1  0.4373760000000  0.4384960000000  0.4327560000000 1.0
C      1  0.5552590000000  0.4197620000000  0.4715630000000 1.0
C      1  0.5428250000000  0.5402000000000  0.5453540000000 1.0
C      1  0.5184830000000  0.6108060000000  0.4315640000000 1.0
C      1  0.5466590000000  0.4941490000000  0.5970800000000 1.0
C      1  0.5446520000000  0.3995820000000  0.4934750000000 1.0
C      1  0.4507500000000  0.3907670000000  0.4895550000000 1.0
C      1  0.5933870000000  0.5269350000000  0.5361860000000 1.0
C      1  0.5362740000000  0.4159380000000  0.5211080000000 1.0
C      1  0.6012400000000  0.4814030000000  0.5380290000000 1.0
C      1  0.5022910000000  0.4417230000000  0.4403810000000 1.0
C      1  0.5022170000000  0.5680610000000  0.5149240000000 1.0
C      1  0.4577390000000  0.5847490000000  0.5036510000000 1.0
C      1  0.4013250000000  0.4666870000000  0.4641640000000 1.0
C      1  0.4236470000000  0.4333710000000  0.5417790000000 1.0
C      1  0.4580030000000  0.5583110000000  0.4395450000000 1.0
C      1  0.4900660000000  0.6072770000000  0.4973240000000 1.0
C      1  0.4613720000000  0.3646970000000  0.4855220000000 1.0
C      1  0.5179740000000  0.5646340000000  0.4268820000000 1.0
C      1  0.5172230000000  0.4689630000000  0.4337950000000 1.0
C      1  0.5323510000000  0.5219320000000  0.5698380000000 1.0
C      1  0.4947840000000  0.4060630000000  0.5502720000000 1.0
C      1  0.4710530000000  0.4715170000000  0.5120520000000 1.0
C      1  0.5464140000000  0.4633170000000  0.4451280000000 1.0
C      1  0.3982360000000  0.4844620000000  0.4395530000000 1.0
C      1  0.5857870000000  0.4831680000000  0.5639650000000 1.0
C      1  0.4693240000000  0.4358410000000  0.5837130000000 1.0
C      1  0.4947140000000  0.5179520000000  0.5573840000000 1.0
C      1  0.4582330000000  0.5460010000000  0.4775630000000 1.0
C      1  0.5009440000000  0.5239400000000  0.4513860000000 1.0
C      1  0.6011990000000  0.5521750000000  0.5451490000000 1.0
C      1  0.5017020000000  0.4740570000000  0.5233990000000 1.0
C      1  0.5068630000000  0.5523100000000  0.4540100000000 1.0
C      1  0.5057800000000  0.4010870000000  0.5252250000000 1.0
C      1  0.5894570000000  0.4347820000000  0.5443380000000 1.0
C      1  0.3989940000000  0.4526510000000  0.5100040000000 1.0
C      1  0.4543070000000  0.4348340000000  0.4686660000000 1.0
C      1  0.4370600000000  0.5867920000000  0.4816030000000 1.0
C      1  0.4160180000000  0.5128700000000  0.4442670000000 1.0
C      1  0.4771290000000  0.5872950000000  0.4197860000000 1.0
C      1  0.4955990000000  0.5021630000000  0.5823560000000 1.0
C      1  0.6060910000000  0.5063470000000  0.4931570000000 1.0
C      1  0.4310820000000  0.4956120000000  0.5428330000000 1.0
C      1  0.4177420000000  0.5684880000000  0.5005120000000 1.0
C      1  0.5078680000000  0.4693210000000  0.5634160000000 1.0
C      1  0.4650080000000  0.5833750000000  0.5797820000000 1.0
C      1  0.4701830000000  0.4572140000000  0.4835400000000 1.0
C      1  0.4854530000000  0.4490090000000  0.5497810000000 1.0
END
