TITL C-2778429-3646-598 -0.00318649904870698 125000 -343.569162790554 0 0 61 (C1) n - 1
REM
REM in /home/nfs/bkarasulu/CARBON/AIRSS/Generating-Clusters/REBO/Only-C1/SD-CG/HFTN-CG
REM
REM
REM
REM
REM
REM ./C.cell (11c1c37f851c82e70ff6c80c92926a4b)
REM
REM compiler GCC version 9.2.1 20190827 (Red Hat 9.2.1-1)
REM options -cpp -mtune=generic -march=x86-64 -g -O0 -fpre-include=/usr/include/finclude/math-vector-fortran.h
REM seed -1802649820 711818251 672918121 -1266475785 499580096 343786592 1071905339 814465781 -195955745 -1421048601 -1614000874 741070927 -697699289 -1816627711 643784022 556089698 1961219489 666783626 -2002107421 1805825863 -1334353410 1869208717 -1570491094 -1376465693 44001918 -1879287725 983365327 -133074886 -885444356 -1852899507 670851594 773916978 1306478175
REM
CELL 1.54180   50.00000   50.00000   50.00000   90.00000   90.00000   90.00000
LATT -1
SFAC C  
C      1  0.5417500000000  0.4804680000000  0.4429360000000 1.0
C      1  0.5609420000000  0.4887590000000  0.4918190000000 1.0
C      1  0.5084460000000  0.4312150000000  0.5170930000000 1.0
C      1  0.5340040000000  0.4997250000000  0.5058820000000 1.0
C      1  0.4698240000000  0.5313810000000  0.5457040000000 1.0
C      1  0.5737360000000  0.4631170000000  0.5195630000000 1.0
C      1  0.5286070000000  0.5586280000000  0.5141720000000 1.0
C      1  0.4586430000000  0.4807760000000  0.4822130000000 1.0
C      1  0.4923420000000  0.5326320000000  0.4848960000000 1.0
C      1  0.4654220000000  0.5714270000000  0.5214910000000 1.0
C      1  0.5437300000000  0.5491770000000  0.5498950000000 1.0
C      1  0.5079910000000  0.5134660000000  0.5329080000000 1.0
C      1  0.4705870000000  0.4305110000000  0.4577880000000 1.0
C      1  0.4375690000000  0.5169520000000  0.4742780000000 1.0
C      1  0.5226160000000  0.4978110000000  0.4626790000000 1.0
C      1  0.5207450000000  0.4192980000000  0.4881500000000 1.0
C      1  0.4814210000000  0.5558260000000  0.5386610000000 1.0
C      1  0.5112740000000  0.5556820000000  0.5408330000000 1.0
C      1  0.4903350000000  0.5631890000000  0.4775580000000 1.0
C      1  0.4971230000000  0.4788220000000  0.5127050000000 1.0
C      1  0.5339380000000  0.4437240000000  0.4724880000000 1.0
C      1  0.5169660000000  0.5782880000000  0.4898030000000 1.0
C      1  0.5425660000000  0.5878260000000  0.5095670000000 1.0
C      1  0.4386780000000  0.4603670000000  0.4845410000000 1.0
C      1  0.5120830000000  0.4474930000000  0.4288470000000 1.0
C      1  0.4942900000000  0.4386520000000  0.4806070000000 1.0
C      1  0.5811310000000  0.5068250000000  0.4936860000000 1.0
C      1  0.5418590000000  0.5315620000000  0.5034900000000 1.0
C      1  0.4469020000000  0.4343300000000  0.5014220000000 1.0
C      1  0.4654690000000  0.5739630000000  0.4894930000000 1.0
C      1  0.4792350000000  0.5298930000000  0.4454980000000 1.0
C      1  0.4858210000000  0.4553260000000  0.4454340000000 1.0
C      1  0.4444530000000  0.4320370000000  0.4693260000000 1.0
C      1  0.5812920000000  0.5295780000000  0.5093560000000 1.0
C      1  0.5189150000000  0.5297270000000  0.5607530000000 1.0
C      1  0.5044480000000  0.4991030000000  0.5638430000000 1.0
C      1  0.5344060000000  0.5447070000000  0.4555520000000 1.0
C      1  0.4422880000000  0.5569430000000  0.5041400000000 1.0
C      1  0.5466220000000  0.4755090000000  0.5266450000000 1.0
C      1  0.4558070000000  0.5111000000000  0.4554810000000 1.0
C      1  0.4580300000000  0.5107340000000  0.5217310000000 1.0
C      1  0.5612850000000  0.5398780000000  0.5296850000000 1.0
C      1  0.4259420000000  0.5016980000000  0.5457880000000 1.0
C      1  0.4948220000000  0.5053540000000  0.4510140000000 1.0
C      1  0.5090740000000  0.4669640000000  0.4683660000000 1.0
C      1  0.4736880000000  0.4820860000000  0.4544580000000 1.0
C      1  0.4851790000000  0.4405560000000  0.5400620000000 1.0
C      1  0.4785230000000  0.4581800000000  0.5586890000000 1.0
C      1  0.4777070000000  0.4844640000000  0.5660350000000 1.0
C      1  0.5540010000000  0.4572450000000  0.4921090000000 1.0
C      1  0.4182270000000  0.5129840000000  0.5247150000000 1.0
C      1  0.4564620000000  0.5024320000000  0.5549520000000 1.0
C      1  0.5360920000000  0.5232590000000  0.4728380000000 1.0
C      1  0.5236270000000  0.4578970000000  0.5083430000000 1.0
C      1  0.4726910000000  0.4897600000000  0.5053550000000 1.0
C      1  0.4371250000000  0.5274660000000  0.5031180000000 1.0
C      1  0.5185170000000  0.5664360000000  0.4593330000000 1.0
C      1  0.4757170000000  0.4340770000000  0.5088150000000 1.0
C      1  0.5184010000000  0.4827180000000  0.5388990000000 1.0
C      1  0.5357460000000  0.4533300000000  0.4420900000000 1.0
C      1  0.5048640000000  0.5166650000000  0.5024100000000 1.0
END
