TITL C-2778437-8639-949 6.79839573183256e-05 125000 -941.186531958325 0 0 162 (C1) n - 1
REM
REM in /home/nfs/bkarasulu/CARBON/AIRSS/Generating-Clusters/REBO/Only-C1/SD-CG/HFTN-CG
REM
REM
REM
REM
REM
REM ./C.cell (11c1c37f851c82e70ff6c80c92926a4b)
REM
REM compiler GCC version 9.2.1 20190827 (Red Hat 9.2.1-1)
REM options -cpp -mtune=generic -march=x86-64 -g -O0 -fpre-include=/usr/include/finclude/math-vector-fortran.h
REM seed 21163 -1749695829 -535465531 443444687 -1393297248 779300499 208303274 1000177349 2113283495 552789969 1177671662 955939020 -1036533045 58857332 -658323615 1988938192 58797584 -136613597 1110055202 1999643325 -690482837 -110339180 -1785404891 1844823205 -1938360755 -695550149 500391210 1632520313 2004369430 -1578548077 1888238496 2039023429 -1730375203
REM
CELL 1.54180   50.00000   50.00000   50.00000   90.00000   90.00000   90.00000
LATT -1
SFAC C  
C      1  0.5164670000000  0.4814870000000  0.4352870000000 1.0
C      1  0.4459660000000  0.5019890000000  0.3977830000000 1.0
C      1  0.4090230000000  0.4565590000000  0.4606930000000 1.0
C      1  0.4261550000000  0.4784790000000  0.5121580000000 1.0
C      1  0.5992060000000  0.4653860000000  0.4626510000000 1.0
C      1  0.3916790000000  0.5087310000000  0.4917570000000 1.0
C      1  0.4259390000000  0.4917660000000  0.5678990000000 1.0
C      1  0.5202240000000  0.4423810000000  0.5830620000000 1.0
C      1  0.5383440000000  0.5069780000000  0.4594010000000 1.0
C      1  0.4066040000000  0.4561510000000  0.5296160000000 1.0
C      1  0.5089670000000  0.4868360000000  0.4804990000000 1.0
C      1  0.4563240000000  0.3970900000000  0.5317780000000 1.0
C      1  0.4370870000000  0.5629800000000  0.5044460000000 1.0
C      1  0.5264240000000  0.5788920000000  0.5265850000000 1.0
C      1  0.5346630000000  0.4224530000000  0.4446830000000 1.0
C      1  0.4730640000000  0.5417080000000  0.4373500000000 1.0
C      1  0.4147180000000  0.4829700000000  0.4442780000000 1.0
C      1  0.5898280000000  0.4879670000000  0.4411660000000 1.0
C      1  0.4408970000000  0.4244530000000  0.4816820000000 1.0
C      1  0.4672080000000  0.5133640000000  0.5527150000000 1.0
C      1  0.5172410000000  0.4513960000000  0.4505740000000 1.0
C      1  0.4475130000000  0.4652660000000  0.4583910000000 1.0
C      1  0.5121920000000  0.5220750000000  0.4247350000000 1.0
C      1  0.5567020000000  0.4588950000000  0.5575760000000 1.0
C      1  0.4367580000000  0.4845290000000  0.4841730000000 1.0
C      1  0.5416510000000  0.4821410000000  0.5539000000000 1.0
C      1  0.4398780000000  0.5441160000000  0.5846360000000 1.0
C      1  0.4819050000000  0.5804510000000  0.5533110000000 1.0
C      1  0.4347660000000  0.5328260000000  0.4375880000000 1.0
C      1  0.5262840000000  0.5724080000000  0.4811150000000 1.0
C      1  0.5465060000000  0.4782040000000  0.4481670000000 1.0
C      1  0.4408420000000  0.4639200000000  0.5806190000000 1.0
C      1  0.5050880000000  0.5059520000000  0.5429240000000 1.0
C      1  0.4922440000000  0.5853010000000  0.5061350000000 1.0
C      1  0.4676860000000  0.4158210000000  0.4836420000000 1.0
C      1  0.5279210000000  0.3686180000000  0.5368810000000 1.0
C      1  0.3898250000000  0.4818190000000  0.4959350000000 1.0
C      1  0.4639650000000  0.5260840000000  0.4662940000000 1.0
C      1  0.5465500000000  0.5277720000000  0.4010990000000 1.0
C      1  0.5065520000000  0.6032870000000  0.4515290000000 1.0
C      1  0.5067780000000  0.4735890000000  0.5869750000000 1.0
C      1  0.5342510000000  0.5890070000000  0.4529590000000 1.0
C      1  0.5506670000000  0.4024370000000  0.4885330000000 1.0
C      1  0.4684120000000  0.4935130000000  0.4769380000000 1.0
C      1  0.4737870000000  0.3966710000000  0.5033110000000 1.0
C      1  0.5021530000000  0.4212730000000  0.4478210000000 1.0
C      1  0.5863990000000  0.5507030000000  0.5429160000000 1.0
C      1  0.4817030000000  0.5075570000000  0.5010610000000 1.0
C      1  0.3901260000000  0.5007040000000  0.4418200000000 1.0
C      1  0.5930160000000  0.4630200000000  0.4960210000000 1.0
C      1  0.5923290000000  0.4945940000000  0.5542380000000 1.0
C      1  0.4940440000000  0.5170930000000  0.5713130000000 1.0
C      1  0.4210720000000  0.5526910000000  0.4797880000000 1.0
C      1  0.5635900000000  0.5276080000000  0.4575380000000 1.0
C      1  0.4629090000000  0.4733460000000  0.4023580000000 1.0
C      1  0.5014950000000  0.5438140000000  0.5883680000000 1.0
C      1  0.4902830000000  0.4508240000000  0.5585240000000 1.0
C      1  0.4910120000000  0.4341680000000  0.4753690000000 1.0
C      1  0.5046510000000  0.5125660000000  0.4569820000000 1.0
C      1  0.5213370000000  0.5506940000000  0.5233160000000 1.0
C      1  0.4557720000000  0.4357460000000  0.5821360000000 1.0
C      1  0.4056130000000  0.5567100000000  0.5519090000000 1.0
C      1  0.5519130000000  0.5558510000000  0.4887250000000 1.0
C      1  0.5995930000000  0.5334020000000  0.5012900000000 1.0
C      1  0.4851870000000  0.4644870000000  0.4707870000000 1.0
C      1  0.4714680000000  0.5016880000000  0.5905810000000 1.0
C      1  0.5048010000000  0.5838510000000  0.5701070000000 1.0
C      1  0.5786860000000  0.4415470000000  0.4654990000000 1.0
C      1  0.4526320000000  0.5896830000000  0.5053560000000 1.0
C      1  0.5101460000000  0.5185040000000  0.6078760000000 1.0
C      1  0.5115480000000  0.5514310000000  0.4343170000000 1.0
C      1  0.5476550000000  0.5947650000000  0.4968010000000 1.0
C      1  0.4335490000000  0.4783170000000  0.4178630000000 1.0
C      1  0.5784100000000  0.5109010000000  0.5729760000000 1.0
C      1  0.4772740000000  0.5517990000000  0.5487380000000 1.0
C      1  0.5185540000000  0.6037950000000  0.5045710000000 1.0
C      1  0.4910350000000  0.3994330000000  0.5319950000000 1.0
C      1  0.4908540000000  0.4866390000000  0.5217520000000 1.0
C      1  0.5491590000000  0.4915640000000  0.5162840000000 1.0
C      1  0.4790960000000  0.4271450000000  0.5437040000000 1.0
C      1  0.4843170000000  0.4198950000000  0.4258310000000 1.0
C      1  0.4723920000000  0.5924260000000  0.5288140000000 1.0
C      1  0.4295970000000  0.4389330000000  0.5482570000000 1.0
C      1  0.4335020000000  0.4386910000000  0.4579570000000 1.0
C      1  0.4897390000000  0.5958000000000  0.4306200000000 1.0
C      1  0.4627560000000  0.5148680000000  0.5250960000000 1.0
C      1  0.5787710000000  0.5418460000000  0.5680570000000 1.0
C      1  0.5384770000000  0.5646160000000  0.4317880000000 1.0
C      1  0.4490190000000  0.4178340000000  0.5567040000000 1.0
C      1  0.4012110000000  0.5331740000000  0.4847440000000 1.0
C      1  0.4178510000000  0.4934210000000  0.5385580000000 1.0
C      1  0.5030730000000  0.5254780000000  0.4889030000000 1.0
C      1  0.4570060000000  0.5260150000000  0.4124930000000 1.0
C      1  0.4728950000000  0.4748490000000  0.5471390000000 1.0
C      1  0.4116800000000  0.5558650000000  0.5765630000000 1.0
C      1  0.4812650000000  0.4480800000000  0.4145310000000 1.0
C      1  0.4640310000000  0.5945970000000  0.4794870000000 1.0
C      1  0.4742570000000  0.4570240000000  0.5177770000000 1.0
C      1  0.5148170000000  0.4322360000000  0.4972260000000 1.0
C      1  0.4695360000000  0.5352200000000  0.5965850000000 1.0
C      1  0.5232520000000  0.4573210000000  0.4801450000000 1.0
C      1  0.5992510000000  0.4841800000000  0.5224140000000 1.0
C      1  0.5646670000000  0.5031340000000  0.4814010000000 1.0
C      1  0.5201710000000  0.3951070000000  0.5320450000000 1.0
C      1  0.4728400000000  0.4707560000000  0.5905690000000 1.0
C      1  0.5646510000000  0.5877360000000  0.4686870000000 1.0
C      1  0.5722830000000  0.4361470000000  0.4984610000000 1.0
C      1  0.5654510000000  0.4815330000000  0.4213130000000 1.0
C      1  0.5378670000000  0.5011720000000  0.4167880000000 1.0
C      1  0.5439470000000  0.5345190000000  0.5086370000000 1.0
C      1  0.4386670000000  0.5243330000000  0.5139530000000 1.0
C      1  0.5621470000000  0.4208100000000  0.5243270000000 1.0
C      1  0.4021620000000  0.4572690000000  0.4884960000000 1.0
C      1  0.5286860000000  0.5083840000000  0.4980500000000 1.0
C      1  0.4782720000000  0.5000810000000  0.4389430000000 1.0
C      1  0.5463780000000  0.5340430000000  0.5688430000000 1.0
C      1  0.4642190000000  0.5483440000000  0.4919160000000 1.0
C      1  0.4374500000000  0.5544870000000  0.4563890000000 1.0
C      1  0.5242800000000  0.4972770000000  0.5975520000000 1.0
C      1  0.4901450000000  0.5589190000000  0.4597210000000 1.0
C      1  0.5493400000000  0.5043920000000  0.5860320000000 1.0
C      1  0.5416110000000  0.4169150000000  0.5423080000000 1.0
C      1  0.4870410000000  0.4395020000000  0.5900760000000 1.0
C      1  0.5311210000000  0.5839380000000  0.5540400000000 1.0
C      1  0.4451310000000  0.4645660000000  0.5340240000000 1.0
C      1  0.4547200000000  0.4291250000000  0.5188930000000 1.0
C      1  0.5410860000000  0.4584980000000  0.4137840000000 1.0
C      1  0.5578950000000  0.5570400000000  0.4556570000000 1.0
C      1  0.4274870000000  0.5491640000000  0.5305580000000 1.0
C      1  0.5658610000000  0.4634060000000  0.5174410000000 1.0
C      1  0.4932300000000  0.4856280000000  0.4116280000000 1.0
C      1  0.5723960000000  0.5284890000000  0.5221000000000 1.0
C      1  0.4114490000000  0.4623920000000  0.5628660000000 1.0
C      1  0.5905880000000  0.5027170000000  0.4976430000000 1.0
C      1  0.4896470000000  0.5245280000000  0.4055360000000 1.0
C      1  0.6122390000000  0.5236000000000  0.4718010000000 1.0
C      1  0.4441590000000  0.5009800000000  0.4408080000000 1.0
C      1  0.5515750000000  0.5117570000000  0.5434470000000 1.0
C      1  0.5946670000000  0.5608770000000  0.5153870000000 1.0
C      1  0.5401020000000  0.4362440000000  0.5634150000000 1.0
C      1  0.4973350000000  0.5570840000000  0.4905350000000 1.0
C      1  0.4376620000000  0.5168520000000  0.4858300000000 1.0
C      1  0.5473070000000  0.4754390000000  0.4862710000000 1.0
C      1  0.5121570000000  0.4579650000000  0.4039030000000 1.0
C      1  0.4950300000000  0.6065700000000  0.4797490000000 1.0
C      1  0.5491170000000  0.5521840000000  0.4057590000000 1.0
C      1  0.4443100000000  0.5134590000000  0.5748350000000 1.0
C      1  0.4243390000000  0.4383810000000  0.5065310000000 1.0
C      1  0.5264160000000  0.5569350000000  0.5744010000000 1.0
C      1  0.5291090000000  0.4092550000000  0.5051220000000 1.0
C      1  0.5759130000000  0.5767770000000  0.4993230000000 1.0
C      1  0.6125740000000  0.4913200000000  0.4757180000000 1.0
C      1  0.5562220000000  0.4476740000000  0.4426350000000 1.0
C      1  0.4606270000000  0.5724430000000  0.4601960000000 1.0
C      1  0.5578480000000  0.4154820000000  0.4658190000000 1.0
C      1  0.5914470000000  0.5149780000000  0.4514180000000 1.0
C      1  0.5118720000000  0.4770170000000  0.5552260000000 1.0
C      1  0.5004270000000  0.5375070000000  0.5375400000000 1.0
C      1  0.5844230000000  0.4636720000000  0.5454620000000 1.0
C      1  0.4862130000000  0.5696220000000  0.4220160000000 1.0
C      1  0.4726040000000  0.4680080000000  0.4407210000000 1.0
C      1  0.4489080000000  0.5485730000000  0.5536340000000 1.0
END
