TITL C-2778422-5617-1161 -0.00281362055860837 125000 -485.815793237632 0 0 85 (C1) n - 1
REM
REM in /home/nfs/bkarasulu/CARBON/AIRSS/Generating-Clusters/REBO/Only-C1/SD-CG/HFTN-CG
REM
REM
REM
REM
REM
REM ./C.cell (11c1c37f851c82e70ff6c80c92926a4b)
REM
REM compiler GCC version 9.2.1 20190827 (Red Hat 9.2.1-1)
REM options -cpp -mtune=generic -march=x86-64 -g -O0 -fpre-include=/usr/include/finclude/math-vector-fortran.h
REM seed -1139450166 1375166086 -501991341 -1583266451 -882089524 1720851297 1256997875 1051162047 1688428969 1017314897 83250269 11668445 -217833998 -449061726 -1890539821 1975977706 -1750904844 1161178216 1769117671 2108545356 374583362 -2095614046 -961824831 -1651635591 1098275940 -882640962 -292585178 -685962841 -1291748211 -365091078 -558695264 995188676 -2059081926
REM
CELL 1.54180   50.00000   50.00000   50.00000   90.00000   90.00000   90.00000
LATT -1
SFAC C  
C      1  0.4976220000000  0.4791990000000  0.5427540000000 1.0
C      1  0.5336420000000  0.4797010000000  0.5632670000000 1.0
C      1  0.5283250000000  0.5418270000000  0.4752220000000 1.0
C      1  0.4700840000000  0.5680560000000  0.5274210000000 1.0
C      1  0.4703090000000  0.4809930000000  0.5240580000000 1.0
C      1  0.5742390000000  0.5135080000000  0.4612740000000 1.0
C      1  0.5272680000000  0.5701550000000  0.4583490000000 1.0
C      1  0.5267360000000  0.4666270000000  0.5333300000000 1.0
C      1  0.4623490000000  0.5179020000000  0.5370640000000 1.0
C      1  0.5324080000000  0.5202450000000  0.4327480000000 1.0
C      1  0.4432880000000  0.5242590000000  0.4911590000000 1.0
C      1  0.4728890000000  0.4606280000000  0.5005100000000 1.0
C      1  0.5560460000000  0.5485810000000  0.5201980000000 1.0
C      1  0.5231470000000  0.5086680000000  0.5606640000000 1.0
C      1  0.5009890000000  0.5751320000000  0.4549800000000 1.0
C      1  0.4878620000000  0.4977570000000  0.4893260000000 1.0
C      1  0.5552020000000  0.5579410000000  0.4635140000000 1.0
C      1  0.4204990000000  0.4583110000000  0.4976750000000 1.0
C      1  0.4778020000000  0.4486720000000  0.5588770000000 1.0
C      1  0.4609790000000  0.5081610000000  0.5061980000000 1.0
C      1  0.4814930000000  0.5350050000000  0.4283490000000 1.0
C      1  0.4633810000000  0.4379270000000  0.4694170000000 1.0
C      1  0.5083220000000  0.4572070000000  0.5670150000000 1.0
C      1  0.4990390000000  0.5259280000000  0.4737580000000 1.0
C      1  0.5093350000000  0.4767160000000  0.4988350000000 1.0
C      1  0.4289100000000  0.5119850000000  0.5313710000000 1.0
C      1  0.5707350000000  0.5292360000000  0.4999740000000 1.0
C      1  0.5087130000000  0.5674100000000  0.4987980000000 1.0
C      1  0.4623760000000  0.4979800000000  0.5716950000000 1.0
C      1  0.4401060000000  0.5188010000000  0.5628800000000 1.0
C      1  0.5185420000000  0.4741140000000  0.4601910000000 1.0
C      1  0.4320580000000  0.5544230000000  0.4991930000000 1.0
C      1  0.5037460000000  0.4673540000000  0.4317490000000 1.0
C      1  0.5093800000000  0.4384510000000  0.5379200000000 1.0
C      1  0.4328890000000  0.5486530000000  0.5509640000000 1.0
C      1  0.4879410000000  0.4315250000000  0.4886130000000 1.0
C      1  0.4693700000000  0.4977960000000  0.4205450000000 1.0
C      1  0.4368810000000  0.4615790000000  0.5342980000000 1.0
C      1  0.5591210000000  0.4724210000000  0.4909240000000 1.0
C      1  0.5286650000000  0.5598130000000  0.5181290000000 1.0
C      1  0.5598700000000  0.4304260000000  0.5379790000000 1.0
C      1  0.5264770000000  0.5117380000000  0.5262590000000 1.0
C      1  0.5164850000000  0.5562130000000  0.5453080000000 1.0
C      1  0.4838360000000  0.5513070000000  0.4646790000000 1.0
C      1  0.4549780000000  0.4908180000000  0.4461370000000 1.0
C      1  0.5888990000000  0.5056510000000  0.5117390000000 1.0
C      1  0.5072030000000  0.5292600000000  0.4284200000000 1.0
C      1  0.4891230000000  0.4560760000000  0.4577180000000 1.0
C      1  0.5547370000000  0.5050200000000  0.4416570000000 1.0
C      1  0.4608100000000  0.4815590000000  0.4764250000000 1.0
C      1  0.5339650000000  0.5379970000000  0.5601580000000 1.0
C      1  0.4802170000000  0.5685230000000  0.5005170000000 1.0
C      1  0.4585230000000  0.4727270000000  0.5549000000000 1.0
C      1  0.4938930000000  0.5116260000000  0.5341460000000 1.0
C      1  0.5753520000000  0.4554400000000  0.5408960000000 1.0
C      1  0.5364500000000  0.4223970000000  0.5357860000000 1.0
C      1  0.4911970000000  0.4829750000000  0.4126900000000 1.0
C      1  0.4557830000000  0.5603450000000  0.4792810000000 1.0
C      1  0.4142130000000  0.5025730000000  0.4664300000000 1.0
C      1  0.4900790000000  0.5091530000000  0.5679140000000 1.0
C      1  0.4786650000000  0.4383540000000  0.5264810000000 1.0
C      1  0.5388510000000  0.5210040000000  0.4969790000000 1.0
C      1  0.5800420000000  0.4950290000000  0.4816020000000 1.0
C      1  0.4304100000000  0.4867300000000  0.4866280000000 1.0
C      1  0.4490550000000  0.5246940000000  0.4261400000000 1.0
C      1  0.5599820000000  0.5410690000000  0.5479790000000 1.0
C      1  0.4466970000000  0.4379020000000  0.5197460000000 1.0
C      1  0.5639820000000  0.4769610000000  0.5637450000000 1.0
C      1  0.5832440000000  0.4715460000000  0.5132120000000 1.0
C      1  0.4563970000000  0.5489180000000  0.4471620000000 1.0
C      1  0.5473490000000  0.4291500000000  0.4651600000000 1.0
C      1  0.4401570000000  0.4368350000000  0.4893380000000 1.0
C      1  0.4154320000000  0.5335630000000  0.5182940000000 1.0
C      1  0.5527880000000  0.4764510000000  0.4398170000000 1.0
C      1  0.5766720000000  0.5416040000000  0.4707890000000 1.0
C      1  0.5102360000000  0.4502840000000  0.4911740000000 1.0
C      1  0.4425930000000  0.5612080000000  0.5288580000000 1.0
C      1  0.4241610000000  0.4853980000000  0.5186770000000 1.0
C      1  0.5375170000000  0.4837440000000  0.5101750000000 1.0
C      1  0.4896850000000  0.5648210000000  0.5476240000000 1.0
C      1  0.5845410000000  0.4907250000000  0.5413450000000 1.0
C      1  0.5462380000000  0.4592420000000  0.4667600000000 1.0
C      1  0.5236600000000  0.5025910000000  0.4724220000000 1.0
C      1  0.5482890000000  0.4036840000000  0.4638070000000 1.0
C      1  0.4285820000000  0.5060240000000  0.4438410000000 1.0
END
