TITL C-2778430-5657-662 0.00301323143727564 125000 -972.935029616479 0 0 165 (C1) n - 1
REM
REM in /home/nfs/bkarasulu/CARBON/AIRSS/Generating-Clusters/REBO/Only-C1/SD-CG/HFTN-CG
REM
REM
REM
REM
REM
REM ./C.cell (11c1c37f851c82e70ff6c80c92926a4b)
REM
REM compiler GCC version 9.2.1 20190827 (Red Hat 9.2.1-1)
REM options -cpp -mtune=generic -march=x86-64 -g -O0 -fpre-include=/usr/include/finclude/math-vector-fortran.h
REM seed 1928419879 1204218488 1828740654 -1070171549 -1517188561 862801046 -2080768720 1740008874 -721604046 -847342430 1666376299 2140258903 827806619 2055922886 -1097601247 -1776027565 727582608 253649304 -1032068935 1984429856 996065439 73439198 1211170656 84506396 1500725808 -2065680600 -68218605 728346370 1145682600 1653983848 -1573014194 -255896481 1784973178
REM
CELL 1.54180   50.00000   50.00000   50.00000   90.00000   90.00000   90.00000
LATT -1
SFAC C  
C      1  0.5275510000000  0.4662830000000  0.5821080000000 1.0
C      1  0.4402650000000  0.5249130000000  0.5925410000000 1.0
C      1  0.4533540000000  0.5236340000000  0.5414990000000 1.0
C      1  0.4451540000000  0.5753980000000  0.5464550000000 1.0
C      1  0.5607710000000  0.4451450000000  0.4627560000000 1.0
C      1  0.5120590000000  0.5289190000000  0.4416750000000 1.0
C      1  0.5569380000000  0.4841980000000  0.5036990000000 1.0
C      1  0.4514340000000  0.4338180000000  0.5723320000000 1.0
C      1  0.4644640000000  0.5944190000000  0.4463340000000 1.0
C      1  0.4245660000000  0.5628940000000  0.5316300000000 1.0
C      1  0.5228290000000  0.4569510000000  0.4587580000000 1.0
C      1  0.4967350000000  0.4621610000000  0.3858880000000 1.0
C      1  0.4886620000000  0.5485490000000  0.4263080000000 1.0
C      1  0.5362920000000  0.4475470000000  0.5436230000000 1.0
C      1  0.4918850000000  0.4657570000000  0.5640500000000 1.0
C      1  0.3975150000000  0.5125470000000  0.5450100000000 1.0
C      1  0.5138140000000  0.5880310000000  0.5613640000000 1.0
C      1  0.4953980000000  0.5765580000000  0.4879430000000 1.0
C      1  0.6001260000000  0.5342590000000  0.4955770000000 1.0
C      1  0.5522260000000  0.5145260000000  0.5506210000000 1.0
C      1  0.4067830000000  0.5528150000000  0.4855220000000 1.0
C      1  0.5069220000000  0.4469780000000  0.5991360000000 1.0
C      1  0.5664250000000  0.5443220000000  0.5592320000000 1.0
C      1  0.6048340000000  0.5063790000000  0.5066720000000 1.0
C      1  0.4298220000000  0.4979690000000  0.5910150000000 1.0
C      1  0.4693730000000  0.5029890000000  0.4127160000000 1.0
C      1  0.4457140000000  0.5610910000000  0.4823850000000 1.0
C      1  0.5385910000000  0.5649830000000  0.5647500000000 1.0
C      1  0.4985440000000  0.5330470000000  0.5639200000000 1.0
C      1  0.4518000000000  0.5115980000000  0.4333140000000 1.0
C      1  0.5032420000000  0.4498150000000  0.5379100000000 1.0
C      1  0.5346990000000  0.4214530000000  0.5063830000000 1.0
C      1  0.5222810000000  0.5746320000000  0.4369140000000 1.0
C      1  0.5238130000000  0.5270130000000  0.5192420000000 1.0
C      1  0.4468760000000  0.6108120000000  0.4704570000000 1.0
C      1  0.5163100000000  0.5035160000000  0.5995680000000 1.0
C      1  0.4611050000000  0.5950570000000  0.5299640000000 1.0
C      1  0.5085390000000  0.4432170000000  0.4043910000000 1.0
C      1  0.6004300000000  0.4495570000000  0.4257220000000 1.0
C      1  0.5796900000000  0.5728910000000  0.5171350000000 1.0
C      1  0.4634830000000  0.4099290000000  0.5171900000000 1.0
C      1  0.5466480000000  0.4543220000000  0.4343670000000 1.0
C      1  0.5655320000000  0.5178790000000  0.4404280000000 1.0
C      1  0.5174290000000  0.5652620000000  0.4045630000000 1.0
C      1  0.5785370000000  0.4637500000000  0.4411450000000 1.0
C      1  0.4758020000000  0.4664240000000  0.4685740000000 1.0
C      1  0.4819450000000  0.5888060000000  0.5542000000000 1.0
C      1  0.5241160000000  0.5808920000000  0.4706240000000 1.0
C      1  0.4959010000000  0.5401380000000  0.3965990000000 1.0
C      1  0.5080230000000  0.4898750000000  0.3876550000000 1.0
C      1  0.5938400000000  0.4790800000000  0.5420620000000 1.0
C      1  0.4799450000000  0.4266890000000  0.4617090000000 1.0
C      1  0.4545190000000  0.4250880000000  0.4813120000000 1.0
C      1  0.4056840000000  0.4636450000000  0.4854210000000 1.0
C      1  0.5058190000000  0.4799860000000  0.5145850000000 1.0
C      1  0.4878080000000  0.4207520000000  0.5294740000000 1.0
C      1  0.5162640000000  0.4893060000000  0.5613630000000 1.0
C      1  0.3954230000000  0.4949940000000  0.4946880000000 1.0
C      1  0.4919430000000  0.5743370000000  0.4481680000000 1.0
C      1  0.4559670000000  0.4499060000000  0.5982450000000 1.0
C      1  0.4724560000000  0.5905650000000  0.4790220000000 1.0
C      1  0.4483460000000  0.4949880000000  0.5558280000000 1.0
C      1  0.5674500000000  0.5716320000000  0.4908330000000 1.0
C      1  0.4822490000000  0.4451380000000  0.6093310000000 1.0
C      1  0.4011420000000  0.5282680000000  0.4999260000000 1.0
C      1  0.5960930000000  0.4816140000000  0.4959550000000 1.0
C      1  0.5340910000000  0.4629210000000  0.5160650000000 1.0
C      1  0.4486140000000  0.5962040000000  0.5012580000000 1.0
C      1  0.5389380000000  0.4486630000000  0.4875450000000 1.0
C      1  0.4894240000000  0.5124760000000  0.3935390000000 1.0
C      1  0.4665720000000  0.5226220000000  0.4572790000000 1.0
C      1  0.5058610000000  0.5311890000000  0.4935580000000 1.0
C      1  0.5593940000000  0.5704450000000  0.5392150000000 1.0
C      1  0.4994390000000  0.4149260000000  0.5588060000000 1.0
C      1  0.4384650000000  0.4404690000000  0.5475680000000 1.0
C      1  0.4810730000000  0.5365280000000  0.5367860000000 1.0
C      1  0.4395060000000  0.4243610000000  0.5228910000000 1.0
C      1  0.4501340000000  0.4778910000000  0.5941300000000 1.0
C      1  0.4042870000000  0.4612190000000  0.5193920000000 1.0
C      1  0.4335690000000  0.4721610000000  0.5125710000000 1.0
C      1  0.4562060000000  0.5308160000000  0.4892110000000 1.0
C      1  0.4977330000000  0.3957060000000  0.4796950000000 1.0
C      1  0.5231890000000  0.5390240000000  0.4691340000000 1.0
C      1  0.5661680000000  0.4392080000000  0.5464380000000 1.0
C      1  0.4247220000000  0.5736390000000  0.5027010000000 1.0
C      1  0.4746530000000  0.4748890000000  0.4164020000000 1.0
C      1  0.5564080000000  0.5336080000000  0.4642350000000 1.0
C      1  0.4226160000000  0.4599840000000  0.4591490000000 1.0
C      1  0.5849450000000  0.4938240000000  0.4480020000000 1.0
C      1  0.4373480000000  0.4683870000000  0.5423740000000 1.0
C      1  0.5648740000000  0.5134340000000  0.5941950000000 1.0
C      1  0.5309100000000  0.4040920000000  0.4782760000000 1.0
C      1  0.4840590000000  0.5114070000000  0.4908660000000 1.0
C      1  0.5280400000000  0.4992180000000  0.5014130000000 1.0
C      1  0.5196690000000  0.5942650000000  0.5016000000000 1.0
C      1  0.5463150000000  0.4864090000000  0.4550870000000 1.0
C      1  0.6041300000000  0.5210590000000  0.4496440000000 1.0
C      1  0.5062700000000  0.4359920000000  0.5068300000000 1.0
C      1  0.5407160000000  0.5536030000000  0.4946110000000 1.0
C      1  0.4255380000000  0.4374780000000  0.4947130000000 1.0
C      1  0.4694940000000  0.5548240000000  0.4605800000000 1.0
C      1  0.4352030000000  0.4976690000000  0.4957770000000 1.0
C      1  0.4884110000000  0.5100770000000  0.5866370000000 1.0
C      1  0.4149050000000  0.4930280000000  0.5639500000000 1.0
C      1  0.5172030000000  0.5912990000000  0.5294400000000 1.0
C      1  0.4673480000000  0.5281740000000  0.6038850000000 1.0
C      1  0.4658760000000  0.4847140000000  0.4932810000000 1.0
C      1  0.3828560000000  0.4945410000000  0.5240950000000 1.0
C      1  0.5607560000000  0.5117120000000  0.5197730000000 1.0
C      1  0.5560290000000  0.3887260000000  0.5375620000000 1.0
C      1  0.4432350000000  0.5407970000000  0.5674340000000 1.0
C      1  0.5554920000000  0.5329590000000  0.4150340000000 1.0
C      1  0.5475480000000  0.4946710000000  0.4230760000000 1.0
C      1  0.5934960000000  0.5344420000000  0.5436750000000 1.0
C      1  0.4871670000000  0.4959040000000  0.4616060000000 1.0
C      1  0.5332320000000  0.4918500000000  0.4008650000000 1.0
C      1  0.4584700000000  0.4408370000000  0.4312740000000 1.0
C      1  0.4627990000000  0.5681270000000  0.5720890000000 1.0
C      1  0.5296890000000  0.5404950000000  0.4174930000000 1.0
C      1  0.5673140000000  0.5320610000000  0.4963220000000 1.0
C      1  0.4732240000000  0.4875580000000  0.5747660000000 1.0
C      1  0.4812370000000  0.4366080000000  0.5702860000000 1.0
C      1  0.4610550000000  0.5684380000000  0.4245740000000 1.0
C      1  0.5949560000000  0.4629680000000  0.5174530000000 1.0
C      1  0.5101720000000  0.5031750000000  0.5359280000000 1.0
C      1  0.4558430000000  0.4527410000000  0.5000690000000 1.0
C      1  0.4435630000000  0.4513210000000  0.4081730000000 1.0
C      1  0.5346910000000  0.5555620000000  0.5261550000000 1.0
C      1  0.4893050000000  0.5532290000000  0.5077570000000 1.0
C      1  0.5774570000000  0.4184210000000  0.4995080000000 1.0
C      1  0.5499170000000  0.4847740000000  0.5654830000000 1.0
C      1  0.4722520000000  0.3991370000000  0.4903470000000 1.0
C      1  0.5210860000000  0.4352290000000  0.5705150000000 1.0
C      1  0.5746580000000  0.4664620000000  0.5621560000000 1.0
C      1  0.5714840000000  0.4825520000000  0.4757260000000 1.0
C      1  0.5879180000000  0.4601750000000  0.5890200000000 1.0
C      1  0.5353630000000  0.4438530000000  0.4087500000000 1.0
C      1  0.4168790000000  0.4996070000000  0.4687030000000 1.0
C      1  0.4999680000000  0.4678070000000  0.4347410000000 1.0
C      1  0.4072690000000  0.5246970000000  0.4497030000000 1.0
C      1  0.5092050000000  0.4115910000000  0.4531380000000 1.0
C      1  0.5494100000000  0.5657350000000  0.4553850000000 1.0
C      1  0.5283120000000  0.5346680000000  0.5644590000000 1.0
C      1  0.4384800000000  0.5642370000000  0.4492010000000 1.0
C      1  0.5614880000000  0.4173970000000  0.4772140000000 1.0
C      1  0.5831470000000  0.4372300000000  0.5197230000000 1.0
C      1  0.5518470000000  0.4136150000000  0.5297930000000 1.0
C      1  0.4820410000000  0.5491480000000  0.5869490000000 1.0
C      1  0.3949180000000  0.4733160000000  0.5452420000000 1.0
C      1  0.5042170000000  0.5604310000000  0.5352070000000 1.0
C      1  0.4125760000000  0.5498910000000  0.4585270000000 1.0
C      1  0.4992740000000  0.4464460000000  0.4793840000000 1.0
C      1  0.4656790000000  0.4602210000000  0.3885730000000 1.0
C      1  0.5993870000000  0.5425730000000  0.4662260000000 1.0
C      1  0.4518810000000  0.4545770000000  0.4546840000000 1.0
C      1  0.5149720000000  0.4961240000000  0.4461360000000 1.0
C      1  0.5987490000000  0.5521990000000  0.5209470000000 1.0
C      1  0.5813990000000  0.5647260000000  0.4646940000000 1.0
C      1  0.4380910000000  0.5231230000000  0.5141820000000 1.0
C      1  0.4900340000000  0.4353480000000  0.4301960000000 1.0
C      1  0.5996850000000  0.5068780000000  0.5359980000000 1.0
C      1  0.4117180000000  0.5341330000000  0.5299290000000 1.0
C      1  0.5381590000000  0.5157170000000  0.5880430000000 1.0
C      1  0.4308080000000  0.4941630000000  0.4402180000000 1.0
C      1  0.4256360000000  0.4672730000000  0.4273280000000 1.0
END
