TITL C-2778433-5640-250 0.00380877679974867 125000 -377.34123157194 0 0 66 (C1) n - 1
REM
REM in /home/nfs/bkarasulu/CARBON/AIRSS/Generating-Clusters/REBO/Only-C1/SD-CG/HFTN-CG
REM
REM
REM
REM
REM
REM ./C.cell (11c1c37f851c82e70ff6c80c92926a4b)
REM
REM compiler GCC version 9.2.1 20190827 (Red Hat 9.2.1-1)
REM options -cpp -mtune=generic -march=x86-64 -g -O0 -fpre-include=/usr/include/finclude/math-vector-fortran.h
REM seed -427528607 -798854390 1725096757 -625794960 -755867922 880957201 584536454 1307221631 1974655032 2105870434 -1392859243 -306550861 1398640964 1270823737 -1783274545 738050354 -786993869 2023232057 663427396 -1018792428 1808786059 1357820231 -377884143 1455115317 -69789901 1150809170 -261219952 -2105035303 210133637 -252372249 728645230 -105226507 -1504223696
REM
CELL 1.54180   50.00000   50.00000   50.00000   90.00000   90.00000   90.00000
LATT -1
SFAC C  
C      1  0.5182660000000  0.5584150000000  0.5581560000000 1.0
C      1  0.5419170000000  0.5122330000000  0.4430650000000 1.0
C      1  0.4947690000000  0.5125090000000  0.5546570000000 1.0
C      1  0.5451150000000  0.5059580000000  0.5794180000000 1.0
C      1  0.4743050000000  0.5722500000000  0.4653750000000 1.0
C      1  0.5473610000000  0.4998950000000  0.4729220000000 1.0
C      1  0.5517500000000  0.4293200000000  0.5029590000000 1.0
C      1  0.5521050000000  0.4409750000000  0.5271060000000 1.0
C      1  0.5527310000000  0.5477620000000  0.4897710000000 1.0
C      1  0.5607220000000  0.5004450000000  0.4984400000000 1.0
C      1  0.4553800000000  0.4380670000000  0.4971360000000 1.0
C      1  0.4927870000000  0.5442820000000  0.5597210000000 1.0
C      1  0.4711680000000  0.4788920000000  0.4771630000000 1.0
C      1  0.5260730000000  0.4602630000000  0.5373840000000 1.0
C      1  0.4701480000000  0.4650910000000  0.4463600000000 1.0
C      1  0.4403990000000  0.4591660000000  0.5374600000000 1.0
C      1  0.4386370000000  0.4594760000000  0.5076700000000 1.0
C      1  0.5391450000000  0.4535740000000  0.4494740000000 1.0
C      1  0.5156690000000  0.5137830000000  0.4764930000000 1.0
C      1  0.5571530000000  0.4633180000000  0.5495120000000 1.0
C      1  0.5262130000000  0.4600520000000  0.5033670000000 1.0
C      1  0.4914450000000  0.5408130000000  0.4477040000000 1.0
C      1  0.5082590000000  0.5697360000000  0.4895580000000 1.0
C      1  0.4644090000000  0.4971880000000  0.4408850000000 1.0
C      1  0.5731960000000  0.5125010000000  0.5517010000000 1.0
C      1  0.4440710000000  0.5303500000000  0.4729380000000 1.0
C      1  0.4822410000000  0.4412210000000  0.5070580000000 1.0
C      1  0.5060950000000  0.4338240000000  0.4597960000000 1.0
C      1  0.4391940000000  0.4565000000000  0.4528770000000 1.0
C      1  0.5215810000000  0.4974240000000  0.4287430000000 1.0
C      1  0.4698700000000  0.5502390000000  0.4826080000000 1.0
C      1  0.4980680000000  0.4603280000000  0.5477560000000 1.0
C      1  0.4557200000000  0.4356720000000  0.5459490000000 1.0
C      1  0.4523520000000  0.5599590000000  0.5077720000000 1.0
C      1  0.4766840000000  0.5093180000000  0.5258520000000 1.0
C      1  0.4934190000000  0.5342730000000  0.4995560000000 1.0
C      1  0.4376050000000  0.5030820000000  0.4602620000000 1.0
C      1  0.4843670000000  0.5702280000000  0.5138990000000 1.0
C      1  0.4828330000000  0.4386090000000  0.5359710000000 1.0
C      1  0.4967340000000  0.4682270000000  0.4969860000000 1.0
C      1  0.4633460000000  0.5306300000000  0.4484110000000 1.0
C      1  0.4533710000000  0.4816960000000  0.5504660000000 1.0
C      1  0.5090560000000  0.5526450000000  0.4654280000000 1.0
C      1  0.4342770000000  0.5359700000000  0.5152540000000 1.0
C      1  0.4975130000000  0.4896570000000  0.4619790000000 1.0
C      1  0.5624120000000  0.5320390000000  0.5344560000000 1.0
C      1  0.5266420000000  0.4766820000000  0.4670230000000 1.0
C      1  0.4237600000000  0.4780980000000  0.4615650000000 1.0
C      1  0.4970580000000  0.4523080000000  0.4409860000000 1.0
C      1  0.4463350000000  0.4836870000000  0.4940900000000 1.0
C      1  0.5371910000000  0.5376020000000  0.4652710000000 1.0
C      1  0.4954730000000  0.5004090000000  0.5004340000000 1.0
C      1  0.5710290000000  0.4858950000000  0.5565310000000 1.0
C      1  0.4731850000000  0.5554390000000  0.5424590000000 1.0
C      1  0.4944550000000  0.5102180000000  0.4351100000000 1.0
C      1  0.5233560000000  0.5079790000000  0.5662380000000 1.0
C      1  0.5400460000000  0.5467260000000  0.5402250000000 1.0
C      1  0.5199100000000  0.4684670000000  0.4286230000000 1.0
C      1  0.5523820000000  0.4785320000000  0.5129280000000 1.0
C      1  0.4566660000000  0.5332680000000  0.5369680000000 1.0
C      1  0.5325790000000  0.4390560000000  0.4791550000000 1.0
C      1  0.5101630000000  0.5504790000000  0.5243290000000 1.0
C      1  0.4819340000000  0.4828640000000  0.5550710000000 1.0
C      1  0.5360120000000  0.5697310000000  0.4999440000000 1.0
C      1  0.5647350000000  0.5274540000000  0.5065180000000 1.0
C      1  0.4471590000000  0.5072510000000  0.5090590000000 1.0
END
