TITL C-2778427-5640-19 0.00539566780920488 125000 -426.345239550615 0 0 73 (C1) n - 1
REM
REM in /home/nfs/bkarasulu/CARBON/AIRSS/Generating-Clusters/REBO/Only-C1/SD-CG/HFTN-CG
REM
REM
REM
REM
REM
REM ./C.cell (11c1c37f851c82e70ff6c80c92926a4b)
REM
REM compiler GCC version 9.2.1 20190827 (Red Hat 9.2.1-1)
REM options -cpp -mtune=generic -march=x86-64 -g -O0 -fpre-include=/usr/include/finclude/math-vector-fortran.h
REM seed -1963991099 -75948112 1168542645 1060265502 -1612449882 1505117317 1511221329 829774042 1159918196 -927994407 -1008874216 1701880027 179508581 -532139467 -1062442857 1371656698 188237101 -793091646 -1186409867 -1328076317 1969192158 1744412996 -1391860484 -1137868816 -1202512800 -1602329252 -1516974056 29634233 443334033 -1738467172 -906534508 -722883374 -2026359046
REM
CELL 1.54180   50.00000   50.00000   50.00000   90.00000   90.00000   90.00000
LATT -1
SFAC C  
C      1  0.4702910000000  0.4490090000000  0.4979900000000 1.0
C      1  0.4929310000000  0.5453570000000  0.5480900000000 1.0
C      1  0.4946940000000  0.5307560000000  0.5182910000000 1.0
C      1  0.5216100000000  0.4936450000000  0.4274180000000 1.0
C      1  0.4903620000000  0.4911440000000  0.4799430000000 1.0
C      1  0.4811300000000  0.5028640000000  0.5649110000000 1.0
C      1  0.5300600000000  0.5566440000000  0.5098260000000 1.0
C      1  0.5120100000000  0.5068880000000  0.5331270000000 1.0
C      1  0.4432830000000  0.4931460000000  0.4345470000000 1.0
C      1  0.5557610000000  0.4371210000000  0.5242380000000 1.0
C      1  0.4391500000000  0.5088720000000  0.5375570000000 1.0
C      1  0.4841610000000  0.5227690000000  0.4318900000000 1.0
C      1  0.5116740000000  0.5349280000000  0.4689020000000 1.0
C      1  0.4569010000000  0.4376130000000  0.4622200000000 1.0
C      1  0.4399360000000  0.4940950000000  0.4913600000000 1.0
C      1  0.4467860000000  0.5337660000000  0.5540430000000 1.0
C      1  0.4708060000000  0.5428830000000  0.4754260000000 1.0
C      1  0.5277460000000  0.5328280000000  0.4941340000000 1.0
C      1  0.4142130000000  0.4979270000000  0.5455400000000 1.0
C      1  0.5207080000000  0.4527960000000  0.5037690000000 1.0
C      1  0.5663380000000  0.5372050000000  0.5296670000000 1.0
C      1  0.4626370000000  0.5350630000000  0.4478920000000 1.0
C      1  0.5718640000000  0.4449970000000  0.5029750000000 1.0
C      1  0.5489330000000  0.5799090000000  0.5497600000000 1.0
C      1  0.5542160000000  0.4895920000000  0.5444990000000 1.0
C      1  0.4491110000000  0.5415670000000  0.4976640000000 1.0
C      1  0.4458370000000  0.4306460000000  0.4899390000000 1.0
C      1  0.4536190000000  0.4577950000000  0.5332540000000 1.0
C      1  0.5080560000000  0.4961330000000  0.5714100000000 1.0
C      1  0.4720770000000  0.4976970000000  0.4216150000000 1.0
C      1  0.4853580000000  0.4398000000000  0.4615650000000 1.0
C      1  0.5199020000000  0.5734670000000  0.4750030000000 1.0
C      1  0.5296480000000  0.5173990000000  0.5593060000000 1.0
C      1  0.4904620000000  0.5201270000000  0.4880210000000 1.0
C      1  0.4931270000000  0.5677640000000  0.4820670000000 1.0
C      1  0.5002100000000  0.4466330000000  0.4363280000000 1.0
C      1  0.5284240000000  0.4324330000000  0.5371810000000 1.0
C      1  0.4296880000000  0.4662470000000  0.4816490000000 1.0
C      1  0.5385940000000  0.5174420000000  0.4344030000000 1.0
C      1  0.5297450000000  0.4715670000000  0.5291110000000 1.0
C      1  0.5431150000000  0.4743860000000  0.4666150000000 1.0
C      1  0.4533040000000  0.5636240000000  0.5174010000000 1.0
C      1  0.5294140000000  0.4814800000000  0.4905500000000 1.0
C      1  0.5748190000000  0.4735240000000  0.4908400000000 1.0
C      1  0.5177020000000  0.5462150000000  0.5603120000000 1.0
C      1  0.5049980000000  0.4477510000000  0.5492570000000 1.0
C      1  0.5724890000000  0.5324640000000  0.5014960000000 1.0
C      1  0.4639550000000  0.4862950000000  0.5415370000000 1.0
C      1  0.4382190000000  0.5198370000000  0.4450700000000 1.0
C      1  0.4654370000000  0.4784610000000  0.4940830000000 1.0
C      1  0.5596870000000  0.5177000000000  0.5498590000000 1.0
C      1  0.5606560000000  0.5172160000000  0.4549250000000 1.0
C      1  0.5445580000000  0.5614890000000  0.4719260000000 1.0
C      1  0.5255750000000  0.4657490000000  0.4434650000000 1.0
C      1  0.4971810000000  0.4840420000000  0.4493530000000 1.0
C      1  0.4725840000000  0.4665220000000  0.4347760000000 1.0
C      1  0.4393180000000  0.5169610000000  0.5075160000000 1.0
C      1  0.5487560000000  0.5605490000000  0.5309480000000 1.0
C      1  0.5226410000000  0.4206960000000  0.5092170000000 1.0
C      1  0.4826100000000  0.5598400000000  0.5096010000000 1.0
C      1  0.5134950000000  0.4693030000000  0.5722380000000 1.0
C      1  0.5601630000000  0.4808020000000  0.5159140000000 1.0
C      1  0.5681040000000  0.4904070000000  0.4647190000000 1.0
C      1  0.5267970000000  0.5060300000000  0.5048810000000 1.0
C      1  0.5622310000000  0.5387260000000  0.4748150000000 1.0
C      1  0.4333030000000  0.4517220000000  0.5117930000000 1.0
C      1  0.5111660000000  0.5293710000000  0.4416360000000 1.0
C      1  0.4979160000000  0.4579360000000  0.4843660000000 1.0
C      1  0.4423520000000  0.4639290000000  0.4503560000000 1.0
C      1  0.4733330000000  0.5305310000000  0.5632460000000 1.0
C      1  0.4411440000000  0.5589910000000  0.5425050000000 1.0
C      1  0.4970540000000  0.4789490000000  0.5371440000000 1.0
C      1  0.4738630000000  0.4399670000000  0.5411090000000 1.0
END
