TITL C-2778427-5640-600 -0.000446582101348008 125000 -582.73990496244 0 0 99 (C1) n - 1
REM
REM in /home/nfs/bkarasulu/CARBON/AIRSS/Generating-Clusters/REBO/Only-C1/SD-CG/HFTN-CG
REM
REM
REM
REM
REM
REM ./C.cell (11c1c37f851c82e70ff6c80c92926a4b)
REM
REM compiler GCC version 9.2.1 20190827 (Red Hat 9.2.1-1)
REM options -cpp -mtune=generic -march=x86-64 -g -O0 -fpre-include=/usr/include/finclude/math-vector-fortran.h
REM seed 571268241 121694457 -1251771295 30643782 1310019474 -1449694369 -403320047 159620695 1849928919 796734452 -876647868 -193821359 -988510857 615140973 1982427025 -36877119 -1172645925 1855113334 -1088878855 21183527 2068432333 1139580126 1478101240 -1787785181 1771661847 -995287376 473442315 -1745528459 -1072129029 -1668232997 -1026497702 110116849 -1722187183
REM
CELL 1.54180   50.00000   50.00000   50.00000   90.00000   90.00000   90.00000
LATT -1
SFAC C  
C      1  0.5744140000000  0.4926250000000  0.5208630000000 1.0
C      1  0.5847590000000  0.4900710000000  0.4715590000000 1.0
C      1  0.4922670000000  0.5053770000000  0.5094280000000 1.0
C      1  0.4065610000000  0.4621820000000  0.5096820000000 1.0
C      1  0.5584910000000  0.4317670000000  0.5956490000000 1.0
C      1  0.5035140000000  0.4841810000000  0.5611730000000 1.0
C      1  0.4334810000000  0.5422500000000  0.5216490000000 1.0
C      1  0.5482490000000  0.5314310000000  0.5386270000000 1.0
C      1  0.4701220000000  0.5552770000000  0.5925670000000 1.0
C      1  0.4500240000000  0.4676700000000  0.5173480000000 1.0
C      1  0.5160850000000  0.5689050000000  0.4558510000000 1.0
C      1  0.5386360000000  0.5563230000000  0.4399180000000 1.0
C      1  0.4518650000000  0.5408390000000  0.5471120000000 1.0
C      1  0.4589910000000  0.5831310000000  0.4972290000000 1.0
C      1  0.4774170000000  0.5430410000000  0.4224550000000 1.0
C      1  0.5733970000000  0.4630880000000  0.4687410000000 1.0
C      1  0.4866600000000  0.4517900000000  0.4389140000000 1.0
C      1  0.4500420000000  0.5470260000000  0.4634360000000 1.0
C      1  0.5174540000000  0.5532510000000  0.4864050000000 1.0
C      1  0.4956850000000  0.5316870000000  0.5495650000000 1.0
C      1  0.5296660000000  0.4371810000000  0.4592220000000 1.0
C      1  0.5569520000000  0.4668760000000  0.5186600000000 1.0
C      1  0.4977020000000  0.5345230000000  0.4475350000000 1.0
C      1  0.4229680000000  0.4384580000000  0.5136240000000 1.0
C      1  0.4845980000000  0.5076140000000  0.6034650000000 1.0
C      1  0.4822210000000  0.4826570000000  0.4282600000000 1.0
C      1  0.5268610000000  0.5248470000000  0.4357450000000 1.0
C      1  0.4697410000000  0.4505850000000  0.4954880000000 1.0
C      1  0.5082750000000  0.4479770000000  0.5057180000000 1.0
C      1  0.5053050000000  0.4287890000000  0.5317710000000 1.0
C      1  0.5135560000000  0.5287060000000  0.5716500000000 1.0
C      1  0.5177110000000  0.4943810000000  0.4808350000000 1.0
C      1  0.5881500000000  0.5019760000000  0.4977210000000 1.0
C      1  0.4730050000000  0.4358120000000  0.5541800000000 1.0
C      1  0.4874720000000  0.5908020000000  0.5089260000000 1.0
C      1  0.5606940000000  0.4210350000000  0.4945480000000 1.0
C      1  0.4787120000000  0.5401260000000  0.4734790000000 1.0
C      1  0.5080830000000  0.4282270000000  0.4819740000000 1.0
C      1  0.5683090000000  0.4474390000000  0.4958600000000 1.0
C      1  0.4519280000000  0.4839940000000  0.4726050000000 1.0
C      1  0.5550300000000  0.5231890000000  0.4074130000000 1.0
C      1  0.5305560000000  0.4691350000000  0.4996500000000 1.0
C      1  0.4955450000000  0.5503340000000  0.5281920000000 1.0
C      1  0.5693140000000  0.5124400000000  0.5406660000000 1.0
C      1  0.5912030000000  0.5307230000000  0.4922660000000 1.0
C      1  0.4319130000000  0.5264280000000  0.4607950000000 1.0
C      1  0.4252730000000  0.5060130000000  0.4849340000000 1.0
C      1  0.5169730000000  0.5249700000000  0.4957040000000 1.0
C      1  0.4355730000000  0.4699560000000  0.5747990000000 1.0
C      1  0.4817350000000  0.5429010000000  0.5011030000000 1.0
C      1  0.5052200000000  0.4988500000000  0.4316070000000 1.0
C      1  0.4844330000000  0.4613480000000  0.4702610000000 1.0
C      1  0.5468980000000  0.5593410000000  0.5436530000000 1.0
C      1  0.5255940000000  0.5199470000000  0.5257500000000 1.0
C      1  0.4298140000000  0.5149540000000  0.5128290000000 1.0
C      1  0.5475520000000  0.5647760000000  0.4849630000000 1.0
C      1  0.4810680000000  0.4287180000000  0.4640610000000 1.0
C      1  0.4477880000000  0.5204750000000  0.5732030000000 1.0
C      1  0.4644530000000  0.5632520000000  0.5664370000000 1.0
C      1  0.4387480000000  0.4929570000000  0.5290540000000 1.0
C      1  0.5805930000000  0.5368250000000  0.4654700000000 1.0
C      1  0.4149120000000  0.4767770000000  0.4854530000000 1.0
C      1  0.5034530000000  0.5779320000000  0.5291540000000 1.0
C      1  0.5106720000000  0.4969630000000  0.5367540000000 1.0
C      1  0.4430340000000  0.5012180000000  0.4494370000000 1.0
C      1  0.4639170000000  0.4184660000000  0.4915910000000 1.0
C      1  0.5388710000000  0.4630610000000  0.4302470000000 1.0
C      1  0.5484460000000  0.4370500000000  0.5718100000000 1.0
C      1  0.5506010000000  0.4519100000000  0.5436480000000 1.0
C      1  0.4351780000000  0.4321260000000  0.4880400000000 1.0
C      1  0.5252980000000  0.4325980000000  0.5498060000000 1.0
C      1  0.4441120000000  0.4914990000000  0.5602800000000 1.0
C      1  0.5608010000000  0.5566620000000  0.4618020000000 1.0
C      1  0.4726780000000  0.5072230000000  0.5504560000000 1.0
C      1  0.4735780000000  0.4193070000000  0.5241880000000 1.0
C      1  0.5411000000000  0.4638860000000  0.4699980000000 1.0
C      1  0.5561150000000  0.5076610000000  0.4335750000000 1.0
C      1  0.4640260000000  0.5764210000000  0.4657630000000 1.0
C      1  0.4839150000000  0.4900510000000  0.4824110000000 1.0
C      1  0.5284990000000  0.4875960000000  0.4500670000000 1.0
C      1  0.5331860000000  0.5451040000000  0.5801950000000 1.0
C      1  0.5294730000000  0.5805450000000  0.5404250000000 1.0
C      1  0.4585570000000  0.4988720000000  0.4258110000000 1.0
C      1  0.5465760000000  0.5485550000000  0.4100590000000 1.0
C      1  0.4382080000000  0.5670280000000  0.5083650000000 1.0
C      1  0.5051860000000  0.5029150000000  0.5837850000000 1.0
C      1  0.4678060000000  0.5224210000000  0.5225540000000 1.0
C      1  0.5641360000000  0.4548980000000  0.4385380000000 1.0
C      1  0.4623090000000  0.5235580000000  0.4116850000000 1.0
C      1  0.4350390000000  0.4567290000000  0.4730500000000 1.0
C      1  0.4946290000000  0.5777780000000  0.4805120000000 1.0
C      1  0.5773290000000  0.5105430000000  0.4526310000000 1.0
C      1  0.4468820000000  0.4381180000000  0.5341150000000 1.0
C      1  0.4644930000000  0.5272740000000  0.5976220000000 1.0
C      1  0.4892000000000  0.4610830000000  0.5553870000000 1.0
C      1  0.5157670000000  0.4426120000000  0.4311730000000 1.0
C      1  0.5386310000000  0.4137310000000  0.4801210000000 1.0
C      1  0.4855170000000  0.5679870000000  0.4429930000000 1.0
C      1  0.4825720000000  0.4603940000000  0.5242530000000 1.0
END
