TITL C-2778426-5645-360 -0.00367748999909211 125000 -943.634327037818 0 0 162 (C1) n - 1
REM
REM in /home/nfs/bkarasulu/CARBON/AIRSS/Generating-Clusters/REBO/Only-C1/SD-CG/HFTN-CG
REM
REM
REM
REM
REM
REM ./C.cell (11c1c37f851c82e70ff6c80c92926a4b)
REM
REM compiler GCC version 9.2.1 20190827 (Red Hat 9.2.1-1)
REM options -cpp -mtune=generic -march=x86-64 -g -O0 -fpre-include=/usr/include/finclude/math-vector-fortran.h
REM seed 376843834 1595001089 -1664560959 1881699979 45653392 470210568 -568214067 1580827257 430193894 2058645061 -1656548524 1437834414 1173551302 170310752 -486350942 -832577816 -1046708940 -271152437 -1385888435 1529849001 369003491 -2137691219 215724733 -54540503 -1818872811 -1593776419 -456917601 1238840647 -953452067 1588610576 -1774198466 1205856049 -1611476069
REM
CELL 1.54180   50.00000   50.00000   50.00000   90.00000   90.00000   90.00000
LATT -1
SFAC C  
C      1  0.5370930000000  0.5617990000000  0.5821060000000 1.0
C      1  0.4909070000000  0.4224110000000  0.5157060000000 1.0
C      1  0.4146580000000  0.4513590000000  0.5245570000000 1.0
C      1  0.4787940000000  0.5720590000000  0.5224390000000 1.0
C      1  0.5144760000000  0.4666590000000  0.4935880000000 1.0
C      1  0.4530100000000  0.4840540000000  0.5939670000000 1.0
C      1  0.5686080000000  0.5511890000000  0.4591280000000 1.0
C      1  0.5158270000000  0.5910220000000  0.5438100000000 1.0
C      1  0.5323470000000  0.5141370000000  0.4350160000000 1.0
C      1  0.4651950000000  0.5150110000000  0.4023810000000 1.0
C      1  0.4132340000000  0.4673710000000  0.4961250000000 1.0
C      1  0.5252720000000  0.5317560000000  0.3998850000000 1.0
C      1  0.5076960000000  0.4590520000000  0.5471100000000 1.0
C      1  0.4742110000000  0.5680530000000  0.4174440000000 1.0
C      1  0.5021850000000  0.4570280000000  0.4060510000000 1.0
C      1  0.6075620000000  0.4898140000000  0.4717540000000 1.0
C      1  0.4566120000000  0.4181190000000  0.5358210000000 1.0
C      1  0.4020010000000  0.5308880000000  0.4817920000000 1.0
C      1  0.4929580000000  0.4027770000000  0.4787040000000 1.0
C      1  0.5287630000000  0.5889370000000  0.4737020000000 1.0
C      1  0.5511090000000  0.5800400000000  0.4603880000000 1.0
C      1  0.4822070000000  0.5086670000000  0.4821790000000 1.0
C      1  0.6019470000000  0.5045010000000  0.5265330000000 1.0
C      1  0.5804750000000  0.5386160000000  0.5571880000000 1.0
C      1  0.5041240000000  0.5413530000000  0.5560900000000 1.0
C      1  0.5410280000000  0.5496620000000  0.4188850000000 1.0
C      1  0.4797610000000  0.4751280000000  0.5581340000000 1.0
C      1  0.4778550000000  0.4795970000000  0.4995410000000 1.0
C      1  0.5080830000000  0.4336440000000  0.4242380000000 1.0
C      1  0.4166270000000  0.5655970000000  0.5366450000000 1.0
C      1  0.4012520000000  0.5296420000000  0.5325320000000 1.0
C      1  0.4967120000000  0.4330790000000  0.5662650000000 1.0
C      1  0.5157100000000  0.4030650000000  0.5402160000000 1.0
C      1  0.4632810000000  0.5505490000000  0.4394670000000 1.0
C      1  0.4394990000000  0.5191330000000  0.4461160000000 1.0
C      1  0.5639950000000  0.4859700000000  0.4087690000000 1.0
C      1  0.5389680000000  0.4339590000000  0.4335630000000 1.0
C      1  0.5075850000000  0.4707060000000  0.5958200000000 1.0
C      1  0.4991780000000  0.5182250000000  0.5805530000000 1.0
C      1  0.5029790000000  0.5307550000000  0.4958550000000 1.0
C      1  0.4247700000000  0.5384390000000  0.5559450000000 1.0
C      1  0.5812810000000  0.4602300000000  0.4719520000000 1.0
C      1  0.4713460000000  0.5082430000000  0.5539180000000 1.0
C      1  0.4203350000000  0.4502790000000  0.4672310000000 1.0
C      1  0.5788450000000  0.4581900000000  0.5446390000000 1.0
C      1  0.4618250000000  0.4010400000000  0.4787020000000 1.0
C      1  0.4021690000000  0.4786240000000  0.4314270000000 1.0
C      1  0.4568120000000  0.5282560000000  0.4720400000000 1.0
C      1  0.5269620000000  0.4754180000000  0.5700310000000 1.0
C      1  0.5211500000000  0.5050310000000  0.5599660000000 1.0
C      1  0.5278520000000  0.5522270000000  0.5391930000000 1.0
C      1  0.6043840000000  0.5261330000000  0.5072180000000 1.0
C      1  0.4462580000000  0.4914780000000  0.4610630000000 1.0
C      1  0.5407890000000  0.5062810000000  0.4068160000000 1.0
C      1  0.4655880000000  0.4048830000000  0.5077820000000 1.0
C      1  0.4431380000000  0.5807710000000  0.4674620000000 1.0
C      1  0.5645200000000  0.4948430000000  0.5500630000000 1.0
C      1  0.4173240000000  0.5385480000000  0.4591580000000 1.0
C      1  0.5218980000000  0.5960040000000  0.5133430000000 1.0
C      1  0.5581660000000  0.4563540000000  0.4187270000000 1.0
C      1  0.5526840000000  0.5736460000000  0.5350860000000 1.0
C      1  0.4139680000000  0.4833510000000  0.4601270000000 1.0
C      1  0.4079190000000  0.4752410000000  0.5451330000000 1.0
C      1  0.4555390000000  0.5099130000000  0.5116620000000 1.0
C      1  0.5390360000000  0.4252920000000  0.4660790000000 1.0
C      1  0.5747090000000  0.5109850000000  0.4274590000000 1.0
C      1  0.4038070000000  0.5526250000000  0.5073220000000 1.0
C      1  0.4291980000000  0.4760730000000  0.5719370000000 1.0
C      1  0.5290350000000  0.4246620000000  0.5602670000000 1.0
C      1  0.5118880000000  0.5537990000000  0.5932080000000 1.0
C      1  0.4541890000000  0.5475710000000  0.5706090000000 1.0
C      1  0.5378210000000  0.5087390000000  0.6096160000000 1.0
C      1  0.6037830000000  0.4690730000000  0.4947570000000 1.0
C      1  0.4753290000000  0.4438530000000  0.4448120000000 1.0
C      1  0.5088100000000  0.5525320000000  0.4296630000000 1.0
C      1  0.4520690000000  0.4589980000000  0.4997530000000 1.0
C      1  0.4252380000000  0.5194880000000  0.5119860000000 1.0
C      1  0.4758620000000  0.5901700000000  0.4671120000000 1.0
C      1  0.4747770000000  0.4769780000000  0.4524380000000 1.0
C      1  0.5496810000000  0.4967620000000  0.4547450000000 1.0
C      1  0.4911320000000  0.5780370000000  0.5473000000000 1.0
C      1  0.5578380000000  0.5359510000000  0.5780880000000 1.0
C      1  0.4014760000000  0.4976500000000  0.5219630000000 1.0
C      1  0.5762140000000  0.4154180000000  0.5015240000000 1.0
C      1  0.4869050000000  0.4512990000000  0.4820710000000 1.0
C      1  0.4841270000000  0.5603050000000  0.5744070000000 1.0
C      1  0.5574730000000  0.5036660000000  0.5890720000000 1.0
C      1  0.4440320000000  0.5531330000000  0.5226040000000 1.0
C      1  0.5178140000000  0.5677140000000  0.4957490000000 1.0
C      1  0.5640690000000  0.5381600000000  0.4316230000000 1.0
C      1  0.5797960000000  0.5261120000000  0.4757080000000 1.0
C      1  0.5014720000000  0.5023330000000  0.4127440000000 1.0
C      1  0.5131380000000  0.4381480000000  0.5213330000000 1.0
C      1  0.4229600000000  0.5960340000000  0.5385430000000 1.0
C      1  0.4711470000000  0.4349190000000  0.5743340000000 1.0
C      1  0.5134320000000  0.4794660000000  0.4182090000000 1.0
C      1  0.5486790000000  0.4854460000000  0.5281740000000 1.0
C      1  0.4430540000000  0.5872570000000  0.5161260000000 1.0
C      1  0.5408980000000  0.5264710000000  0.5522200000000 1.0
C      1  0.5634030000000  0.5584790000000  0.4916310000000 1.0
C      1  0.5594340000000  0.4299280000000  0.5454400000000 1.0
C      1  0.4425050000000  0.4905130000000  0.5331060000000 1.0
C      1  0.5506120000000  0.5244900000000  0.5218070000000 1.0
C      1  0.4956850000000  0.4094360000000  0.4188660000000 1.0
C      1  0.5520670000000  0.5855420000000  0.5057530000000 1.0
C      1  0.4807580000000  0.4707850000000  0.5891660000000 1.0
C      1  0.4929130000000  0.5329720000000  0.4066170000000 1.0
C      1  0.5349900000000  0.5417340000000  0.4991370000000 1.0
C      1  0.5110140000000  0.5308180000000  0.4544580000000 1.0
C      1  0.4478720000000  0.4486180000000  0.5766340000000 1.0
C      1  0.4838430000000  0.5229690000000  0.5193970000000 1.0
C      1  0.5366250000000  0.4738510000000  0.4351990000000 1.0
C      1  0.4910570000000  0.5791070000000  0.4413330000000 1.0
C      1  0.5980720000000  0.4754740000000  0.5219970000000 1.0
C      1  0.4270360000000  0.5729220000000  0.4927680000000 1.0
C      1  0.5379550000000  0.5826690000000  0.5626750000000 1.0
C      1  0.4585010000000  0.4402640000000  0.4733800000000 1.0
C      1  0.5204510000000  0.4080950000000  0.4866390000000 1.0
C      1  0.4310040000000  0.4326910000000  0.5011870000000 1.0
C      1  0.5645730000000  0.4362940000000  0.4826480000000 1.0
C      1  0.4339520000000  0.4191380000000  0.4714220000000 1.0
C      1  0.5077460000000  0.4474920000000  0.4554270000000 1.0
C      1  0.4437780000000  0.5243340000000  0.4165620000000 1.0
C      1  0.4812060000000  0.4658090000000  0.3891200000000 1.0
C      1  0.4849150000000  0.4023700000000  0.5421070000000 1.0
C      1  0.4529410000000  0.4357670000000  0.4271540000000 1.0
C      1  0.5004900000000  0.6024870000000  0.4874340000000 1.0
C      1  0.6084060000000  0.5178160000000  0.4787580000000 1.0
C      1  0.4434150000000  0.4428900000000  0.5373190000000 1.0
C      1  0.4647470000000  0.4859370000000  0.4013680000000 1.0
C      1  0.4876100000000  0.5602330000000  0.4925120000000 1.0
C      1  0.5310870000000  0.4030690000000  0.5148000000000 1.0
C      1  0.5564780000000  0.4762050000000  0.4877360000000 1.0
C      1  0.4998180000000  0.5034930000000  0.5383540000000 1.0
C      1  0.4391710000000  0.5409060000000  0.4925490000000 1.0
C      1  0.4379880000000  0.5589140000000  0.4497490000000 1.0
C      1  0.5604660000000  0.4588640000000  0.5163280000000 1.0
C      1  0.5676820000000  0.4751760000000  0.5731470000000 1.0
C      1  0.5384890000000  0.4596340000000  0.4638470000000 1.0
C      1  0.5618940000000  0.5094320000000  0.4928540000000 1.0
C      1  0.4276360000000  0.4562550000000  0.4343430000000 1.0
C      1  0.5365730000000  0.4444330000000  0.5009470000000 1.0
C      1  0.5149700000000  0.5258790000000  0.6062470000000 1.0
C      1  0.5587020000000  0.4107180000000  0.5218530000000 1.0
C      1  0.4613930000000  0.5372280000000  0.5400410000000 1.0
C      1  0.5250920000000  0.5062560000000  0.4733360000000 1.0
C      1  0.5478200000000  0.4507310000000  0.5687420000000 1.0
C      1  0.4840360000000  0.5441120000000  0.4634680000000 1.0
C      1  0.5787070000000  0.5575930000000  0.5370430000000 1.0
C      1  0.4539160000000  0.4752500000000  0.4259550000000 1.0
C      1  0.4558620000000  0.4672110000000  0.5421710000000 1.0
C      1  0.4014230000000  0.4986180000000  0.4878250000000 1.0
C      1  0.5012130000000  0.4853910000000  0.4678990000000 1.0
C      1  0.4689170000000  0.5086230000000  0.5856970000000 1.0
C      1  0.4398140000000  0.4882410000000  0.4917760000000 1.0
C      1  0.5312530000000  0.5022910000000  0.5045570000000 1.0
C      1  0.5867980000000  0.5490090000000  0.5109960000000 1.0
C      1  0.5809610000000  0.4881310000000  0.4521770000000 1.0
C      1  0.5860940000000  0.5127570000000  0.5480420000000 1.0
C      1  0.4229600000000  0.5049810000000  0.5548810000000 1.0
C      1  0.4703690000000  0.5954290000000  0.5003780000000 1.0
C      1  0.5026460000000  0.4793200000000  0.5209430000000 1.0
END
