TITL C-2778430-5657-1167 0.123938752816949 125000 -525.631505423757 0 0 91 (C1) n - 1
REM
REM in /home/nfs/bkarasulu/CARBON/AIRSS/Generating-Clusters/REBO/Only-C1/SD-CG/HFTN-CG
REM
REM
REM
REM
REM
REM ./C.cell (11c1c37f851c82e70ff6c80c92926a4b)
REM
REM compiler GCC version 9.2.1 20190827 (Red Hat 9.2.1-1)
REM options -cpp -mtune=generic -march=x86-64 -g -O0 -fpre-include=/usr/include/finclude/math-vector-fortran.h
REM seed 1873882094 482042765 -1822555444 1699363186 -1874093911 -689667007 1707443580 -1628402229 612935984 929423489 -1960531187 -187949778 1575454298 134846264 -359194198 2000586627 1661234000 2055784779 201755855 -1828322783 -332411575 59186290 1286247973 -206711009 -1491802087 -805328603 -2026137110 1166598604 -652298139 -2028147409 -1396934404 634047840 413316706
REM
CELL 1.54180   50.00000   50.00000   50.00000   90.00000   90.00000   90.00000
LATT -1
SFAC C  
C      1  0.5398540000000  0.4675340000000  0.5321200000000 1.0
C      1  0.5482460000000  0.5397720000000  0.5628560000000 1.0
C      1  0.5511610000000  0.4948830000000  0.5413140000000 1.0
C      1  0.5175650000000  0.5660530000000  0.5225290000000 1.0
C      1  0.4827500000000  0.5073410000000  0.4509480000000 1.0
C      1  0.4451110000000  0.4395860000000  0.5448180000000 1.0
C      1  0.5728570000000  0.5043330000000  0.4701240000000 1.0
C      1  0.4967510000000  0.5273930000000  0.4823000000000 1.0
C      1  0.5235590000000  0.5573840000000  0.4456540000000 1.0
C      1  0.4701370000000  0.5663330000000  0.4470590000000 1.0
C      1  0.5740750000000  0.4571300000000  0.5014570000000 1.0
C      1  0.5770730000000  0.5016420000000  0.5282390000000 1.0
C      1  0.4924500000000  0.4835260000000  0.4108320000000 1.0
C      1  0.4233500000000  0.5456700000000  0.5166960000000 1.0
C      1  0.4692460000000  0.5776460000000  0.5186930000000 1.0
C      1  0.5163240000000  0.5336250000000  0.5600690000000 1.0
C      1  0.5228360000000  0.4325910000000  0.5504950000000 1.0
C      1  0.5457180000000  0.5122250000000  0.5766790000000 1.0
C      1  0.5588720000000  0.5266320000000  0.5030390000000 1.0
C      1  0.4536890000000  0.5074070000000  0.4236630000000 1.0
C      1  0.4331640000000  0.5372480000000  0.5473450000000 1.0
C      1  0.4896500000000  0.5695690000000  0.5380440000000 1.0
C      1  0.4490850000000  0.4788120000000  0.4282270000000 1.0
C      1  0.4582070000000  0.4556480000000  0.4680540000000 1.0
C      1  0.4998930000000  0.5308110000000  0.4101290000000 1.0
C      1  0.5166300000000  0.5071820000000  0.4542500000000 1.0
C      1  0.5201680000000  0.4881190000000  0.4187570000000 1.0
C      1  0.4941220000000  0.5501440000000  0.5037260000000 1.0
C      1  0.4513510000000  0.4662420000000  0.5649970000000 1.0
C      1  0.4854680000000  0.4987710000000  0.5200660000000 1.0
C      1  0.4400930000000  0.4783680000000  0.5379790000000 1.0
C      1  0.4889750000000  0.5398450000000  0.4553000000000 1.0
C      1  0.5763360000000  0.4890790000000  0.5003540000000 1.0
C      1  0.5448240000000  0.5612710000000  0.5171010000000 1.0
C      1  0.5726770000000  0.4449890000000  0.5327530000000 1.0
C      1  0.5614640000000  0.5302570000000  0.4636230000000 1.0
C      1  0.5291730000000  0.4719630000000  0.4402650000000 1.0
C      1  0.4220730000000  0.5447330000000  0.4834960000000 1.0
C      1  0.4947640000000  0.4852480000000  0.5499050000000 1.0
C      1  0.4905260000000  0.5167800000000  0.5736460000000 1.0
C      1  0.5331830000000  0.4839170000000  0.4696920000000 1.0
C      1  0.4531300000000  0.5512540000000  0.4708130000000 1.0
C      1  0.5402950000000  0.4529840000000  0.5004320000000 1.0
C      1  0.5653000000000  0.4545240000000  0.4694450000000 1.0
C      1  0.5086940000000  0.4585360000000  0.5238910000000 1.0
C      1  0.4197790000000  0.5135460000000  0.5180850000000 1.0
C      1  0.5363350000000  0.4382470000000  0.4701820000000 1.0
C      1  0.4193710000000  0.4961580000000  0.5397540000000 1.0
C      1  0.5467930000000  0.4785440000000  0.5698860000000 1.0
C      1  0.4862720000000  0.5463260000000  0.5567260000000 1.0
C      1  0.4654250000000  0.4968920000000  0.5626240000000 1.0
C      1  0.5154890000000  0.5081700000000  0.5118140000000 1.0
C      1  0.5702540000000  0.4781870000000  0.4558180000000 1.0
C      1  0.5161630000000  0.4444140000000  0.4450540000000 1.0
C      1  0.4817570000000  0.5940600000000  0.4984570000000 1.0
C      1  0.5509730000000  0.4478160000000  0.5559080000000 1.0
C      1  0.4197730000000  0.4283470000000  0.5458990000000 1.0
C      1  0.4647810000000  0.4564370000000  0.4956530000000 1.0
C      1  0.5293970000000  0.5149580000000  0.5380970000000 1.0
C      1  0.4745860000000  0.4648530000000  0.4235980000000 1.0
C      1  0.4960750000000  0.4944080000000  0.4794550000000 1.0
C      1  0.5273830000000  0.5324620000000  0.4913310000000 1.0
C      1  0.4383190000000  0.4691330000000  0.4528740000000 1.0
C      1  0.4789430000000  0.5104850000000  0.4086730000000 1.0
C      1  0.4743870000000  0.5300030000000  0.5206250000000 1.0
C      1  0.5121620000000  0.4724120000000  0.4942480000000 1.0
C      1  0.5251570000000  0.5169140000000  0.4166490000000 1.0
C      1  0.5583190000000  0.5560620000000  0.4859390000000 1.0
C      1  0.4657760000000  0.4308040000000  0.5279860000000 1.0
C      1  0.5437230000000  0.4967360000000  0.4963000000000 1.0
C      1  0.5171500000000  0.4955040000000  0.5713570000000 1.0
C      1  0.5265390000000  0.5626730000000  0.4756990000000 1.0
C      1  0.5604360000000  0.5492010000000  0.5385430000000 1.0
C      1  0.4833350000000  0.4470220000000  0.4491890000000 1.0
C      1  0.4588370000000  0.4818470000000  0.5113880000000 1.0
C      1  0.5813370000000  0.5310230000000  0.5271680000000 1.0
C      1  0.4967020000000  0.5568330000000  0.4279630000000 1.0
C      1  0.4599580000000  0.5265780000000  0.5499300000000 1.0
C      1  0.4360870000000  0.5014720000000  0.4974600000000 1.0
C      1  0.4531860000000  0.5228330000000  0.4514600000000 1.0
C      1  0.4969360000000  0.4210580000000  0.5310620000000 1.0
C      1  0.3958350000000  0.4177290000000  0.5469210000000 1.0
C      1  0.5029840000000  0.5789600000000  0.4877510000000 1.0
C      1  0.5374240000000  0.5296290000000  0.4436580000000 1.0
C      1  0.4869110000000  0.4342580000000  0.5011390000000 1.0
C      1  0.4543680000000  0.5527050000000  0.5049080000000 1.0
C      1  0.5025050000000  0.4344030000000  0.4748170000000 1.0
C      1  0.4332700000000  0.5170790000000  0.4745850000000 1.0
C      1  0.4969190000000  0.4535770000000  0.5542050000000 1.0
C      1  0.5258660000000  0.4284870000000  0.5169740000000 1.0
C      1  0.4751540000000  0.4457550000000  0.5703120000000 1.0
END
