TITL C-2778423-5760-1058 0.000929615172359409 125000 -598.992756920242 0 0 101 (C1) n - 1
REM
REM in /home/nfs/bkarasulu/CARBON/AIRSS/Generating-Clusters/REBO/Only-C1/SD-CG/HFTN-CG
REM
REM
REM
REM
REM
REM ./C.cell (11c1c37f851c82e70ff6c80c92926a4b)
REM
REM compiler GCC version 9.2.1 20190827 (Red Hat 9.2.1-1)
REM options -cpp -mtune=generic -march=x86-64 -g -O0 -fpre-include=/usr/include/finclude/math-vector-fortran.h
REM seed -906879790 827569285 -202428134 1756419089 -690625396 -1233791997 1793728055 -875781275 1757427110 518060384 -65085612 1439036133 1123058094 227847207 1378586625 -1496391686 -892762653 1475874691 -1888184343 1197673987 1821075601 -1299483456 -992833943 -959278840 1245980742 1298996659 -1379211323 -1498142495 -1260063927 1775836445 -1313728172 -1728209501 182803233
REM
CELL 1.54180   50.00000   50.00000   50.00000   90.00000   90.00000   90.00000
LATT -1
SFAC C  
C      1  0.4295120000000  0.5153840000000  0.4997710000000 1.0
C      1  0.5596020000000  0.4497770000000  0.5393020000000 1.0
C      1  0.5329580000000  0.5381900000000  0.4982690000000 1.0
C      1  0.4556860000000  0.4447650000000  0.4726110000000 1.0
C      1  0.4675790000000  0.5628560000000  0.5456470000000 1.0
C      1  0.4995950000000  0.5512980000000  0.5453080000000 1.0
C      1  0.4379450000000  0.5512360000000  0.4747520000000 1.0
C      1  0.5828470000000  0.5025580000000  0.4765110000000 1.0
C      1  0.4969080000000  0.5735500000000  0.4303240000000 1.0
C      1  0.4134250000000  0.4386630000000  0.5335530000000 1.0
C      1  0.5493280000000  0.5443620000000  0.5532780000000 1.0
C      1  0.5924000000000  0.4822130000000  0.5227850000000 1.0
C      1  0.5119110000000  0.5045930000000  0.5289640000000 1.0
C      1  0.4613790000000  0.4223770000000  0.4967250000000 1.0
C      1  0.5547550000000  0.5069380000000  0.4695760000000 1.0
C      1  0.5498520000000  0.4323570000000  0.4978440000000 1.0
C      1  0.4296070000000  0.5415320000000  0.5126120000000 1.0
C      1  0.4388490000000  0.4743010000000  0.4697900000000 1.0
C      1  0.5301650000000  0.5869900000000  0.4949220000000 1.0
C      1  0.4951740000000  0.4608560000000  0.4314630000000 1.0
C      1  0.4789320000000  0.4827600000000  0.4998140000000 1.0
C      1  0.5219900000000  0.5291840000000  0.4050750000000 1.0
C      1  0.5444970000000  0.5214780000000  0.5760490000000 1.0
C      1  0.4490480000000  0.4493330000000  0.4406980000000 1.0
C      1  0.4932050000000  0.5423420000000  0.4975190000000 1.0
C      1  0.5655510000000  0.4964530000000  0.5343310000000 1.0
C      1  0.5890930000000  0.4617510000000  0.5028300000000 1.0
C      1  0.5304380000000  0.4464120000000  0.5749960000000 1.0
C      1  0.4567580000000  0.5327540000000  0.5445440000000 1.0
C      1  0.4268350000000  0.4913870000000  0.5191130000000 1.0
C      1  0.4741870000000  0.5632290000000  0.4180230000000 1.0
C      1  0.5785450000000  0.5427520000000  0.5401940000000 1.0
C      1  0.4754570000000  0.5363090000000  0.4565700000000 1.0
C      1  0.4823360000000  0.4047790000000  0.4882810000000 1.0
C      1  0.5381660000000  0.4898830000000  0.5194750000000 1.0
C      1  0.4193560000000  0.5373040000000  0.4587480000000 1.0
C      1  0.4878120000000  0.4445020000000  0.4768310000000 1.0
C      1  0.5064500000000  0.5293620000000  0.4549400000000 1.0
C      1  0.4724960000000  0.5910700000000  0.4874490000000 1.0
C      1  0.5360970000000  0.5611300000000  0.4793790000000 1.0
C      1  0.5174610000000  0.5137960000000  0.4824370000000 1.0
C      1  0.4941640000000  0.5254920000000  0.5752090000000 1.0
C      1  0.4633990000000  0.5215920000000  0.5198070000000 1.0
C      1  0.4457430000000  0.5867980000000  0.5073000000000 1.0
C      1  0.5453450000000  0.5235360000000  0.4481100000000 1.0
C      1  0.5716140000000  0.4407530000000  0.5142410000000 1.0
C      1  0.4398090000000  0.4408940000000  0.5395710000000 1.0
C      1  0.5012180000000  0.4987820000000  0.5751960000000 1.0
C      1  0.4184760000000  0.4972810000000  0.5460770000000 1.0
C      1  0.4429280000000  0.5644680000000  0.5245560000000 1.0
C      1  0.4932480000000  0.5821190000000  0.5341420000000 1.0
C      1  0.5420420000000  0.4707380000000  0.5805800000000 1.0
C      1  0.5288180000000  0.4145880000000  0.5052830000000 1.0
C      1  0.4861010000000  0.5018180000000  0.4750920000000 1.0
C      1  0.4778440000000  0.4610440000000  0.5597680000000 1.0
C      1  0.5619140000000  0.4947130000000  0.5661980000000 1.0
C      1  0.5827590000000  0.5209630000000  0.5242680000000 1.0
C      1  0.5745840000000  0.4649400000000  0.5582310000000 1.0
C      1  0.4999730000000  0.5920190000000  0.5059280000000 1.0
C      1  0.4979390000000  0.4831540000000  0.5482960000000 1.0
C      1  0.5866680000000  0.4734190000000  0.4756650000000 1.0
C      1  0.4620570000000  0.5415610000000  0.4318270000000 1.0
C      1  0.4408750000000  0.5160640000000  0.5613620000000 1.0
C      1  0.4680400000000  0.4664540000000  0.4275350000000 1.0
C      1  0.4473240000000  0.5175070000000  0.4254410000000 1.0
C      1  0.5437210000000  0.4646650000000  0.4348450000000 1.0
C      1  0.5339080000000  0.4615290000000  0.5329600000000 1.0
C      1  0.4228720000000  0.5153890000000  0.4408290000000 1.0
C      1  0.5442010000000  0.5518000000000  0.4537300000000 1.0
C      1  0.5201220000000  0.5443960000000  0.5681800000000 1.0
C      1  0.4650510000000  0.4953430000000  0.4261050000000 1.0
C      1  0.5472080000000  0.5782950000000  0.5174250000000 1.0
C      1  0.4931160000000  0.5010270000000  0.4416930000000 1.0
C      1  0.5433790000000  0.5500150000000  0.5227810000000 1.0
C      1  0.5929750000000  0.5177740000000  0.4982600000000 1.0
C      1  0.5297140000000  0.5135000000000  0.4265530000000 1.0
C      1  0.5021450000000  0.5310920000000  0.5225900000000 1.0
C      1  0.4161760000000  0.4895080000000  0.4494130000000 1.0
C      1  0.5029270000000  0.4435780000000  0.4527070000000 1.0
C      1  0.5368290000000  0.4868030000000  0.4880950000000 1.0
C      1  0.5186050000000  0.4178810000000  0.5308280000000 1.0
C      1  0.5190390000000  0.4837110000000  0.4279520000000 1.0
C      1  0.5308050000000  0.4445450000000  0.4539180000000 1.0
C      1  0.5056110000000  0.5621440000000  0.4536800000000 1.0
C      1  0.4361200000000  0.4830690000000  0.5681330000000 1.0
C      1  0.4498160000000  0.4592500000000  0.5594080000000 1.0
C      1  0.5423900000000  0.4550750000000  0.4802600000000 1.0
C      1  0.4932730000000  0.4589710000000  0.5009880000000 1.0
C      1  0.4605070000000  0.4278480000000  0.5248950000000 1.0
C      1  0.5272600000000  0.4959440000000  0.5855330000000 1.0
C      1  0.4582660000000  0.4930540000000  0.5163110000000 1.0
C      1  0.4969940000000  0.5688220000000  0.4821150000000 1.0
C      1  0.4207920000000  0.4595810000000  0.4426170000000 1.0
C      1  0.5660520000000  0.4623730000000  0.4582750000000 1.0
C      1  0.5148140000000  0.4303540000000  0.5593370000000 1.0
C      1  0.4516960000000  0.5016140000000  0.4778560000000 1.0
C      1  0.4633190000000  0.5324010000000  0.4871050000000 1.0
C      1  0.4873040000000  0.4282980000000  0.5388930000000 1.0
C      1  0.5096950000000  0.4033700000000  0.4874540000000 1.0
C      1  0.4426470000000  0.5786090000000  0.4774370000000 1.0
C      1  0.5035830000000  0.4549050000000  0.5298500000000 1.0
END
