TITL C-2778434-4341-541 -0.0048892352564376 125000 -405.336475915506 0 0 72 (C1) n - 1
REM
REM in /home/nfs/bkarasulu/CARBON/AIRSS/Generating-Clusters/REBO/Only-C1/SD-CG/HFTN-CG
REM
REM
REM
REM
REM
REM ./C.cell (11c1c37f851c82e70ff6c80c92926a4b)
REM
REM compiler GCC version 9.2.1 20190827 (Red Hat 9.2.1-1)
REM options -cpp -mtune=generic -march=x86-64 -g -O0 -fpre-include=/usr/include/finclude/math-vector-fortran.h
REM seed 76698856 -1200196216 75581884 1845400138 -219690300 699012242 26465683 -69543414 2067943733 1567429202 -1521169776 -1858146289 640726033 -220107166 1069791617 1059250779 -1870565396 -139732877 -987298488 -322808327 201873300 -1998789308 1680954214 1421318503 -1221385460 235542041 1733184492 1419890202 -2004660093 1966110524 2123861474 851137866 1269956904
REM
CELL 1.54180   50.00000   50.00000   50.00000   90.00000   90.00000   90.00000
LATT -1
SFAC C  
C      1  0.4344090000000  0.5084240000000  0.5049660000000 1.0
C      1  0.5992120000000  0.4829340000000  0.4863190000000 1.0
C      1  0.4479610000000  0.5600470000000  0.5198170000000 1.0
C      1  0.4677810000000  0.5292360000000  0.5624940000000 1.0
C      1  0.5565770000000  0.4976910000000  0.6034780000000 1.0
C      1  0.4692920000000  0.4249230000000  0.4969330000000 1.0
C      1  0.4722350000000  0.5538620000000  0.5428680000000 1.0
C      1  0.5523390000000  0.5126050000000  0.5585790000000 1.0
C      1  0.5123470000000  0.5660610000000  0.4844790000000 1.0
C      1  0.4451330000000  0.4414110000000  0.4956420000000 1.0
C      1  0.4493330000000  0.4816020000000  0.4613250000000 1.0
C      1  0.5278510000000  0.5513750000000  0.4637710000000 1.0
C      1  0.5394130000000  0.5002950000000  0.5809770000000 1.0
C      1  0.5714550000000  0.4819490000000  0.4920850000000 1.0
C      1  0.4893920000000  0.4237790000000  0.5222570000000 1.0
C      1  0.4459000000000  0.4858730000000  0.5390080000000 1.0
C      1  0.4651610000000  0.4887630000000  0.4332320000000 1.0
C      1  0.4477540000000  0.5066800000000  0.5554920000000 1.0
C      1  0.5017890000000  0.4978550000000  0.5559270000000 1.0
C      1  0.5035380000000  0.5558280000000  0.5333060000000 1.0
C      1  0.4906110000000  0.5180220000000  0.3997150000000 1.0
C      1  0.4530280000000  0.5742330000000  0.4955670000000 1.0
C      1  0.4531490000000  0.5324040000000  0.4657800000000 1.0
C      1  0.5614300000000  0.5077940000000  0.5052380000000 1.0
C      1  0.4174780000000  0.4824230000000  0.4958810000000 1.0
C      1  0.5867150000000  0.4845360000000  0.4202370000000 1.0
C      1  0.5357390000000  0.5083590000000  0.5234540000000 1.0
C      1  0.5095110000000  0.5025380000000  0.4335710000000 1.0
C      1  0.5138950000000  0.5513480000000  0.4373130000000 1.0
C      1  0.5538470000000  0.4804830000000  0.4656630000000 1.0
C      1  0.5123590000000  0.5296330000000  0.4199850000000 1.0
C      1  0.4322520000000  0.4643420000000  0.4800430000000 1.0
C      1  0.5089030000000  0.4516370000000  0.5015350000000 1.0
C      1  0.5250470000000  0.5623170000000  0.5129430000000 1.0
C      1  0.4772290000000  0.5151230000000  0.5298890000000 1.0
C      1  0.4742400000000  0.5202510000000  0.4271090000000 1.0
C      1  0.5456970000000  0.4371940000000  0.5053790000000 1.0
C      1  0.4424450000000  0.4611330000000  0.5185040000000 1.0
C      1  0.5327490000000  0.4574380000000  0.4617490000000 1.0
C      1  0.4868480000000  0.4929830000000  0.4847310000000 1.0
C      1  0.5026550000000  0.5280010000000  0.5436300000000 1.0
C      1  0.4902590000000  0.5252570000000  0.5826430000000 1.0
C      1  0.4498020000000  0.5788720000000  0.5481390000000 1.0
C      1  0.5279500000000  0.4724560000000  0.5723120000000 1.0
C      1  0.5369650000000  0.4349800000000  0.4784090000000 1.0
C      1  0.4663940000000  0.5042760000000  0.5071800000000 1.0
C      1  0.4710330000000  0.5853280000000  0.4640550000000 1.0
C      1  0.4803690000000  0.4428000000000  0.5431030000000 1.0
C      1  0.5100340000000  0.5019640000000  0.4623040000000 1.0
C      1  0.4435970000000  0.5091300000000  0.4747280000000 1.0
C      1  0.4820570000000  0.4738120000000  0.4585080000000 1.0
C      1  0.5717940000000  0.4826960000000  0.4408580000000 1.0
C      1  0.5087400000000  0.4633060000000  0.4472400000000 1.0
C      1  0.5434490000000  0.5368920000000  0.5078810000000 1.0
C      1  0.4956570000000  0.4772970000000  0.5110970000000 1.0
C      1  0.5434480000000  0.5314530000000  0.4768890000000 1.0
C      1  0.4975940000000  0.4478730000000  0.5649460000000 1.0
C      1  0.5096400000000  0.4743500000000  0.4186910000000 1.0
C      1  0.4940590000000  0.4361370000000  0.4844310000000 1.0
C      1  0.5643080000000  0.4567680000000  0.5094730000000 1.0
C      1  0.5268570000000  0.4450790000000  0.5552160000000 1.0
C      1  0.5367800000000  0.5052550000000  0.4706230000000 1.0
C      1  0.4843350000000  0.4879320000000  0.4063270000000 1.0
C      1  0.4738010000000  0.5386520000000  0.4479940000000 1.0
C      1  0.4281870000000  0.5360020000000  0.5174560000000 1.0
C      1  0.4721060000000  0.4682850000000  0.5289810000000 1.0
C      1  0.4958650000000  0.4764240000000  0.5763400000000 1.0
C      1  0.5221040000000  0.4335960000000  0.5263770000000 1.0
C      1  0.5141530000000  0.4927370000000  0.5290560000000 1.0
C      1  0.4905290000000  0.5645850000000  0.4583800000000 1.0
C      1  0.5130700000000  0.5175140000000  0.5887890000000 1.0
C      1  0.5403670000000  0.5849110000000  0.5207030000000 1.0
END
