TITL C-2778433-5640-1119 9.80307958008642e-05 125000 -973.619501973281 0 0 166 (C1) n - 1
REM
REM in /home/nfs/bkarasulu/CARBON/AIRSS/Generating-Clusters/REBO/Only-C1/SD-CG/HFTN-CG
REM
REM
REM
REM
REM
REM ./C.cell (11c1c37f851c82e70ff6c80c92926a4b)
REM
REM compiler GCC version 9.2.1 20190827 (Red Hat 9.2.1-1)
REM options -cpp -mtune=generic -march=x86-64 -g -O0 -fpre-include=/usr/include/finclude/math-vector-fortran.h
REM seed 453777165 860414712 -1628082580 -257993468 1638355116 456377718 -1172864007 1259821350 -331728581 -1605692264 -1293874482 681882304 -189103819 431362965 -2016183358 992784371 97546640 1736765567 -568601790 -1639721949 960775433 1822154118 -1058465936 979198184 -1913124025 888829564 716881477 492169629 -1672927589 81624739 -1445220675 698163389 1517435017
REM
CELL 1.54180   50.00000   50.00000   50.00000   90.00000   90.00000   90.00000
LATT -1
SFAC C  
C      1  0.5242620000000  0.4742500000000  0.6091840000000 1.0
C      1  0.5788450000000  0.4433060000000  0.4770800000000 1.0
C      1  0.4715950000000  0.4358310000000  0.4133230000000 1.0
C      1  0.5565320000000  0.5376310000000  0.4922130000000 1.0
C      1  0.5379980000000  0.4475220000000  0.5136760000000 1.0
C      1  0.5293640000000  0.5233710000000  0.5973360000000 1.0
C      1  0.5279420000000  0.5375860000000  0.4032540000000 1.0
C      1  0.3950080000000  0.4715230000000  0.4753560000000 1.0
C      1  0.5455320000000  0.5997010000000  0.4688390000000 1.0
C      1  0.5244320000000  0.6031000000000  0.5186770000000 1.0
C      1  0.5138000000000  0.5177070000000  0.4964490000000 1.0
C      1  0.4243510000000  0.5139350000000  0.4910220000000 1.0
C      1  0.5891790000000  0.5495560000000  0.4494970000000 1.0
C      1  0.4018700000000  0.4972820000000  0.5532060000000 1.0
C      1  0.5048280000000  0.4614510000000  0.4961960000000 1.0
C      1  0.5108770000000  0.4049050000000  0.5270300000000 1.0
C      1  0.5212460000000  0.4867740000000  0.4845870000000 1.0
C      1  0.4083680000000  0.4827970000000  0.4464330000000 1.0
C      1  0.5043190000000  0.4682800000000  0.4534550000000 1.0
C      1  0.4329480000000  0.5565770000000  0.4599930000000 1.0
C      1  0.4989270000000  0.4979280000000  0.4629630000000 1.0
C      1  0.5069650000000  0.4234260000000  0.4592420000000 1.0
C      1  0.4660250000000  0.4083700000000  0.5105700000000 1.0
C      1  0.5393770000000  0.5345770000000  0.4627610000000 1.0
C      1  0.5858000000000  0.5638320000000  0.4993510000000 1.0
C      1  0.5781700000000  0.4523810000000  0.4504700000000 1.0
C      1  0.5416130000000  0.4914140000000  0.5646180000000 1.0
C      1  0.4630760000000  0.5641600000000  0.4168710000000 1.0
C      1  0.4788970000000  0.4695870000000  0.5533110000000 1.0
C      1  0.5046420000000  0.5652490000000  0.5723730000000 1.0
C      1  0.4923250000000  0.5810220000000  0.4376030000000 1.0
C      1  0.4579100000000  0.5035880000000  0.5545280000000 1.0
C      1  0.4498550000000  0.4840710000000  0.4864240000000 1.0
C      1  0.4012320000000  0.4916940000000  0.5003840000000 1.0
C      1  0.5084070000000  0.5626270000000  0.4715400000000 1.0
C      1  0.4410420000000  0.4786850000000  0.5172200000000 1.0
C      1  0.4729760000000  0.5439610000000  0.5480210000000 1.0
C      1  0.5422580000000  0.6030560000000  0.5406650000000 1.0
C      1  0.4422090000000  0.5218010000000  0.5785850000000 1.0
C      1  0.4228680000000  0.5495130000000  0.5140120000000 1.0
C      1  0.4128990000000  0.4660370000000  0.5581010000000 1.0
C      1  0.5223230000000  0.5292350000000  0.4351080000000 1.0
C      1  0.4824070000000  0.5728760000000  0.5512400000000 1.0
C      1  0.5589030000000  0.4641280000000  0.5248490000000 1.0
C      1  0.4266510000000  0.4916660000000  0.5760250000000 1.0
C      1  0.4758090000000  0.5708230000000  0.4766630000000 1.0
C      1  0.5684360000000  0.5587750000000  0.5347860000000 1.0
C      1  0.5580180000000  0.4909240000000  0.5385190000000 1.0
C      1  0.4777180000000  0.5390930000000  0.3975670000000 1.0
C      1  0.4654690000000  0.3920850000000  0.4514610000000 1.0
C      1  0.5529230000000  0.5618620000000  0.4609480000000 1.0
C      1  0.4547460000000  0.4167520000000  0.4581760000000 1.0
C      1  0.5710700000000  0.4732420000000  0.5844710000000 1.0
C      1  0.4888210000000  0.5113860000000  0.4058440000000 1.0
C      1  0.4437660000000  0.5689010000000  0.5589490000000 1.0
C      1  0.5221080000000  0.5841590000000  0.4495570000000 1.0
C      1  0.4471850000000  0.5368940000000  0.4110950000000 1.0
C      1  0.4602950000000  0.4667630000000  0.4086650000000 1.0
C      1  0.4935660000000  0.5224630000000  0.5518970000000 1.0
C      1  0.5888990000000  0.4611190000000  0.4983230000000 1.0
C      1  0.4312150000000  0.4399110000000  0.5546910000000 1.0
C      1  0.4573980000000  0.5809290000000  0.5312390000000 1.0
C      1  0.5264080000000  0.4854610000000  0.4367980000000 1.0
C      1  0.4936810000000  0.4879420000000  0.5133040000000 1.0
C      1  0.5048690000000  0.4402800000000  0.4074290000000 1.0
C      1  0.5482660000000  0.5356960000000  0.5430750000000 1.0
C      1  0.4785310000000  0.5024490000000  0.4864240000000 1.0
C      1  0.5933240000000  0.5404750000000  0.5229900000000 1.0
C      1  0.4261680000000  0.4625930000000  0.4758760000000 1.0
C      1  0.5353120000000  0.4169300000000  0.4522420000000 1.0
C      1  0.5491740000000  0.5733680000000  0.4317400000000 1.0
C      1  0.5075970000000  0.4651860000000  0.3933460000000 1.0
C      1  0.5815710000000  0.4755460000000  0.4324060000000 1.0
C      1  0.5702330000000  0.5496600000000  0.4275140000000 1.0
C      1  0.4320370000000  0.4796800000000  0.4022870000000 1.0
C      1  0.5968830000000  0.4961900000000  0.4431890000000 1.0
C      1  0.4861210000000  0.4468600000000  0.6033930000000 1.0
C      1  0.5397820000000  0.4418020000000  0.4853360000000 1.0
C      1  0.4186130000000  0.5009150000000  0.4252150000000 1.0
C      1  0.5070630000000  0.5530700000000  0.3923090000000 1.0
C      1  0.5932070000000  0.5058450000000  0.4693870000000 1.0
C      1  0.4309120000000  0.5657500000000  0.4919650000000 1.0
C      1  0.4608180000000  0.4517390000000  0.5911880000000 1.0
C      1  0.5308850000000  0.4552450000000  0.4622270000000 1.0
C      1  0.4946870000000  0.5275960000000  0.5188400000000 1.0
C      1  0.5871430000000  0.4523580000000  0.5302640000000 1.0
C      1  0.4296050000000  0.4560460000000  0.4446920000000 1.0
C      1  0.4530650000000  0.4242540000000  0.4870690000000 1.0
C      1  0.4937180000000  0.4045390000000  0.5046870000000 1.0
C      1  0.5014000000000  0.4939930000000  0.5607710000000 1.0
C      1  0.5018880000000  0.4292050000000  0.4872640000000 1.0
C      1  0.4489370000000  0.5206260000000  0.5056200000000 1.0
C      1  0.4610760000000  0.5716700000000  0.4482090000000 1.0
C      1  0.5951950000000  0.4901500000000  0.4932820000000 1.0
C      1  0.5035800000000  0.4070770000000  0.5561720000000 1.0
C      1  0.5156840000000  0.5643040000000  0.5209200000000 1.0
C      1  0.4517220000000  0.5413860000000  0.5310350000000 1.0
C      1  0.5619430000000  0.5838890000000  0.5417090000000 1.0
C      1  0.5325820000000  0.5594000000000  0.4952320000000 1.0
C      1  0.4875470000000  0.4338060000000  0.4426900000000 1.0
C      1  0.5255880000000  0.4322290000000  0.4249600000000 1.0
C      1  0.5572030000000  0.5038690000000  0.5910250000000 1.0
C      1  0.5673690000000  0.3930110000000  0.4871920000000 1.0
C      1  0.3933640000000  0.5041770000000  0.4687160000000 1.0
C      1  0.4578450000000  0.5509850000000  0.5841580000000 1.0
C      1  0.5339850000000  0.5493830000000  0.5777690000000 1.0
C      1  0.4741640000000  0.6131460000000  0.5146800000000 1.0
C      1  0.4964750000000  0.5147180000000  0.4378850000000 1.0
C      1  0.4646800000000  0.5432660000000  0.4932800000000 1.0
C      1  0.5837470000000  0.5329070000000  0.4722840000000 1.0
C      1  0.5239180000000  0.5553670000000  0.5465540000000 1.0
C      1  0.5361690000000  0.5913690000000  0.4959430000000 1.0
C      1  0.5611110000000  0.5309510000000  0.5743280000000 1.0
C      1  0.5460750000000  0.5033410000000  0.4541060000000 1.0
C      1  0.5728010000000  0.4545190000000  0.5610780000000 1.0
C      1  0.5458020000000  0.4411570000000  0.5596430000000 1.0
C      1  0.5540450000000  0.4806530000000  0.4171090000000 1.0
C      1  0.4756840000000  0.4155670000000  0.5596380000000 1.0
C      1  0.5488970000000  0.5052520000000  0.4881210000000 1.0
C      1  0.5009580000000  0.4631220000000  0.6218820000000 1.0
C      1  0.5031120000000  0.4488800000000  0.5561410000000 1.0
C      1  0.4283560000000  0.4394720000000  0.4949990000000 1.0
C      1  0.4257600000000  0.5437340000000  0.5617860000000 1.0
C      1  0.5585950000000  0.4169580000000  0.4770670000000 1.0
C      1  0.5554610000000  0.5232030000000  0.4279870000000 1.0
C      1  0.4932830000000  0.4685180000000  0.6473060000000 1.0
C      1  0.5455460000000  0.5086770000000  0.3998030000000 1.0
C      1  0.4315000000000  0.5293350000000  0.4395030000000 1.0
C      1  0.5491290000000  0.4526270000000  0.4358680000000 1.0
C      1  0.4629410000000  0.4574100000000  0.5292970000000 1.0
C      1  0.4481230000000  0.4357570000000  0.4379970000000 1.0
C      1  0.4667650000000  0.4980470000000  0.4393400000000 1.0
C      1  0.5286500000000  0.4666010000000  0.5506000000000 1.0
C      1  0.4755390000000  0.4458700000000  0.5011530000000 1.0
C      1  0.5279650000000  0.4213470000000  0.5709740000000 1.0
C      1  0.5186050000000  0.4944700000000  0.5876330000000 1.0
C      1  0.5004060000000  0.5344400000000  0.6085150000000 1.0
C      1  0.5186240000000  0.4924950000000  0.5319340000000 1.0
C      1  0.5517180000000  0.4665340000000  0.6074780000000 1.0
C      1  0.5030310000000  0.4344260000000  0.5850320000000 1.0
C      1  0.5853490000000  0.5045660000000  0.5401940000000 1.0
C      1  0.5194850000000  0.4334680000000  0.5306960000000 1.0
C      1  0.4092160000000  0.5342750000000  0.4700820000000 1.0
C      1  0.4855040000000  0.5589330000000  0.5133120000000 1.0
C      1  0.4623020000000  0.4244660000000  0.5338860000000 1.0
C      1  0.5859400000000  0.5301330000000  0.5551710000000 1.0
C      1  0.4439220000000  0.5076340000000  0.4627890000000 1.0
C      1  0.4852090000000  0.5511360000000  0.5922920000000 1.0
C      1  0.5175940000000  0.4931680000000  0.4068600000000 1.0
C      1  0.4577700000000  0.4792160000000  0.5777520000000 1.0
C      1  0.4691830000000  0.5059200000000  0.5251500000000 1.0
C      1  0.5424360000000  0.5120940000000  0.5210300000000 1.0
C      1  0.4943560000000  0.5913140000000  0.5200330000000 1.0
C      1  0.4524230000000  0.4318950000000  0.5718760000000 1.0
C      1  0.4309590000000  0.5020580000000  0.5359620000000 1.0
C      1  0.4502440000000  0.5050180000000  0.4142670000000 1.0
C      1  0.4927850000000  0.5747050000000  0.4071330000000 1.0
C      1  0.5987290000000  0.5077980000000  0.5147990000000 1.0
C      1  0.5699360000000  0.5776150000000  0.4799900000000 1.0
C      1  0.4545710000000  0.5808840000000  0.5015370000000 1.0
C      1  0.4819300000000  0.4823160000000  0.3936540000000 1.0
C      1  0.4142740000000  0.5313870000000  0.5376060000000 1.0
C      1  0.4748360000000  0.4654550000000  0.4396040000000 1.0
C      1  0.4023480000000  0.4760690000000  0.5265340000000 1.0
C      1  0.4918840000000  0.5337710000000  0.4787740000000 1.0
C      1  0.4241050000000  0.4498860000000  0.5236730000000 1.0
END
