TITL C-2778433-5640-784 -0.000812030836144429 125000 -475.190940037366 0 0 84 (C1) n - 1
REM
REM in /home/nfs/bkarasulu/CARBON/AIRSS/Generating-Clusters/REBO/Only-C1/SD-CG/HFTN-CG
REM
REM
REM
REM
REM
REM ./C.cell (11c1c37f851c82e70ff6c80c92926a4b)
REM
REM compiler GCC version 9.2.1 20190827 (Red Hat 9.2.1-1)
REM options -cpp -mtune=generic -march=x86-64 -g -O0 -fpre-include=/usr/include/finclude/math-vector-fortran.h
REM seed -1095631511 1426027253 978483323 1676151418 2096017320 -885997138 -1297624834 622383275 589286153 24300267 -205387009 -1628876111 1815064991 -1324491242 1444769923 -1186094428 -2077549302 28148417 -780255008 906623658 -1317014758 -538011910 -1539137036 977603311 -1488931004 2045986229 -1749514265 -1569741925 -366584131 1767801851 1853016921 -88558915 -165137860
REM
CELL 1.54180   50.00000   50.00000   50.00000   90.00000   90.00000   90.00000
LATT -1
SFAC C  
C      1  0.5378350000000  0.5284440000000  0.5793920000000 1.0
C      1  0.4101390000000  0.4978510000000  0.5000870000000 1.0
C      1  0.4518770000000  0.4405960000000  0.5502530000000 1.0
C      1  0.4151280000000  0.5170570000000  0.4819140000000 1.0
C      1  0.4734600000000  0.4933200000000  0.5686280000000 1.0
C      1  0.5187470000000  0.4521350000000  0.4419960000000 1.0
C      1  0.5222680000000  0.5765790000000  0.5127830000000 1.0
C      1  0.4969850000000  0.5706270000000  0.5002740000000 1.0
C      1  0.5716500000000  0.5452500000000  0.4366480000000 1.0
C      1  0.5084700000000  0.5575300000000  0.4464550000000 1.0
C      1  0.5801430000000  0.4881640000000  0.5183350000000 1.0
C      1  0.4714270000000  0.5783880000000  0.5146030000000 1.0
C      1  0.5637160000000  0.4632420000000  0.5350380000000 1.0
C      1  0.5325090000000  0.4625330000000  0.5225150000000 1.0
C      1  0.4746180000000  0.4999210000000  0.4979490000000 1.0
C      1  0.4839700000000  0.4606630000000  0.5369870000000 1.0
C      1  0.4595800000000  0.4835790000000  0.4766440000000 1.0
C      1  0.5424370000000  0.5441980000000  0.5235510000000 1.0
C      1  0.5656140000000  0.4643910000000  0.5006210000000 1.0
C      1  0.4421490000000  0.4333150000000  0.5028180000000 1.0
C      1  0.4226790000000  0.4685210000000  0.5127590000000 1.0
C      1  0.4981620000000  0.5100530000000  0.4535370000000 1.0
C      1  0.4890490000000  0.4462440000000  0.4409340000000 1.0
C      1  0.5190040000000  0.5682800000000  0.5445890000000 1.0
C      1  0.4823790000000  0.4416950000000  0.5637050000000 1.0
C      1  0.5240960000000  0.4774190000000  0.5699450000000 1.0
C      1  0.5066760000000  0.5138830000000  0.4223840000000 1.0
C      1  0.5710660000000  0.5023030000000  0.4888190000000 1.0
C      1  0.4803990000000  0.5545190000000  0.5352750000000 1.0
C      1  0.5698890000000  0.5352650000000  0.4958730000000 1.0
C      1  0.4984670000000  0.5626880000000  0.5708910000000 1.0
C      1  0.4607090000000  0.5215960000000  0.5648170000000 1.0
C      1  0.5370860000000  0.5118040000000  0.5292570000000 1.0
C      1  0.4350870000000  0.4443140000000  0.5292890000000 1.0
C      1  0.5243460000000  0.4339140000000  0.4767620000000 1.0
C      1  0.4752100000000  0.5458260000000  0.5651570000000 1.0
C      1  0.4316800000000  0.4896550000000  0.4583040000000 1.0
C      1  0.4222030000000  0.4983340000000  0.5291380000000 1.0
C      1  0.5404130000000  0.5030380000000  0.5619900000000 1.0
C      1  0.4817230000000  0.4747870000000  0.4295740000000 1.0
C      1  0.4790610000000  0.5546880000000  0.4498270000000 1.0
C      1  0.5678670000000  0.5047010000000  0.5419660000000 1.0
C      1  0.5499210000000  0.5286690000000  0.4414370000000 1.0
C      1  0.4537020000000  0.5428420000000  0.5177330000000 1.0
C      1  0.4427910000000  0.5206390000000  0.5366020000000 1.0
C      1  0.5483810000000  0.4501690000000  0.4588110000000 1.0
C      1  0.4691780000000  0.4371780000000  0.4593070000000 1.0
C      1  0.4969870000000  0.4785420000000  0.4625550000000 1.0
C      1  0.5656630000000  0.4793030000000  0.4638260000000 1.0
C      1  0.4514400000000  0.5675980000000  0.4940790000000 1.0
C      1  0.5272710000000  0.5592290000000  0.4716720000000 1.0
C      1  0.5225260000000  0.5373690000000  0.4299730000000 1.0
C      1  0.4987580000000  0.4532940000000  0.4807140000000 1.0
C      1  0.4611090000000  0.5685510000000  0.4673140000000 1.0
C      1  0.5420230000000  0.4417900000000  0.4998380000000 1.0
C      1  0.4629560000000  0.4930190000000  0.4453950000000 1.0
C      1  0.4609440000000  0.4933310000000  0.5369520000000 1.0
C      1  0.4681790000000  0.4704190000000  0.5132260000000 1.0
C      1  0.4703160000000  0.5254850000000  0.4479110000000 1.0
C      1  0.5191100000000  0.4073460000000  0.4705200000000 1.0
C      1  0.4666730000000  0.5305700000000  0.4914680000000 1.0
C      1  0.4444620000000  0.5200460000000  0.4681690000000 1.0
C      1  0.5036330000000  0.4379780000000  0.5106910000000 1.0
C      1  0.4696210000000  0.4474440000000  0.4922600000000 1.0
C      1  0.5390260000000  0.4787240000000  0.4848900000000 1.0
C      1  0.4920410000000  0.4995080000000  0.5338180000000 1.0
C      1  0.5680710000000  0.5354210000000  0.5375800000000 1.0
C      1  0.5140880000000  0.5275430000000  0.4721000000000 1.0
C      1  0.4315870000000  0.4657560000000  0.4820430000000 1.0
C      1  0.4390030000000  0.4358760000000  0.4703540000000 1.0
C      1  0.5112990000000  0.4769190000000  0.5399690000000 1.0
C      1  0.5276680000000  0.4830610000000  0.4530030000000 1.0
C      1  0.4917150000000  0.4722020000000  0.5744830000000 1.0
C      1  0.5084470000000  0.5415050000000  0.5251840000000 1.0
C      1  0.5022020000000  0.5156390000000  0.5101250000000 1.0
C      1  0.5288830000000  0.5033150000000  0.5001780000000 1.0
C      1  0.5526950000000  0.4973130000000  0.4388020000000 1.0
C      1  0.5089030000000  0.4371720000000  0.5423650000000 1.0
C      1  0.4977800000000  0.4910380000000  0.4098910000000 1.0
C      1  0.5474490000000  0.5608720000000  0.4962230000000 1.0
C      1  0.5379540000000  0.4508460000000  0.5538840000000 1.0
C      1  0.4928430000000  0.5461500000000  0.4863050000000 1.0
C      1  0.5444420000000  0.5162980000000  0.4726250000000 1.0
C      1  0.5282850000000  0.5527200000000  0.5734440000000 1.0
END
