TITL C-2778426-5645-904 -0.00619383760604226 125000 -806.999962894407 0 0 141 (C1) n - 1
REM
REM in /home/nfs/bkarasulu/CARBON/AIRSS/Generating-Clusters/REBO/Only-C1/SD-CG/HFTN-CG
REM
REM
REM
REM
REM
REM ./C.cell (11c1c37f851c82e70ff6c80c92926a4b)
REM
REM compiler GCC version 9.2.1 20190827 (Red Hat 9.2.1-1)
REM options -cpp -mtune=generic -march=x86-64 -g -O0 -fpre-include=/usr/include/finclude/math-vector-fortran.h
REM seed 632028619 1404386199 -49698785 -630156103 -1477206944 -1724027214 1341373340 -909682445 -623059807 823706677 1115640190 487010202 1187250121 -1432312792 1520866729 206737746 131844620 -284846458 115438937 -325680726 -732929545 1150101351 252668461 -902592388 1842290309 -101414852 -1288071258 1994259912 367054856 -2056189043 63338800 1885595162 -209400387
REM
CELL 1.54180   50.00000   50.00000   50.00000   90.00000   90.00000   90.00000
LATT -1
SFAC C  
C      1  0.5597370000000  0.4130360000000  0.4932550000000 1.0
C      1  0.4768450000000  0.5653580000000  0.5821670000000 1.0
C      1  0.4159080000000  0.4593710000000  0.5024190000000 1.0
C      1  0.4917350000000  0.5633790000000  0.4838630000000 1.0
C      1  0.5166050000000  0.4710240000000  0.4932830000000 1.0
C      1  0.4538270000000  0.5532930000000  0.5690340000000 1.0
C      1  0.5529540000000  0.4877830000000  0.5705150000000 1.0
C      1  0.4418230000000  0.4920440000000  0.4968190000000 1.0
C      1  0.4562280000000  0.5639540000000  0.5390410000000 1.0
C      1  0.5455300000000  0.4766840000000  0.4174310000000 1.0
C      1  0.4538850000000  0.4669200000000  0.4294000000000 1.0
C      1  0.4924930000000  0.3957750000000  0.4991280000000 1.0
C      1  0.4533530000000  0.4724860000000  0.4773080000000 1.0
C      1  0.5133810000000  0.4644260000000  0.4169390000000 1.0
C      1  0.5176370000000  0.5343880000000  0.5470350000000 1.0
C      1  0.4864110000000  0.5486360000000  0.5464150000000 1.0
C      1  0.4880530000000  0.5267930000000  0.5725520000000 1.0
C      1  0.5042030000000  0.5051280000000  0.5516970000000 1.0
C      1  0.4814260000000  0.4364960000000  0.5555140000000 1.0
C      1  0.5835010000000  0.5291200000000  0.5299970000000 1.0
C      1  0.4608760000000  0.4395930000000  0.4256290000000 1.0
C      1  0.4758580000000  0.5190400000000  0.4569680000000 1.0
C      1  0.5882000000000  0.4756830000000  0.5405940000000 1.0
C      1  0.4237350000000  0.4704180000000  0.5524590000000 1.0
C      1  0.4748610000000  0.4757740000000  0.5570200000000 1.0
C      1  0.4509410000000  0.4517660000000  0.5541900000000 1.0
C      1  0.4798040000000  0.5371880000000  0.4837390000000 1.0
C      1  0.4385290000000  0.5768810000000  0.5181900000000 1.0
C      1  0.4414250000000  0.5671930000000  0.4731640000000 1.0
C      1  0.4352220000000  0.5200260000000  0.4951410000000 1.0
C      1  0.5990020000000  0.5225420000000  0.5083650000000 1.0
C      1  0.4161050000000  0.5618270000000  0.5113270000000 1.0
C      1  0.5986240000000  0.5297430000000  0.4547650000000 1.0
C      1  0.5070890000000  0.5923940000000  0.4767280000000 1.0
C      1  0.5072380000000  0.4118470000000  0.4172360000000 1.0
C      1  0.5834110000000  0.5017880000000  0.4307620000000 1.0
C      1  0.4188560000000  0.5174020000000  0.5394160000000 1.0
C      1  0.4521700000000  0.4212040000000  0.4845630000000 1.0
C      1  0.4940500000000  0.5218670000000  0.5031640000000 1.0
C      1  0.4925530000000  0.5458620000000  0.5995410000000 1.0
C      1  0.5254990000000  0.5853050000000  0.4546510000000 1.0
C      1  0.5829720000000  0.4453670000000  0.4918730000000 1.0
C      1  0.4848640000000  0.4763690000000  0.4701580000000 1.0
C      1  0.5139880000000  0.5263650000000  0.4661400000000 1.0
C      1  0.4793930000000  0.4999410000000  0.5326790000000 1.0
C      1  0.4473930000000  0.4796050000000  0.5217230000000 1.0
C      1  0.4747090000000  0.5885120000000  0.4681030000000 1.0
C      1  0.5565660000000  0.5286450000000  0.4947240000000 1.0
C      1  0.4607270000000  0.4263750000000  0.4546810000000 1.0
C      1  0.5159660000000  0.5221710000000  0.6024260000000 1.0
C      1  0.5519320000000  0.4515580000000  0.5001020000000 1.0
C      1  0.4758370000000  0.4852370000000  0.4299840000000 1.0
C      1  0.5227550000000  0.5086850000000  0.4246090000000 1.0
C      1  0.5143450000000  0.4146660000000  0.5078200000000 1.0
C      1  0.5443410000000  0.5170530000000  0.5593260000000 1.0
C      1  0.4001200000000  0.5009750000000  0.5209670000000 1.0
C      1  0.4135880000000  0.5363940000000  0.4517180000000 1.0
C      1  0.5658210000000  0.5134990000000  0.4700330000000 1.0
C      1  0.4133690000000  0.4723460000000  0.4769260000000 1.0
C      1  0.5221280000000  0.5796710000000  0.5454740000000 1.0
C      1  0.4794680000000  0.4949160000000  0.5813440000000 1.0
C      1  0.5288030000000  0.4277660000000  0.5662340000000 1.0
C      1  0.4572500000000  0.5277280000000  0.4226500000000 1.0
C      1  0.4495500000000  0.5385510000000  0.4798370000000 1.0
C      1  0.5703720000000  0.4949130000000  0.5110090000000 1.0
C      1  0.5222860000000  0.5087700000000  0.4937060000000 1.0
C      1  0.5977120000000  0.4735420000000  0.4793690000000 1.0
C      1  0.5133760000000  0.5425800000000  0.5175180000000 1.0
C      1  0.5327010000000  0.4566460000000  0.4655700000000 1.0
C      1  0.5539750000000  0.4746390000000  0.5329830000000 1.0
C      1  0.4549380000000  0.5892440000000  0.4947270000000 1.0
C      1  0.4263810000000  0.5185340000000  0.4283420000000 1.0
C      1  0.4428240000000  0.5515320000000  0.4427100000000 1.0
C      1  0.4217970000000  0.5341250000000  0.5161470000000 1.0
C      1  0.5565630000000  0.5087500000000  0.4204440000000 1.0
C      1  0.5702490000000  0.5362500000000  0.4458100000000 1.0
C      1  0.4657260000000  0.3994320000000  0.5026810000000 1.0
C      1  0.5144170000000  0.5750270000000  0.5119680000000 1.0
C      1  0.4428140000000  0.4292840000000  0.5324230000000 1.0
C      1  0.5748280000000  0.4260170000000  0.5192850000000 1.0
C      1  0.4696580000000  0.4605660000000  0.5204890000000 1.0
C      1  0.5426850000000  0.5781540000000  0.4950300000000 1.0
C      1  0.5744500000000  0.5044160000000  0.5497220000000 1.0
C      1  0.5676040000000  0.5565040000000  0.4968590000000 1.0
C      1  0.4873290000000  0.5941850000000  0.5054850000000 1.0
C      1  0.5538820000000  0.5462280000000  0.5612000000000 1.0
C      1  0.5240620000000  0.5534090000000  0.5954760000000 1.0
C      1  0.4561200000000  0.4040280000000  0.5296590000000 1.0
C      1  0.5476340000000  0.4801530000000  0.4939690000000 1.0
C      1  0.5218340000000  0.5615330000000  0.4386300000000 1.0
C      1  0.4881890000000  0.4466780000000  0.4534240000000 1.0
C      1  0.4186590000000  0.4968980000000  0.4535890000000 1.0
C      1  0.4526480000000  0.5038530000000  0.5929930000000 1.0
C      1  0.5970170000000  0.5076370000000  0.4801160000000 1.0
C      1  0.5095360000000  0.4272920000000  0.5378670000000 1.0
C      1  0.5484390000000  0.4541720000000  0.5668600000000 1.0
C      1  0.5707610000000  0.4473660000000  0.5435220000000 1.0
C      1  0.5304060000000  0.4150410000000  0.4279660000000 1.0
C      1  0.6006910000000  0.4826710000000  0.5109940000000 1.0
C      1  0.4843540000000  0.5209780000000  0.4135200000000 1.0
C      1  0.4992830000000  0.4173910000000  0.5749530000000 1.0
C      1  0.5269350000000  0.4933860000000  0.3943350000000 1.0
C      1  0.5330560000000  0.4444670000000  0.4365540000000 1.0
C      1  0.4937040000000  0.5465550000000  0.4476380000000 1.0
C      1  0.5406730000000  0.4299580000000  0.5238880000000 1.0
C      1  0.5510380000000  0.4853230000000  0.4633310000000 1.0
C      1  0.5135770000000  0.5386000000000  0.4145930000000 1.0
C      1  0.5333070000000  0.4284440000000  0.4848070000000 1.0
C      1  0.4417710000000  0.5291680000000  0.5761100000000 1.0
C      1  0.4472300000000  0.5015710000000  0.5441700000000 1.0
C      1  0.4991940000000  0.4456500000000  0.4837690000000 1.0
C      1  0.4946550000000  0.4899510000000  0.4037560000000 1.0
C      1  0.5798410000000  0.4429370000000  0.4608770000000 1.0
C      1  0.5085400000000  0.4550860000000  0.5661870000000 1.0
C      1  0.5346230000000  0.5634650000000  0.5716540000000 1.0
C      1  0.4512720000000  0.5063270000000  0.4562870000000 1.0
C      1  0.4361090000000  0.4695780000000  0.4521000000000 1.0
C      1  0.4708950000000  0.5664650000000  0.4465940000000 1.0
C      1  0.5258110000000  0.4864570000000  0.5375410000000 1.0
C      1  0.5083570000000  0.4964770000000  0.5938410000000 1.0
C      1  0.4282020000000  0.4975970000000  0.5718240000000 1.0
C      1  0.5458980000000  0.5407820000000  0.4263870000000 1.0
C      1  0.4832140000000  0.5812670000000  0.5356110000000 1.0
C      1  0.4923350000000  0.4384980000000  0.4205650000000 1.0
C      1  0.3985130000000  0.5363120000000  0.4756720000000 1.0
C      1  0.5012840000000  0.5011600000000  0.4463130000000 1.0
C      1  0.5509680000000  0.5755200000000  0.5276100000000 1.0
C      1  0.5298670000000  0.5471840000000  0.4879750000000 1.0
C      1  0.4891710000000  0.4895190000000  0.5016490000000 1.0
C      1  0.5634550000000  0.4567140000000  0.4385120000000 1.0
C      1  0.4690380000000  0.4476110000000  0.4927270000000 1.0
C      1  0.5257340000000  0.4754620000000  0.5825330000000 1.0
C      1  0.5818610000000  0.4817250000000  0.4518050000000 1.0
C      1  0.5421080000000  0.5101610000000  0.5193540000000 1.0
C      1  0.3982780000000  0.5620710000000  0.4890960000000 1.0
C      1  0.3946430000000  0.5139280000000  0.4948410000000 1.0
C      1  0.4329680000000  0.4373750000000  0.5063940000000 1.0
C      1  0.4995970000000  0.4659380000000  0.5358200000000 1.0
C      1  0.4082870000000  0.4735240000000  0.5267280000000 1.0
C      1  0.4947380000000  0.5824340000000  0.5656690000000 1.0
C      1  0.5675890000000  0.5530840000000  0.5369120000000 1.0
END
