TITL C-2778427-5640-109 0.0767764183227372 125000 -154.682544985683 0 0 28 (C1) n - 1
REM
REM in /home/nfs/bkarasulu/CARBON/AIRSS/Generating-Clusters/REBO/Only-C1/SD-CG/HFTN-CG
REM
REM
REM
REM
REM
REM ./C.cell (11c1c37f851c82e70ff6c80c92926a4b)
REM
REM compiler GCC version 9.2.1 20190827 (Red Hat 9.2.1-1)
REM options -cpp -mtune=generic -march=x86-64 -g -O0 -fpre-include=/usr/include/finclude/math-vector-fortran.h
REM seed 384339052 77654266 -1492289559 1890848010 -1702831569 895097374 1539249610 -1322630269 178137339 765643705 15235076 1960857087 -246038289 -1951119593 772835378 -1821091017 488594897 -1279976403 -662274538 -222942519 947272358 -1594536085 -1516815942 -2116073854 -1904997107 -1174271962 -389297811 -1038801764 -1768764233 690668371 -196081 -1307622883 1618119783
REM
CELL 1.54180   50.00000   50.00000   50.00000   90.00000   90.00000   90.00000
LATT -1
SFAC C  
C      1  0.4978030000000  0.4376340000000  0.4159310000000 1.0
C      1  0.5322380000000  0.4428350000000  0.4930060000000 1.0
C      1  0.5083930000000  0.4898700000000  0.5386370000000 1.0
C      1  0.4628510000000  0.5591910000000  0.5053760000000 1.0
C      1  0.4439010000000  0.5436560000000  0.5195240000000 1.0
C      1  0.5177190000000  0.4431250000000  0.4684700000000 1.0
C      1  0.4919020000000  0.4617780000000  0.4671000000000 1.0
C      1  0.4683790000000  0.4961790000000  0.5058830000000 1.0
C      1  0.5079710000000  0.5692590000000  0.4854250000000 1.0
C      1  0.4970250000000  0.5252370000000  0.5004180000000 1.0
C      1  0.5377380000000  0.4930750000000  0.4952570000000 1.0
C      1  0.5266860000000  0.5012010000000  0.5561510000000 1.0
C      1  0.5058380000000  0.4592600000000  0.5387330000000 1.0
C      1  0.5479500000000  0.5392550000000  0.4811390000000 1.0
C      1  0.4886720000000  0.5519590000000  0.4965770000000 1.0
C      1  0.4810990000000  0.5046830000000  0.5335510000000 1.0
C      1  0.5159980000000  0.4370730000000  0.5164680000000 1.0
C      1  0.5010880000000  0.4445320000000  0.4411900000000 1.0
C      1  0.5553620000000  0.5126460000000  0.4852880000000 1.0
C      1  0.5808940000000  0.5050830000000  0.4790090000000 1.0
C      1  0.4191150000000  0.5532990000000  0.5276690000000 1.0
C      1  0.4528830000000  0.5173550000000  0.5244640000000 1.0
C      1  0.5083300000000  0.4967160000000  0.5054350000000 1.0
C      1  0.5335070000000  0.5618800000000  0.4795290000000 1.0
C      1  0.4870730000000  0.4506710000000  0.5144800000000 1.0
C      1  0.4860390000000  0.4736730000000  0.4936160000000 1.0
C      1  0.5477850000000  0.4664900000000  0.4963280000000 1.0
C      1  0.3957620000000  0.5623850000000  0.5353440000000 1.0
END
