TITL C-2778429-3646-955 0.00288584339028981 125000 -322.579434719995 0 0 56 (C1) n - 1
REM
REM in /home/nfs/bkarasulu/CARBON/AIRSS/Generating-Clusters/REBO/Only-C1/SD-CG/HFTN-CG
REM
REM
REM
REM
REM
REM ./C.cell (11c1c37f851c82e70ff6c80c92926a4b)
REM
REM compiler GCC version 9.2.1 20190827 (Red Hat 9.2.1-1)
REM options -cpp -mtune=generic -march=x86-64 -g -O0 -fpre-include=/usr/include/finclude/math-vector-fortran.h
REM seed 1128807981 -711141577 -338302194 -167018392 -170379749 305810499 1304954527 -1367480812 836518109 -766804598 -616497296 1836460454 -894869248 7588266 1266753702 -1515752284 1599609095 1787871764 -95527055 330546267 -419744441 -1531080255 -812263904 -1378596429 -952506804 184451753 -827292869 654044181 -1552943509 1636445078 1112266183 1773473050 1923378966
REM
CELL 1.54180   50.00000   50.00000   50.00000   90.00000   90.00000   90.00000
LATT -1
SFAC C  
C      1  0.4775120000000  0.4811250000000  0.4488010000000 1.0
C      1  0.5284840000000  0.4714490000000  0.5019750000000 1.0
C      1  0.5564890000000  0.4702160000000  0.4556270000000 1.0
C      1  0.5347990000000  0.4384480000000  0.5282290000000 1.0
C      1  0.5451880000000  0.4333490000000  0.5007940000000 1.0
C      1  0.5163260000000  0.5436230000000  0.5555960000000 1.0
C      1  0.4985650000000  0.4829220000000  0.5424710000000 1.0
C      1  0.5468480000000  0.5573750000000  0.5004990000000 1.0
C      1  0.5245400000000  0.4378270000000  0.4807640000000 1.0
C      1  0.5176560000000  0.4907570000000  0.5620950000000 1.0
C      1  0.4246230000000  0.4855110000000  0.4906150000000 1.0
C      1  0.5541350000000  0.5184280000000  0.5288930000000 1.0
C      1  0.5622930000000  0.4901640000000  0.4759060000000 1.0
C      1  0.4413900000000  0.5525980000000  0.4852290000000 1.0
C      1  0.4786510000000  0.4533850000000  0.4866470000000 1.0
C      1  0.5368540000000  0.5827620000000  0.5080050000000 1.0
C      1  0.5506200000000  0.4572210000000  0.5440920000000 1.0
C      1  0.5384370000000  0.4715210000000  0.5656880000000 1.0
C      1  0.5268430000000  0.4599700000000  0.4568510000000 1.0
C      1  0.4619640000000  0.5044800000000  0.4474110000000 1.0
C      1  0.4852530000000  0.4339580000000  0.4429780000000 1.0
C      1  0.4344010000000  0.4621270000000  0.5073480000000 1.0
C      1  0.5080900000000  0.5376330000000  0.4562770000000 1.0
C      1  0.4898770000000  0.5080020000000  0.4756570000000 1.0
C      1  0.5112590000000  0.5836340000000  0.5204990000000 1.0
C      1  0.4861250000000  0.4575070000000  0.5365670000000 1.0
C      1  0.5299660000000  0.5395110000000  0.4830470000000 1.0
C      1  0.4885120000000  0.5910090000000  0.5041170000000 1.0
C      1  0.4867000000000  0.5434860000000  0.5159560000000 1.0
C      1  0.5028210000000  0.4971110000000  0.5139550000000 1.0
C      1  0.4481700000000  0.5047770000000  0.5381970000000 1.0
C      1  0.4609950000000  0.5015440000000  0.4871930000000 1.0
C      1  0.4256870000000  0.5348800000000  0.4665450000000 1.0
C      1  0.4636600000000  0.5266370000000  0.5336920000000 1.0
C      1  0.5050720000000  0.4388420000000  0.5245620000000 1.0
C      1  0.5053060000000  0.5591370000000  0.5350700000000 1.0
C      1  0.5679020000000  0.4725450000000  0.5265830000000 1.0
C      1  0.4996680000000  0.4368350000000  0.4955850000000 1.0
C      1  0.4596970000000  0.4603910000000  0.5211200000000 1.0
C      1  0.4725690000000  0.4543160000000  0.4587180000000 1.0
C      1  0.4351670000000  0.5048650000000  0.4657350000000 1.0
C      1  0.4791640000000  0.5299460000000  0.4509670000000 1.0
C      1  0.5625800000000  0.5424110000000  0.5187530000000 1.0
C      1  0.5552360000000  0.4794860000000  0.5020060000000 1.0
C      1  0.5204580000000  0.5187450000000  0.5657280000000 1.0
C      1  0.4406990000000  0.5221940000000  0.5013100000000 1.0
C      1  0.5496150000000  0.5148960000000  0.4700650000000 1.0
C      1  0.5126670000000  0.4360540000000  0.4403410000000 1.0
C      1  0.5084500000000  0.4856410000000  0.4575420000000 1.0
C      1  0.5043910000000  0.5254110000000  0.4976580000000 1.0
C      1  0.4255860000000  0.4993330000000  0.5190870000000 1.0
C      1  0.4476660000000  0.5508240000000  0.5185110000000 1.0
C      1  0.5245300000000  0.5126690000000  0.4542340000000 1.0
C      1  0.4692400000000  0.5670540000000  0.4985960000000 1.0
C      1  0.4778800000000  0.4811070000000  0.5026940000000 1.0
C      1  0.5327230000000  0.5023500000000  0.5269190000000 1.0
END
