TITL C-2778429-3646-170 0.0027499906876035 125000 -590.258016089722 0 0 100 (C1) n - 1
REM
REM in /home/nfs/bkarasulu/CARBON/AIRSS/Generating-Clusters/REBO/Only-C1/SD-CG/HFTN-CG
REM
REM
REM
REM
REM
REM ./C.cell (11c1c37f851c82e70ff6c80c92926a4b)
REM
REM compiler GCC version 9.2.1 20190827 (Red Hat 9.2.1-1)
REM options -cpp -mtune=generic -march=x86-64 -g -O0 -fpre-include=/usr/include/finclude/math-vector-fortran.h
REM seed -1072955730 -762695348 1423557979 953919239 -2078145394 1739433414 1334339832 52282582 448771139 1429203703 81646904 -1968908543 31725046 1526362530 611531096 1410158064 -776019117 1733898188 -542336083 1898819356 1786906539 53248229 242779626 1780933724 266824208 -1504387998 1316417109 139777586 -594757454 286400099 -1078138804 947189863 -435075860
REM
CELL 1.54180   50.00000   50.00000   50.00000   90.00000   90.00000   90.00000
LATT -1
SFAC C  
C      1  0.5565090000000  0.5121190000000  0.5020510000000 1.0
C      1  0.5344990000000  0.5254050000000  0.5510750000000 1.0
C      1  0.5717810000000  0.5464510000000  0.5155960000000 1.0
C      1  0.4667550000000  0.4607790000000  0.5734150000000 1.0
C      1  0.4021010000000  0.5350910000000  0.4654110000000 1.0
C      1  0.5545790000000  0.4628960000000  0.5480050000000 1.0
C      1  0.4748680000000  0.5868540000000  0.4818220000000 1.0
C      1  0.5991780000000  0.4717270000000  0.4709230000000 1.0
C      1  0.5154490000000  0.4732620000000  0.5825880000000 1.0
C      1  0.4634010000000  0.5499270000000  0.4717750000000 1.0
C      1  0.4776800000000  0.4576460000000  0.4265140000000 1.0
C      1  0.4837810000000  0.5074840000000  0.4984710000000 1.0
C      1  0.4836340000000  0.5128170000000  0.5826240000000 1.0
C      1  0.5840140000000  0.5193840000000  0.5160780000000 1.0
C      1  0.5134750000000  0.5106220000000  0.4167010000000 1.0
C      1  0.4370100000000  0.5142810000000  0.4321020000000 1.0
C      1  0.4460510000000  0.4706460000000  0.5563160000000 1.0
C      1  0.5528520000000  0.4908580000000  0.4556140000000 1.0
C      1  0.5390420000000  0.5666780000000  0.5064170000000 1.0
C      1  0.5305340000000  0.4601840000000  0.4322590000000 1.0
C      1  0.4149440000000  0.5246180000000  0.4437890000000 1.0
C      1  0.5131640000000  0.5241390000000  0.4741170000000 1.0
C      1  0.4577220000000  0.4699410000000  0.4513850000000 1.0
C      1  0.5760850000000  0.4686860000000  0.4583070000000 1.0
C      1  0.5571740000000  0.5440120000000  0.4355920000000 1.0
C      1  0.5260430000000  0.5518800000000  0.4594420000000 1.0
C      1  0.5238710000000  0.4948600000000  0.4730410000000 1.0
C      1  0.4414280000000  0.4375920000000  0.5190190000000 1.0
C      1  0.5223630000000  0.4245410000000  0.5291020000000 1.0
C      1  0.5659830000000  0.5592290000000  0.4869450000000 1.0
C      1  0.4703730000000  0.5330780000000  0.5674500000000 1.0
C      1  0.6057400000000  0.5031750000000  0.5102850000000 1.0
C      1  0.5024790000000  0.4440000000000  0.4387170000000 1.0
C      1  0.4122030000000  0.5476150000000  0.4887920000000 1.0
C      1  0.5404950000000  0.4922670000000  0.4265910000000 1.0
C      1  0.5438310000000  0.5255060000000  0.4206830000000 1.0
C      1  0.4869840000000  0.5641050000000  0.4302550000000 1.0
C      1  0.5454280000000  0.5490750000000  0.5347980000000 1.0
C      1  0.4983300000000  0.4778780000000  0.4664660000000 1.0
C      1  0.5135660000000  0.5067590000000  0.5887780000000 1.0
C      1  0.5021750000000  0.6065820000000  0.5123530000000 1.0
C      1  0.5141560000000  0.5840780000000  0.5160300000000 1.0
C      1  0.4642830000000  0.4964510000000  0.4726340000000 1.0
C      1  0.4828800000000  0.4371070000000  0.5691150000000 1.0
C      1  0.4751950000000  0.4792530000000  0.5304290000000 1.0
C      1  0.4944880000000  0.4215470000000  0.5235440000000 1.0
C      1  0.5283790000000  0.4291360000000  0.5567650000000 1.0
C      1  0.4556380000000  0.4999950000000  0.5500800000000 1.0
C      1  0.4412560000000  0.5267930000000  0.5584080000000 1.0
C      1  0.5147540000000  0.4444730000000  0.4953070000000 1.0
C      1  0.4787980000000  0.4280160000000  0.5007620000000 1.0
C      1  0.4810170000000  0.5244910000000  0.4626910000000 1.0
C      1  0.4747210000000  0.5745520000000  0.4532010000000 1.0
C      1  0.5349340000000  0.5355970000000  0.4952760000000 1.0
C      1  0.5321020000000  0.5264300000000  0.5791650000000 1.0
C      1  0.5100610000000  0.4918570000000  0.5135090000000 1.0
C      1  0.5338650000000  0.4791470000000  0.5578640000000 1.0
C      1  0.4128220000000  0.5351860000000  0.5145380000000 1.0
C      1  0.5605060000000  0.5158020000000  0.4717840000000 1.0
C      1  0.4824530000000  0.5512930000000  0.5478100000000 1.0
C      1  0.4201730000000  0.4814690000000  0.5180090000000 1.0
C      1  0.4598270000000  0.4987180000000  0.4333000000000 1.0
C      1  0.4987200000000  0.5328240000000  0.5165100000000 1.0
C      1  0.5645060000000  0.5421380000000  0.4634630000000 1.0
C      1  0.4988870000000  0.4337480000000  0.4670080000000 1.0
C      1  0.4832960000000  0.4818670000000  0.5835220000000 1.0
C      1  0.5047370000000  0.4775250000000  0.4176180000000 1.0
C      1  0.4502220000000  0.4161200000000  0.5389810000000 1.0
C      1  0.4319010000000  0.5439380000000  0.5370010000000 1.0
C      1  0.4772800000000  0.4191280000000  0.5471330000000 1.0
C      1  0.4848150000000  0.5103720000000  0.5379510000000 1.0
C      1  0.4890390000000  0.5507370000000  0.4916880000000 1.0
C      1  0.4569370000000  0.5752700000000  0.5017400000000 1.0
C      1  0.5106270000000  0.4425220000000  0.5744870000000 1.0
C      1  0.4603090000000  0.5233370000000  0.5179360000000 1.0
C      1  0.4591010000000  0.4644090000000  0.5070760000000 1.0
C      1  0.5094230000000  0.5650520000000  0.4800650000000 1.0
C      1  0.4298410000000  0.4613950000000  0.5352840000000 1.0
C      1  0.4409480000000  0.4874760000000  0.4924950000000 1.0
C      1  0.4793710000000  0.4568300000000  0.4822220000000 1.0
C      1  0.4444040000000  0.4462460000000  0.4660830000000 1.0
C      1  0.5428960000000  0.4866170000000  0.5071220000000 1.0
C      1  0.5436100000000  0.5452070000000  0.5949860000000 1.0
C      1  0.4891570000000  0.4920880000000  0.4417150000000 1.0
C      1  0.4327840000000  0.5114520000000  0.5138140000000 1.0
C      1  0.4993850000000  0.4612950000000  0.5161960000000 1.0
C      1  0.5495510000000  0.4511410000000  0.4568500000000 1.0
C      1  0.4923350000000  0.5302820000000  0.4310070000000 1.0
C      1  0.4599120000000  0.5565880000000  0.5253440000000 1.0
C      1  0.5122790000000  0.5560810000000  0.5339820000000 1.0
C      1  0.5220040000000  0.4125290000000  0.4721760000000 1.0
C      1  0.4495300000000  0.4308780000000  0.4877720000000 1.0
C      1  0.5166660000000  0.5537290000000  0.4327960000000 1.0
C      1  0.4358680000000  0.5617600000000  0.4844150000000 1.0
C      1  0.5458690000000  0.4264910000000  0.4779240000000 1.0
C      1  0.5558760000000  0.4610040000000  0.5206630000000 1.0
C      1  0.6114680000000  0.4844060000000  0.4914670000000 1.0
C      1  0.5358840000000  0.4648970000000  0.4825770000000 1.0
C      1  0.5262160000000  0.5008850000000  0.5405520000000 1.0
C      1  0.5444620000000  0.4356970000000  0.5084930000000 1.0
END
