TITL C-2778428-5639-843 0.00204794386340609 125000 -1119.28763727413 0 0 190 (C1) n - 1
REM
REM in /home/nfs/bkarasulu/CARBON/AIRSS/Generating-Clusters/REBO/Only-C1/SD-CG/HFTN-CG
REM
REM
REM
REM
REM
REM ./C.cell (11c1c37f851c82e70ff6c80c92926a4b)
REM
REM compiler GCC version 9.2.1 20190827 (Red Hat 9.2.1-1)
REM options -cpp -mtune=generic -march=x86-64 -g -O0 -fpre-include=/usr/include/finclude/math-vector-fortran.h
REM seed -1832587525 1874400233 1062368297 523892543 -1395917638 1781676343 -358173901 -740593413 -617547490 302066392 -2001990483 -1690013347 -904459386 1666901466 1691079126 805675573 -1602515165 -186710900 -109254864 335945421 470179123 -437654167 -1832915868 -2044350105 1673287080 -28265580 2144396915 104602341 85088546 189246644 -573767411 1701829374 1936014521
REM
CELL 1.54180   50.00000   50.00000   50.00000   90.00000   90.00000   90.00000
LATT -1
SFAC C  
C      1  0.5662380000000  0.5772040000000  0.4574470000000 1.0
C      1  0.4710300000000  0.5942110000000  0.4612050000000 1.0
C      1  0.5780700000000  0.4288540000000  0.5279510000000 1.0
C      1  0.5394070000000  0.3978700000000  0.4832650000000 1.0
C      1  0.4136220000000  0.4849480000000  0.5674650000000 1.0
C      1  0.5493920000000  0.5182590000000  0.5659830000000 1.0
C      1  0.5503270000000  0.6016210000000  0.4750790000000 1.0
C      1  0.5179980000000  0.5988360000000  0.5256940000000 1.0
C      1  0.4911020000000  0.4107690000000  0.4526420000000 1.0
C      1  0.4538300000000  0.4855500000000  0.5009480000000 1.0
C      1  0.4550150000000  0.5369380000000  0.4127040000000 1.0
C      1  0.5946590000000  0.4334550000000  0.4990910000000 1.0
C      1  0.4865940000000  0.5431460000000  0.4054410000000 1.0
C      1  0.5245390000000  0.5183440000000  0.5233220000000 1.0
C      1  0.5227760000000  0.4214730000000  0.4307930000000 1.0
C      1  0.5348060000000  0.5411490000000  0.4472740000000 1.0
C      1  0.4950350000000  0.5162290000000  0.5319360000000 1.0
C      1  0.5375870000000  0.5269330000000  0.3898840000000 1.0
C      1  0.5105230000000  0.4871630000000  0.5780180000000 1.0
C      1  0.4776780000000  0.4628390000000  0.4681370000000 1.0
C      1  0.4297380000000  0.4559670000000  0.4301530000000 1.0
C      1  0.5157850000000  0.4452580000000  0.5268670000000 1.0
C      1  0.4429450000000  0.5053990000000  0.4071640000000 1.0
C      1  0.4907760000000  0.5706880000000  0.5335660000000 1.0
C      1  0.5354480000000  0.4882120000000  0.5158440000000 1.0
C      1  0.4861490000000  0.6039090000000  0.5243360000000 1.0
C      1  0.4530980000000  0.5489700000000  0.5470750000000 1.0
C      1  0.4571610000000  0.5270440000000  0.5257570000000 1.0
C      1  0.5848420000000  0.4674460000000  0.5171960000000 1.0
C      1  0.5377770000000  0.4394500000000  0.5804860000000 1.0
C      1  0.5561660000000  0.4279890000000  0.5541590000000 1.0
C      1  0.4637790000000  0.4408300000000  0.5917590000000 1.0
C      1  0.5601730000000  0.4599290000000  0.4287090000000 1.0
C      1  0.5401810000000  0.5375570000000  0.4849480000000 1.0
C      1  0.4336420000000  0.4191960000000  0.5256500000000 1.0
C      1  0.5652970000000  0.5849020000000  0.5298520000000 1.0
C      1  0.5987290000000  0.5061370000000  0.5441170000000 1.0
C      1  0.4152600000000  0.5083750000000  0.4811790000000 1.0
C      1  0.4327670000000  0.5415890000000  0.5096290000000 1.0
C      1  0.4493070000000  0.4582010000000  0.5681280000000 1.0
C      1  0.4973900000000  0.5742680000000  0.5726860000000 1.0
C      1  0.4660420000000  0.4910750000000  0.4417890000000 1.0
C      1  0.5170780000000  0.3947140000000  0.5350200000000 1.0
C      1  0.5513750000000  0.4921760000000  0.4666850000000 1.0
C      1  0.5163750000000  0.4974970000000  0.4321380000000 1.0
C      1  0.5956450000000  0.5455620000000  0.5162720000000 1.0
C      1  0.5313250000000  0.4756250000000  0.4614310000000 1.0
C      1  0.4864600000000  0.4517340000000  0.5550230000000 1.0
C      1  0.4872720000000  0.5240660000000  0.5927130000000 1.0
C      1  0.4586000000000  0.5202560000000  0.4406820000000 1.0
C      1  0.5158230000000  0.4400060000000  0.4950890000000 1.0
C      1  0.4326120000000  0.5649140000000  0.4933370000000 1.0
C      1  0.5330950000000  0.5492970000000  0.5155150000000 1.0
C      1  0.4407850000000  0.5589410000000  0.4313710000000 1.0
C      1  0.5474840000000  0.4706360000000  0.5904450000000 1.0
C      1  0.3986610000000  0.4646380000000  0.4750180000000 1.0
C      1  0.4927020000000  0.4541790000000  0.4191030000000 1.0
C      1  0.4379580000000  0.4789560000000  0.5283330000000 1.0
C      1  0.5421640000000  0.5704380000000  0.4354650000000 1.0
C      1  0.5006000000000  0.4248230000000  0.4137760000000 1.0
C      1  0.4178040000000  0.4477670000000  0.4852840000000 1.0
C      1  0.5186820000000  0.5134120000000  0.4579220000000 1.0
C      1  0.5541560000000  0.4675970000000  0.5578830000000 1.0
C      1  0.5455420000000  0.4514610000000  0.5319670000000 1.0
C      1  0.5461380000000  0.6006150000000  0.5089080000000 1.0
C      1  0.4579100000000  0.5254840000000  0.5977040000000 1.0
C      1  0.4431870000000  0.4745720000000  0.4520780000000 1.0
C      1  0.4797880000000  0.4726420000000  0.5326880000000 1.0
C      1  0.4913390000000  0.3907340000000  0.4889390000000 1.0
C      1  0.5250390000000  0.4431640000000  0.4562530000000 1.0
C      1  0.5931660000000  0.5340580000000  0.5425540000000 1.0
C      1  0.4941090000000  0.4425070000000  0.4490490000000 1.0
C      1  0.5047260000000  0.4598400000000  0.6180280000000 1.0
C      1  0.5571220000000  0.5126030000000  0.4843810000000 1.0
C      1  0.4114720000000  0.5631580000000  0.4701390000000 1.0
C      1  0.4024830000000  0.5013740000000  0.4349040000000 1.0
C      1  0.5303610000000  0.5744790000000  0.4965490000000 1.0
C      1  0.5096630000000  0.4200500000000  0.5782540000000 1.0
C      1  0.5127480000000  0.4581780000000  0.5670710000000 1.0
C      1  0.4038180000000  0.5269930000000  0.5436930000000 1.0
C      1  0.4557590000000  0.4882890000000  0.5697620000000 1.0
C      1  0.4997730000000  0.4890930000000  0.3896180000000 1.0
C      1  0.4947680000000  0.4323520000000  0.6015650000000 1.0
C      1  0.6179710000000  0.5008150000000  0.4945530000000 1.0
C      1  0.4223230000000  0.5328080000000  0.4721920000000 1.0
C      1  0.5645910000000  0.5250820000000  0.4438930000000 1.0
C      1  0.5147450000000  0.3960700000000  0.4679880000000 1.0
C      1  0.6206740000000  0.5097780000000  0.3906100000000 1.0
C      1  0.4145010000000  0.4404440000000  0.5126580000000 1.0
C      1  0.4239970000000  0.4878920000000  0.4198480000000 1.0
C      1  0.5640870000000  0.4504720000000  0.4538360000000 1.0
C      1  0.5041720000000  0.5224520000000  0.3887480000000 1.0
C      1  0.5833510000000  0.4564650000000  0.5475210000000 1.0
C      1  0.5510340000000  0.5715880000000  0.5564070000000 1.0
C      1  0.4549990000000  0.4088650000000  0.4201450000000 1.0
C      1  0.4731410000000  0.5076670000000  0.3928390000000 1.0
C      1  0.5956670000000  0.4954190000000  0.5156450000000 1.0
C      1  0.4509530000000  0.5582010000000  0.5955890000000 1.0
C      1  0.4771040000000  0.3821670000000  0.5336980000000 1.0
C      1  0.4825820000000  0.5671140000000  0.4948230000000 1.0
C      1  0.5352880000000  0.5474710000000  0.6048080000000 1.0
C      1  0.4553330000000  0.5814950000000  0.5020060000000 1.0
C      1  0.4951860000000  0.5124830000000  0.5612760000000 1.0
C      1  0.6116890000000  0.5084700000000  0.4618470000000 1.0
C      1  0.5565470000000  0.4637170000000  0.5050700000000 1.0
C      1  0.3890430000000  0.4920890000000  0.4919710000000 1.0
C      1  0.4265590000000  0.5780610000000  0.5484590000000 1.0
C      1  0.5033820000000  0.6105320000000  0.4780150000000 1.0
C      1  0.5260130000000  0.6099860000000  0.4606190000000 1.0
C      1  0.4100180000000  0.4635160000000  0.5322080000000 1.0
C      1  0.5560850000000  0.5295950000000  0.5283220000000 1.0
C      1  0.4568200000000  0.5785290000000  0.5329060000000 1.0
C      1  0.3891960000000  0.4856890000000  0.5222710000000 1.0
C      1  0.4102720000000  0.5984070000000  0.5515310000000 1.0
C      1  0.6039710000000  0.5303020000000  0.4942640000000 1.0
C      1  0.4841970000000  0.5419920000000  0.4395790000000 1.0
C      1  0.4635940000000  0.4028060000000  0.4488060000000 1.0
C      1  0.4646130000000  0.4563560000000  0.5091970000000 1.0
C      1  0.4692250000000  0.4241320000000  0.5625500000000 1.0
C      1  0.4647100000000  0.5702970000000  0.5709700000000 1.0
C      1  0.4997360000000  0.5677580000000  0.4247110000000 1.0
C      1  0.5889860000000  0.4865680000000  0.5626510000000 1.0
C      1  0.5533450000000  0.5474010000000  0.4127160000000 1.0
C      1  0.4798030000000  0.4860910000000  0.5870830000000 1.0
C      1  0.5230880000000  0.4225920000000  0.5477930000000 1.0
C      1  0.3985930000000  0.4994280000000  0.5477480000000 1.0
C      1  0.4737730000000  0.6070330000000  0.4927600000000 1.0
C      1  0.5610280000000  0.4091170000000  0.5069930000000 1.0
C      1  0.5157870000000  0.4742960000000  0.4120460000000 1.0
C      1  0.4479040000000  0.4486720000000  0.5354720000000 1.0
C      1  0.4013170000000  0.5298130000000  0.4327090000000 1.0
C      1  0.5064650000000  0.5356970000000  0.4891380000000 1.0
C      1  0.6126310000000  0.4762300000000  0.4730200000000 1.0
C      1  0.4910890000000  0.4007950000000  0.5566360000000 1.0
C      1  0.5784390000000  0.5544010000000  0.4353130000000 1.0
C      1  0.5196330000000  0.5910390000000  0.4350980000000 1.0
C      1  0.5781650000000  0.5668120000000  0.5105620000000 1.0
C      1  0.4602340000000  0.4986130000000  0.5403540000000 1.0
C      1  0.4477480000000  0.4070760000000  0.5008530000000 1.0
C      1  0.4136970000000  0.5544790000000  0.4398340000000 1.0
C      1  0.4929190000000  0.5441680000000  0.5162180000000 1.0
C      1  0.5459950000000  0.4749360000000  0.4091940000000 1.0
C      1  0.5061250000000  0.5515150000000  0.5900660000000 1.0
C      1  0.4337460000000  0.5041910000000  0.5856090000000 1.0
C      1  0.6035350000000  0.5311490000000  0.4375340000000 1.0
C      1  0.5298380000000  0.5232000000000  0.4210730000000 1.0
C      1  0.5064260000000  0.4681560000000  0.4813300000000 1.0
C      1  0.4796750000000  0.4965700000000  0.4726090000000 1.0
C      1  0.5353960000000  0.3902690000000  0.5146170000000 1.0
C      1  0.4352630000000  0.4219410000000  0.5596240000000 1.0
C      1  0.5180650000000  0.5042520000000  0.4859450000000 1.0
C      1  0.6047790000000  0.4521520000000  0.4820050000000 1.0
C      1  0.4562840000000  0.5716170000000  0.4548230000000 1.0
C      1  0.4937390000000  0.4209560000000  0.4907240000000 1.0
C      1  0.4765840000000  0.4664040000000  0.6077580000000 1.0
C      1  0.4769100000000  0.4822460000000  0.4153710000000 1.0
C      1  0.3902700000000  0.4888150000000  0.4571410000000 1.0
C      1  0.4889090000000  0.6021300000000  0.4418290000000 1.0
C      1  0.4663260000000  0.4321800000000  0.4911370000000 1.0
C      1  0.5754150000000  0.5102200000000  0.4183940000000 1.0
C      1  0.4345850000000  0.4278830000000  0.4382490000000 1.0
C      1  0.4270810000000  0.5365390000000  0.5873110000000 1.0
C      1  0.4070460000000  0.5326250000000  0.5163710000000 1.0
C      1  0.4760100000000  0.5078420000000  0.5048170000000 1.0
C      1  0.5469520000000  0.4454980000000  0.4822160000000 1.0
C      1  0.4782220000000  0.4103790000000  0.4035630000000 1.0
C      1  0.4357660000000  0.4890750000000  0.4782780000000 1.0
C      1  0.5042470000000  0.5820880000000  0.4865230000000 1.0
C      1  0.5475510000000  0.4944700000000  0.5453050000000 1.0
C      1  0.5225410000000  0.5251140000000  0.5746390000000 1.0
C      1  0.4783190000000  0.5983960000000  0.5572070000000 1.0
C      1  0.5657690000000  0.5425790000000  0.5557640000000 1.0
C      1  0.4412420000000  0.4118810000000  0.4677640000000 1.0
C      1  0.5713110000000  0.5124850000000  0.5086620000000 1.0
C      1  0.4214370000000  0.5462600000000  0.5591910000000 1.0
C      1  0.4181190000000  0.4515640000000  0.5619640000000 1.0
C      1  0.4526680000000  0.5409470000000  0.4650200000000 1.0
C      1  0.4837850000000  0.5283490000000  0.4703930000000 1.0
C      1  0.5062730000000  0.4740150000000  0.5136130000000 1.0
C      1  0.5875120000000  0.5318830000000  0.4670800000000 1.0
C      1  0.5600100000000  0.5644540000000  0.4857460000000 1.0
C      1  0.6033070000000  0.5152170000000  0.4106730000000 1.0
C      1  0.5555950000000  0.5002510000000  0.4009850000000 1.0
C      1  0.4697430000000  0.3856090000000  0.5074620000000 1.0
C      1  0.5680410000000  0.4961280000000  0.5812720000000 1.0
C      1  0.5243130000000  0.4840570000000  0.6084190000000 1.0
C      1  0.5180330000000  0.5174730000000  0.6068460000000 1.0
C      1  0.4463940000000  0.4508780000000  0.4741390000000 1.0
C      1  0.5540740000000  0.5615150000000  0.5888110000000 1.0
C      1  0.5205120000000  0.5772850000000  0.5496190000000 1.0
END
