TITL C-2778432-5617-417 -0.00659133614318373 125000 -805.095544044513 0 0 141 (C1) n - 1
REM
REM in /home/nfs/bkarasulu/CARBON/AIRSS/Generating-Clusters/REBO/Only-C1/SD-CG/HFTN-CG
REM
REM
REM
REM
REM
REM ./C.cell (11c1c37f851c82e70ff6c80c92926a4b)
REM
REM compiler GCC version 9.2.1 20190827 (Red Hat 9.2.1-1)
REM options -cpp -mtune=generic -march=x86-64 -g -O0 -fpre-include=/usr/include/finclude/math-vector-fortran.h
REM seed -695609495 1537029774 1708181781 1412062943 -1187261725 1911736943 -307530834 587430190 963556480 -2055332428 -98378927 -249345451 -752951670 814609647 2101508835 -1540225322 62186673 799662592 -1958158385 -568724352 1929105614 -1624855883 1728484458 1512389499 -56620950 1188814486 1415319242 1185866384 1786940082 217350595 1496086958 -1301627477 -490405059
REM
CELL 1.54180   50.00000   50.00000   50.00000   90.00000   90.00000   90.00000
LATT -1
SFAC C  
C      1  0.4470460000000  0.4572300000000  0.4193820000000 1.0
C      1  0.6076490000000  0.4942890000000  0.4865940000000 1.0
C      1  0.5439360000000  0.4175140000000  0.5471350000000 1.0
C      1  0.4296580000000  0.5231380000000  0.4954880000000 1.0
C      1  0.5596920000000  0.5241950000000  0.5684580000000 1.0
C      1  0.5133690000000  0.5818780000000  0.4498150000000 1.0
C      1  0.4463700000000  0.4619070000000  0.5383670000000 1.0
C      1  0.4456540000000  0.5714580000000  0.4446950000000 1.0
C      1  0.5050870000000  0.4968500000000  0.5957950000000 1.0
C      1  0.4232680000000  0.4668870000000  0.4389230000000 1.0
C      1  0.4967550000000  0.4303870000000  0.4423590000000 1.0
C      1  0.5124160000000  0.5947820000000  0.4816480000000 1.0
C      1  0.4561420000000  0.4951840000000  0.4498350000000 1.0
C      1  0.5817440000000  0.5416580000000  0.4986110000000 1.0
C      1  0.4901710000000  0.5271020000000  0.5327930000000 1.0
C      1  0.4579260000000  0.4505960000000  0.5104760000000 1.0
C      1  0.5639160000000  0.4784210000000  0.5583110000000 1.0
C      1  0.5152820000000  0.5106360000000  0.4073070000000 1.0
C      1  0.4361670000000  0.4286170000000  0.5188060000000 1.0
C      1  0.4722240000000  0.4432540000000  0.4232760000000 1.0
C      1  0.4962900000000  0.5715030000000  0.5667210000000 1.0
C      1  0.5321370000000  0.4386910000000  0.5721670000000 1.0
C      1  0.5370260000000  0.4877150000000  0.5227190000000 1.0
C      1  0.5319320000000  0.4849870000000  0.4754870000000 1.0
C      1  0.4202380000000  0.5546860000000  0.4866690000000 1.0
C      1  0.4322270000000  0.5799600000000  0.4713570000000 1.0
C      1  0.5248900000000  0.4893920000000  0.4443440000000 1.0
C      1  0.4253810000000  0.4529830000000  0.4876070000000 1.0
C      1  0.5539650000000  0.5388240000000  0.4285220000000 1.0
C      1  0.4111690000000  0.5353000000000  0.4627280000000 1.0
C      1  0.4741880000000  0.5353990000000  0.4760310000000 1.0
C      1  0.6059350000000  0.4707530000000  0.5432440000000 1.0
C      1  0.4115900000000  0.5027840000000  0.5263420000000 1.0
C      1  0.5603620000000  0.4465400000000  0.5547800000000 1.0
C      1  0.4589400000000  0.5261050000000  0.5899500000000 1.0
C      1  0.5584820000000  0.4319110000000  0.4891170000000 1.0
C      1  0.5127080000000  0.4630960000000  0.5024040000000 1.0
C      1  0.4527410000000  0.4756180000000  0.5915100000000 1.0
C      1  0.5056120000000  0.5442720000000  0.4649490000000 1.0
C      1  0.4184700000000  0.5049490000000  0.5601040000000 1.0
C      1  0.4969650000000  0.5921230000000  0.5128030000000 1.0
C      1  0.4445350000000  0.4558350000000  0.4591980000000 1.0
C      1  0.5270900000000  0.4086940000000  0.5183270000000 1.0
C      1  0.5291560000000  0.5250580000000  0.5583890000000 1.0
C      1  0.4677990000000  0.5899110000000  0.5066610000000 1.0
C      1  0.4947270000000  0.5445280000000  0.4126110000000 1.0
C      1  0.5244340000000  0.4401300000000  0.5329560000000 1.0
C      1  0.5987370000000  0.4622030000000  0.4820120000000 1.0
C      1  0.5011090000000  0.4488420000000  0.5831320000000 1.0
C      1  0.6035640000000  0.5011510000000  0.5425930000000 1.0
C      1  0.5238990000000  0.4580260000000  0.4317400000000 1.0
C      1  0.4589550000000  0.5643830000000  0.4852620000000 1.0
C      1  0.4553550000000  0.4300830000000  0.5468760000000 1.0
C      1  0.5421750000000  0.5241310000000  0.4043530000000 1.0
C      1  0.5411070000000  0.5631020000000  0.5583750000000 1.0
C      1  0.4642580000000  0.5447700000000  0.4384760000000 1.0
C      1  0.4947520000000  0.4664330000000  0.4252700000000 1.0
C      1  0.5555540000000  0.5593080000000  0.4857580000000 1.0
C      1  0.4837630000000  0.4760280000000  0.5945670000000 1.0
C      1  0.4831820000000  0.4157870000000  0.5411220000000 1.0
C      1  0.4173070000000  0.4709750000000  0.5391630000000 1.0
C      1  0.5492990000000  0.4996800000000  0.4249980000000 1.0
C      1  0.4901790000000  0.5711960000000  0.4794700000000 1.0
C      1  0.4753640000000  0.4978440000000  0.5102390000000 1.0
C      1  0.5221290000000  0.5719530000000  0.5034000000000 1.0
C      1  0.5851470000000  0.4327820000000  0.4831450000000 1.0
C      1  0.4013740000000  0.4949600000000  0.4942470000000 1.0
C      1  0.4241090000000  0.5128950000000  0.4250130000000 1.0
C      1  0.4693160000000  0.5026010000000  0.4014270000000 1.0
C      1  0.4356630000000  0.5324610000000  0.5697210000000 1.0
C      1  0.4960020000000  0.3975930000000  0.5201050000000 1.0
C      1  0.4472340000000  0.4912850000000  0.4183380000000 1.0
C      1  0.4118350000000  0.4687660000000  0.5055340000000 1.0
C      1  0.4306400000000  0.5415650000000  0.4370780000000 1.0
C      1  0.5371560000000  0.4123230000000  0.4866510000000 1.0
C      1  0.4943480000000  0.5108040000000  0.4861240000000 1.0
C      1  0.5051670000000  0.4279120000000  0.5568540000000 1.0
C      1  0.4851180000000  0.4470980000000  0.5263820000000 1.0
C      1  0.4621330000000  0.4719280000000  0.4906340000000 1.0
C      1  0.5225990000000  0.4773570000000  0.5656360000000 1.0
C      1  0.5884030000000  0.4769720000000  0.4558820000000 1.0
C      1  0.5585730000000  0.5648780000000  0.4370560000000 1.0
C      1  0.4957760000000  0.5523400000000  0.5126980000000 1.0
C      1  0.5531570000000  0.4689730000000  0.4248570000000 1.0
C      1  0.4046720000000  0.5071190000000  0.4683100000000 1.0
C      1  0.4723080000000  0.5414130000000  0.5565200000000 1.0
C      1  0.5510990000000  0.5767330000000  0.5140680000000 1.0
C      1  0.4697460000000  0.4187800000000  0.4838680000000 1.0
C      1  0.5740290000000  0.4937810000000  0.5364360000000 1.0
C      1  0.5558920000000  0.4949660000000  0.5791010000000 1.0
C      1  0.5445890000000  0.5725560000000  0.4596270000000 1.0
C      1  0.4928920000000  0.4782310000000  0.4805670000000 1.0
C      1  0.4430700000000  0.4985380000000  0.5125700000000 1.0
C      1  0.5743430000000  0.5026430000000  0.4660970000000 1.0
C      1  0.5888440000000  0.5278830000000  0.5508100000000 1.0
C      1  0.5233930000000  0.4204040000000  0.4614800000000 1.0
C      1  0.5393740000000  0.5359180000000  0.5045610000000 1.0
C      1  0.4347500000000  0.5613290000000  0.5167090000000 1.0
C      1  0.5053590000000  0.5719900000000  0.5393610000000 1.0
C      1  0.5773530000000  0.4625010000000  0.4354840000000 1.0
C      1  0.4807410000000  0.3964400000000  0.4972630000000 1.0
C      1  0.4450110000000  0.5589180000000  0.5493760000000 1.0
C      1  0.5754450000000  0.4638160000000  0.5062040000000 1.0
C      1  0.4742590000000  0.5307060000000  0.4004480000000 1.0
C      1  0.4912330000000  0.4390550000000  0.4736460000000 1.0
C      1  0.5020880000000  0.4328690000000  0.5029540000000 1.0
C      1  0.5054570000000  0.5016950000000  0.5497930000000 1.0
C      1  0.4874090000000  0.5441750000000  0.5849290000000 1.0
C      1  0.4447900000000  0.6011040000000  0.4919640000000 1.0
C      1  0.5559510000000  0.5126960000000  0.5157980000000 1.0
C      1  0.5087370000000  0.5229360000000  0.5841510000000 1.0
C      1  0.5926020000000  0.5194220000000  0.4867740000000 1.0
C      1  0.5262690000000  0.5197960000000  0.4772780000000 1.0
C      1  0.5727420000000  0.5552770000000  0.5629980000000 1.0
C      1  0.4673130000000  0.4802120000000  0.5549240000000 1.0
C      1  0.4636990000000  0.5429840000000  0.5178350000000 1.0
C      1  0.5859470000000  0.5478450000000  0.5260150000000 1.0
C      1  0.5439620000000  0.4598440000000  0.4950760000000 1.0
C      1  0.4303230000000  0.4784330000000  0.5708120000000 1.0
C      1  0.5707730000000  0.5721400000000  0.5334820000000 1.0
C      1  0.5644240000000  0.4920990000000  0.4940160000000 1.0
C      1  0.4753070000000  0.4693810000000  0.4531390000000 1.0
C      1  0.5286030000000  0.5474710000000  0.5341980000000 1.0
C      1  0.4403450000000  0.5281120000000  0.5370790000000 1.0
C      1  0.5847370000000  0.4553750000000  0.5334700000000 1.0
C      1  0.5097810000000  0.5520120000000  0.4335160000000 1.0
C      1  0.4763700000000  0.5183440000000  0.4478240000000 1.0
C      1  0.4937220000000  0.4890940000000  0.4048540000000 1.0
C      1  0.5511180000000  0.5179900000000  0.4537050000000 1.0
C      1  0.5326950000000  0.4838380000000  0.5943420000000 1.0
C      1  0.5305490000000  0.4679540000000  0.5390740000000 1.0
C      1  0.4112200000000  0.5365250000000  0.5209350000000 1.0
C      1  0.4760650000000  0.5080140000000  0.5666230000000 1.0
C      1  0.4123520000000  0.4927490000000  0.4438200000000 1.0
C      1  0.4948010000000  0.4797540000000  0.5260630000000 1.0
C      1  0.4447170000000  0.4292490000000  0.4793340000000 1.0
C      1  0.4797050000000  0.5738000000000  0.4474320000000 1.0
C      1  0.4744140000000  0.4522190000000  0.5643170000000 1.0
C      1  0.4419590000000  0.4964170000000  0.4782030000000 1.0
C      1  0.5027270000000  0.5105460000000  0.4372080000000 1.0
C      1  0.5200320000000  0.4547880000000  0.4635950000000 1.0
END
