TITL C-2778434-4341-1417 0.000627034075137819 125000 -172.079447948185 0 0 31 (C1) n - 1
REM
REM in /home/nfs/bkarasulu/CARBON/AIRSS/Generating-Clusters/REBO/Only-C1/SD-CG/HFTN-CG
REM
REM
REM
REM
REM
REM ./C.cell (11c1c37f851c82e70ff6c80c92926a4b)
REM
REM compiler GCC version 9.2.1 20190827 (Red Hat 9.2.1-1)
REM options -cpp -mtune=generic -march=x86-64 -g -O0 -fpre-include=/usr/include/finclude/math-vector-fortran.h
REM seed -1427885592 221280265 489517759 -622659459 668807179 1954489332 2133366975 -1397669632 951482586 -1154590826 -1216570429 181476244 -680306164 1668481575 943070216 -851140409 1580520919 1968851361 -10853192 -525237675 1860851673 -749575990 -868398489 -685575948 1499613827 -1478500010 202778734 -883212057 -1715872971 160589322 -1108116895 -290473258 904226405
REM
CELL 1.54180   50.00000   50.00000   50.00000   90.00000   90.00000   90.00000
LATT -1
SFAC C  
C      1  0.4706780000000  0.5390190000000  0.5284930000000 1.0
C      1  0.5281330000000  0.4604830000000  0.4487360000000 1.0
C      1  0.5428910000000  0.4745460000000  0.5354000000000 1.0
C      1  0.5159390000000  0.5494400000000  0.4882240000000 1.0
C      1  0.5099950000000  0.5097710000000  0.5368560000000 1.0
C      1  0.4750210000000  0.4381110000000  0.5224390000000 1.0
C      1  0.5303050000000  0.4875200000000  0.4518700000000 1.0
C      1  0.4995120000000  0.5357370000000  0.5315110000000 1.0
C      1  0.5120420000000  0.5016250000000  0.4757270000000 1.0
C      1  0.4432960000000  0.4686110000000  0.5114400000000 1.0
C      1  0.4553120000000  0.5397720000000  0.4565160000000 1.0
C      1  0.4516290000000  0.4995730000000  0.5077120000000 1.0
C      1  0.4283130000000  0.5418320000000  0.4597530000000 1.0
C      1  0.4988980000000  0.4792890000000  0.4923620000000 1.0
C      1  0.5384710000000  0.5038300000000  0.5313520000000 1.0
C      1  0.4671680000000  0.5445160000000  0.4324200000000 1.0
C      1  0.5186950000000  0.4543270000000  0.4982060000000 1.0
C      1  0.5614450000000  0.4778070000000  0.4916920000000 1.0
C      1  0.5157510000000  0.5530390000000  0.5156060000000 1.0
C      1  0.5465610000000  0.4628060000000  0.5092320000000 1.0
C      1  0.4963910000000  0.4844920000000  0.5409010000000 1.0
C      1  0.4729850000000  0.4769190000000  0.5002470000000 1.0
C      1  0.4552880000000  0.5515740000000  0.5470320000000 1.0
C      1  0.4999070000000  0.5290980000000  0.4765110000000 1.0
C      1  0.5457090000000  0.5022850000000  0.4778840000000 1.0
C      1  0.4968280000000  0.4547560000000  0.5238300000000 1.0
C      1  0.5222900000000  0.4428090000000  0.4691480000000 1.0
C      1  0.5507290000000  0.5147530000000  0.5077240000000 1.0
C      1  0.4595840000000  0.5263360000000  0.5046820000000 1.0
C      1  0.4714270000000  0.5325320000000  0.4787140000000 1.0
C      1  0.5188070000000  0.4627900000000  0.5477830000000 1.0
END
