TITL C-2778434-4341-810 0.00298265831458425 125000 -610.803634173748 0 0 105 (C1) n - 1
REM
REM in /home/nfs/bkarasulu/CARBON/AIRSS/Generating-Clusters/REBO/Only-C1/SD-CG/HFTN-CG
REM
REM
REM
REM
REM
REM ./C.cell (11c1c37f851c82e70ff6c80c92926a4b)
REM
REM compiler GCC version 9.2.1 20190827 (Red Hat 9.2.1-1)
REM options -cpp -mtune=generic -march=x86-64 -g -O0 -fpre-include=/usr/include/finclude/math-vector-fortran.h
REM seed 368103033 -1480415041 -758393502 2087028640 -982491088 -1354764048 2118061798 -54060793 1161115475 833131246 1887128085 348521424 -2027409134 252435738 881618143 -684249498 1957767842 -2122025903 2029141255 2076850892 2052628733 848356319 -1887398873 -1397972462 -279262794 -1786201033 -153884908 190958624 882462758 -1468705720 -1096479926 -2061356119 1598239022
REM
CELL 1.54180   50.00000   50.00000   50.00000   90.00000   90.00000   90.00000
LATT -1
SFAC C  
C      1  0.4719660000000  0.5696580000000  0.4859400000000 1.0
C      1  0.5006720000000  0.5383460000000  0.4999240000000 1.0
C      1  0.5311910000000  0.4693400000000  0.5243640000000 1.0
C      1  0.5438520000000  0.5268430000000  0.4627290000000 1.0
C      1  0.5307510000000  0.5456360000000  0.5119050000000 1.0
C      1  0.5252860000000  0.4487850000000  0.4906240000000 1.0
C      1  0.4876330000000  0.5985250000000  0.4816820000000 1.0
C      1  0.5041190000000  0.5515840000000  0.5702580000000 1.0
C      1  0.4183870000000  0.4778690000000  0.5170100000000 1.0
C      1  0.5164660000000  0.4258040000000  0.4560630000000 1.0
C      1  0.5194840000000  0.5127620000000  0.4191730000000 1.0
C      1  0.4741280000000  0.5368100000000  0.5773370000000 1.0
C      1  0.5513850000000  0.4939890000000  0.5199750000000 1.0
C      1  0.4505800000000  0.5339470000000  0.4287700000000 1.0
C      1  0.4674700000000  0.4761840000000  0.5779990000000 1.0
C      1  0.4474510000000  0.5468780000000  0.5338660000000 1.0
C      1  0.5188560000000  0.5189310000000  0.5296110000000 1.0
C      1  0.5462780000000  0.5784710000000  0.4798680000000 1.0
C      1  0.5175780000000  0.5971330000000  0.4814380000000 1.0
C      1  0.5581830000000  0.4274780000000  0.4974430000000 1.0
C      1  0.4518680000000  0.5020330000000  0.4313580000000 1.0
C      1  0.4888890000000  0.5930480000000  0.5364780000000 1.0
C      1  0.5140730000000  0.4835930000000  0.4136700000000 1.0
C      1  0.4191440000000  0.4938530000000  0.4690790000000 1.0
C      1  0.4879030000000  0.4324240000000  0.5216920000000 1.0
C      1  0.4906600000000  0.5113010000000  0.5450390000000 1.0
C      1  0.5191260000000  0.4046220000000  0.5277440000000 1.0
C      1  0.4298170000000  0.5143280000000  0.5488400000000 1.0
C      1  0.4993880000000  0.5300950000000  0.5951980000000 1.0
C      1  0.5592370000000  0.4509440000000  0.5221940000000 1.0
C      1  0.4516730000000  0.5316820000000  0.5634920000000 1.0
C      1  0.4670360000000  0.4849580000000  0.5267510000000 1.0
C      1  0.4352330000000  0.4832790000000  0.4444120000000 1.0
C      1  0.4559470000000  0.4439190000000  0.5423960000000 1.0
C      1  0.5190040000000  0.5096720000000  0.4994680000000 1.0
C      1  0.4938180000000  0.4636570000000  0.5877600000000 1.0
C      1  0.4735420000000  0.4470720000000  0.4411520000000 1.0
C      1  0.5426390000000  0.4697290000000  0.4766860000000 1.0
C      1  0.4481000000000  0.4559150000000  0.4536250000000 1.0
C      1  0.4562370000000  0.4355350000000  0.5093720000000 1.0
C      1  0.5497890000000  0.5497040000000  0.4882480000000 1.0
C      1  0.4892110000000  0.4642840000000  0.4160110000000 1.0
C      1  0.5326060000000  0.5700280000000  0.5322350000000 1.0
C      1  0.5461480000000  0.5144760000000  0.4317760000000 1.0
C      1  0.4758410000000  0.4210340000000  0.4855840000000 1.0
C      1  0.4821460000000  0.4761380000000  0.4995280000000 1.0
C      1  0.5598660000000  0.4572680000000  0.4532260000000 1.0
C      1  0.4886260000000  0.4274230000000  0.4603430000000 1.0
C      1  0.5267630000000  0.4156910000000  0.4961990000000 1.0
C      1  0.4054810000000  0.4874640000000  0.4933180000000 1.0
C      1  0.5388900000000  0.4693310000000  0.4205310000000 1.0
C      1  0.5727700000000  0.5185550000000  0.4793930000000 1.0
C      1  0.5453740000000  0.5038590000000  0.5526030000000 1.0
C      1  0.5003600000000  0.4954520000000  0.4557210000000 1.0
C      1  0.5381380000000  0.4406280000000  0.4348410000000 1.0
C      1  0.5157470000000  0.5455510000000  0.4582730000000 1.0
C      1  0.5179620000000  0.5077730000000  0.5929670000000 1.0
C      1  0.5207850000000  0.4313220000000  0.5475370000000 1.0
C      1  0.5376220000000  0.4746280000000  0.5650230000000 1.0
C      1  0.4837020000000  0.5131230000000  0.4368080000000 1.0
C      1  0.4948090000000  0.4368350000000  0.5773980000000 1.0
C      1  0.4491880000000  0.5060860000000  0.4737910000000 1.0
C      1  0.5592480000000  0.4886780000000  0.4285580000000 1.0
C      1  0.4779060000000  0.5879040000000  0.4508910000000 1.0
C      1  0.4454120000000  0.4652040000000  0.5094210000000 1.0
C      1  0.5172180000000  0.4804950000000  0.5876880000000 1.0
C      1  0.4282420000000  0.4856980000000  0.5445070000000 1.0
C      1  0.5012300000000  0.5388820000000  0.4282570000000 1.0
C      1  0.4279810000000  0.4336540000000  0.4583350000000 1.0
C      1  0.5297550000000  0.5290860000000  0.5688810000000 1.0
C      1  0.5617710000000  0.4903660000000  0.4924450000000 1.0
C      1  0.4649780000000  0.5285470000000  0.4581100000000 1.0
C      1  0.4869510000000  0.4800080000000  0.5519480000000 1.0
C      1  0.5651580000000  0.4696340000000  0.5480650000000 1.0
C      1  0.4813620000000  0.4310320000000  0.5534870000000 1.0
C      1  0.4548220000000  0.4745790000000  0.4790190000000 1.0
C      1  0.4946960000000  0.5429440000000  0.5325300000000 1.0
C      1  0.4743330000000  0.5917610000000  0.5122910000000 1.0
C      1  0.5752240000000  0.5382180000000  0.5050290000000 1.0
C      1  0.5706650000000  0.5317780000000  0.5326450000000 1.0
C      1  0.5116060000000  0.4618740000000  0.5500070000000 1.0
C      1  0.5490780000000  0.4285890000000  0.4658700000000 1.0
C      1  0.4470960000000  0.4672440000000  0.5567190000000 1.0
C      1  0.5026530000000  0.4571880000000  0.5103630000000 1.0
C      1  0.5360990000000  0.5915250000000  0.5094640000000 1.0
C      1  0.4655410000000  0.5198310000000  0.4969950000000 1.0
C      1  0.4353980000000  0.5346150000000  0.4978430000000 1.0
C      1  0.4962470000000  0.4051490000000  0.5042490000000 1.0
C      1  0.5771500000000  0.5008500000000  0.5414940000000 1.0
C      1  0.5479910000000  0.4211810000000  0.5295070000000 1.0
C      1  0.5245770000000  0.5773140000000  0.4548590000000 1.0
C      1  0.4634820000000  0.5185130000000  0.5277800000000 1.0
C      1  0.5283300000000  0.4985270000000  0.4721320000000 1.0
C      1  0.4854500000000  0.5456140000000  0.4739240000000 1.0
C      1  0.4983600000000  0.4677720000000  0.4467840000000 1.0
C      1  0.4329270000000  0.5613870000000  0.4855330000000 1.0
C      1  0.5042580000000  0.5708000000000  0.5454600000000 1.0
C      1  0.4201690000000  0.5294910000000  0.5238010000000 1.0
C      1  0.5495120000000  0.5450060000000  0.5470470000000 1.0
C      1  0.4970150000000  0.5719210000000  0.4358650000000 1.0
C      1  0.5879110000000  0.4917140000000  0.4703610000000 1.0
C      1  0.4415390000000  0.5539110000000  0.4129980000000 1.0
C      1  0.4515190000000  0.5678940000000  0.5130910000000 1.0
C      1  0.5812370000000  0.4780860000000  0.4462310000000 1.0
C      1  0.4910260000000  0.5022480000000  0.4857740000000 1.0
END
