TITL C-2778435-5768-419 0.00290300768776372 125000 -294.404455714879 0 0 52 (C1) n - 1
REM
REM in /home/nfs/bkarasulu/CARBON/AIRSS/Generating-Clusters/REBO/Only-C1/SD-CG/HFTN-CG
REM
REM
REM
REM
REM
REM ./C.cell (11c1c37f851c82e70ff6c80c92926a4b)
REM
REM compiler GCC version 9.2.1 20190827 (Red Hat 9.2.1-1)
REM options -cpp -mtune=generic -march=x86-64 -g -O0 -fpre-include=/usr/include/finclude/math-vector-fortran.h
REM seed -461930247 -610465526 405978559 -2084145338 -384011736 925967905 1201825807 -1020464813 860871629 -734829383 1835973379 1588885513 -1188568813 -1698692427 -370219887 -2031124818 -12889189 789966586 -1801668843 -603505103 -1148304685 272011005 -1588555064 14198784 -8356031 -1436910249 -1579786604 417115461 823267944 1799249134 -1710817412 -1541066210 -1862023746
REM
CELL 1.54180   50.00000   50.00000   50.00000   90.00000   90.00000   90.00000
LATT -1
SFAC C  
C      1  0.5462740000000  0.4361990000000  0.4880520000000 1.0
C      1  0.4414100000000  0.4847740000000  0.4583980000000 1.0
C      1  0.5593390000000  0.5329360000000  0.4920370000000 1.0
C      1  0.4408930000000  0.5727420000000  0.4783010000000 1.0
C      1  0.5153130000000  0.5695170000000  0.4953370000000 1.0
C      1  0.5566280000000  0.4886730000000  0.5410170000000 1.0
C      1  0.5550890000000  0.5011430000000  0.5693280000000 1.0
C      1  0.4593410000000  0.5111330000000  0.4631390000000 1.0
C      1  0.4648430000000  0.5600620000000  0.4732320000000 1.0
C      1  0.5184260000000  0.4338220000000  0.4833620000000 1.0
C      1  0.5421780000000  0.5373620000000  0.5190110000000 1.0
C      1  0.4678780000000  0.5255410000000  0.4161150000000 1.0
C      1  0.4403490000000  0.4791720000000  0.5073910000000 1.0
C      1  0.4971340000000  0.5202850000000  0.5004430000000 1.0
C      1  0.5021300000000  0.4331490000000  0.5075910000000 1.0
C      1  0.4845030000000  0.4801160000000  0.4350260000000 1.0
C      1  0.5027980000000  0.4722600000000  0.5511100000000 1.0
C      1  0.5140460000000  0.5452760000000  0.5143940000000 1.0
C      1  0.4675590000000  0.5500610000000  0.5767770000000 1.0
C      1  0.4462960000000  0.5032620000000  0.4937430000000 1.0
C      1  0.4947720000000  0.4644810000000  0.5188880000000 1.0
C      1  0.4834080000000  0.4278840000000  0.5359330000000 1.0
C      1  0.4802170000000  0.4575290000000  0.4533690000000 1.0
C      1  0.5536580000000  0.5367180000000  0.4648690000000 1.0
C      1  0.5125550000000  0.4915170000000  0.4389950000000 1.0
C      1  0.4865450000000  0.5377120000000  0.5310330000000 1.0
C      1  0.5264100000000  0.4683440000000  0.4499560000000 1.0
C      1  0.4452300000000  0.4819210000000  0.5351880000000 1.0
C      1  0.4861410000000  0.5707540000000  0.4581910000000 1.0
C      1  0.5241210000000  0.4865700000000  0.5342610000000 1.0
C      1  0.5106800000000  0.5209320000000  0.4454540000000 1.0
C      1  0.5410250000000  0.4837460000000  0.5045620000000 1.0
C      1  0.5321480000000  0.5121790000000  0.5787030000000 1.0
C      1  0.5692940000000  0.4625250000000  0.5287150000000 1.0
C      1  0.5122400000000  0.5646440000000  0.4673980000000 1.0
C      1  0.4705340000000  0.4777760000000  0.5559250000000 1.0
C      1  0.4832380000000  0.4462580000000  0.5584200000000 1.0
C      1  0.5070230000000  0.5203910000000  0.5751250000000 1.0
C      1  0.5728340000000  0.5341940000000  0.4456630000000 1.0
C      1  0.4705920000000  0.5325680000000  0.4837380000000 1.0
C      1  0.4703170000000  0.4428490000000  0.5086500000000 1.0
C      1  0.4629910000000  0.5090980000000  0.5455880000000 1.0
C      1  0.5583050000000  0.5092280000000  0.5154510000000 1.0
C      1  0.4542690000000  0.4602810000000  0.4664070000000 1.0
C      1  0.4815820000000  0.5310980000000  0.5616610000000 1.0
C      1  0.5081170000000  0.4923630000000  0.5047020000000 1.0
C      1  0.4605030000000  0.5239840000000  0.5150420000000 1.0
C      1  0.4496330000000  0.4557720000000  0.4939920000000 1.0
C      1  0.5077000000000  0.4486770000000  0.4616930000000 1.0
C      1  0.5572480000000  0.4569530000000  0.5031780000000 1.0
C      1  0.5257850000000  0.5412310000000  0.4569280000000 1.0
C      1  0.4784600000000  0.5123390000000  0.4385220000000 1.0
END
