TITL C-2778427-5640-1407 0.00284642970142871 125000 -689.551765200451 0 0 119 (C1) n - 1
REM
REM in /home/nfs/bkarasulu/CARBON/AIRSS/Generating-Clusters/REBO/Only-C1/SD-CG/HFTN-CG
REM
REM
REM
REM
REM
REM ./C.cell (11c1c37f851c82e70ff6c80c92926a4b)
REM
REM compiler GCC version 9.2.1 20190827 (Red Hat 9.2.1-1)
REM options -cpp -mtune=generic -march=x86-64 -g -O0 -fpre-include=/usr/include/finclude/math-vector-fortran.h
REM seed -240732822 -94884247 564600246 670053466 -1104877313 586567582 -1695462248 60278033 877156890 -306506969 1023936670 -1022175272 436432270 1680226809 -1084695900 1499427451 1307636610 -1308199705 410723772 1517356326 118030235 1745112329 -1408536192 362922787 -1962016735 -176394077 -485531451 1588696180 -997681583 -931996534 67959640 33155654 -1395363389
REM
CELL 1.54180   50.00000   50.00000   50.00000   90.00000   90.00000   90.00000
LATT -1
SFAC C  
C      1  0.4519010000000  0.5564970000000  0.5484230000000 1.0
C      1  0.4755970000000  0.4051130000000  0.5185570000000 1.0
C      1  0.5731500000000  0.5235790000000  0.5568580000000 1.0
C      1  0.4474340000000  0.5701100000000  0.4847160000000 1.0
C      1  0.5037530000000  0.5804250000000  0.4355650000000 1.0
C      1  0.4815450000000  0.5525120000000  0.5648330000000 1.0
C      1  0.4676440000000  0.4659260000000  0.4588680000000 1.0
C      1  0.4038170000000  0.5347310000000  0.4750340000000 1.0
C      1  0.4757440000000  0.5287580000000  0.4261790000000 1.0
C      1  0.6175830000000  0.4816680000000  0.4973490000000 1.0
C      1  0.5019250000000  0.4225490000000  0.3891010000000 1.0
C      1  0.4669980000000  0.5283980000000  0.5804150000000 1.0
C      1  0.5813120000000  0.5555560000000  0.5507670000000 1.0
C      1  0.5777220000000  0.5397440000000  0.4903780000000 1.0
C      1  0.5084100000000  0.4339150000000  0.4599600000000 1.0
C      1  0.5271460000000  0.5596230000000  0.5347830000000 1.0
C      1  0.4794540000000  0.5479230000000  0.5211450000000 1.0
C      1  0.5589550000000  0.5216990000000  0.5120050000000 1.0
C      1  0.4795690000000  0.5682890000000  0.4870770000000 1.0
C      1  0.4588520000000  0.4787210000000  0.4220390000000 1.0
C      1  0.5211140000000  0.5369710000000  0.4889450000000 1.0
C      1  0.4400610000000  0.4880140000000  0.4402240000000 1.0
C      1  0.5525300000000  0.4702740000000  0.5187770000000 1.0
C      1  0.5320390000000  0.5660480000000  0.4815860000000 1.0
C      1  0.3987140000000  0.4982940000000  0.5136800000000 1.0
C      1  0.4080240000000  0.4924710000000  0.5411810000000 1.0
C      1  0.5231850000000  0.4271350000000  0.4363310000000 1.0
C      1  0.5721720000000  0.4912090000000  0.5121040000000 1.0
C      1  0.5171110000000  0.4613040000000  0.4737110000000 1.0
C      1  0.4417560000000  0.5178170000000  0.5675380000000 1.0
C      1  0.4357610000000  0.5447380000000  0.4717130000000 1.0
C      1  0.4643640000000  0.4195620000000  0.4490580000000 1.0
C      1  0.4889610000000  0.4542330000000  0.5739230000000 1.0
C      1  0.5206040000000  0.4574010000000  0.5673290000000 1.0
C      1  0.6218860000000  0.4819810000000  0.5245750000000 1.0
C      1  0.4673640000000  0.5062660000000  0.5471420000000 1.0
C      1  0.5486310000000  0.4555390000000  0.5489820000000 1.0
C      1  0.5270550000000  0.5162340000000  0.4638820000000 1.0
C      1  0.4481420000000  0.5189010000000  0.4438460000000 1.0
C      1  0.4833630000000  0.4806370000000  0.5948440000000 1.0
C      1  0.4931860000000  0.4819560000000  0.4712440000000 1.0
C      1  0.4986890000000  0.5035740000000  0.4498830000000 1.0
C      1  0.4173910000000  0.4488690000000  0.4821160000000 1.0
C      1  0.5444770000000  0.4567370000000  0.4114160000000 1.0
C      1  0.4823070000000  0.5781790000000  0.5343310000000 1.0
C      1  0.5507850000000  0.5677980000000  0.4549430000000 1.0
C      1  0.5214530000000  0.5788030000000  0.5072260000000 1.0
C      1  0.5103590000000  0.4384960000000  0.5175070000000 1.0
C      1  0.5199560000000  0.4717500000000  0.3987250000000 1.0
C      1  0.5070590000000  0.4954070000000  0.4016110000000 1.0
C      1  0.5077990000000  0.5258790000000  0.4135090000000 1.0
C      1  0.4823300000000  0.4033040000000  0.4908760000000 1.0
C      1  0.5000410000000  0.5358850000000  0.4561850000000 1.0
C      1  0.5747730000000  0.5286080000000  0.4620930000000 1.0
C      1  0.5502270000000  0.5522340000000  0.5642540000000 1.0
C      1  0.4317120000000  0.4846330000000  0.4921710000000 1.0
C      1  0.4182830000000  0.5351740000000  0.4447790000000 1.0
C      1  0.5246760000000  0.4590040000000  0.5024300000000 1.0
C      1  0.4283490000000  0.4730740000000  0.4607540000000 1.0
C      1  0.4442950000000  0.5204680000000  0.5043070000000 1.0
C      1  0.5054990000000  0.5827730000000  0.5436000000000 1.0
C      1  0.4545070000000  0.4456160000000  0.4440100000000 1.0
C      1  0.4831280000000  0.5579940000000  0.4404690000000 1.0
C      1  0.5572990000000  0.5427380000000  0.4440720000000 1.0
C      1  0.5610340000000  0.4805700000000  0.5682440000000 1.0
C      1  0.4301410000000  0.5416490000000  0.5265610000000 1.0
C      1  0.5919810000000  0.5195400000000  0.5138130000000 1.0
C      1  0.5232260000000  0.4846430000000  0.5224540000000 1.0
C      1  0.4633090000000  0.4845510000000  0.5710670000000 1.0
C      1  0.4480320000000  0.4151400000000  0.5228280000000 1.0
C      1  0.5918420000000  0.4883690000000  0.4876960000000 1.0
C      1  0.6037740000000  0.5356090000000  0.5346150000000 1.0
C      1  0.5809870000000  0.4997350000000  0.4646120000000 1.0
C      1  0.5516790000000  0.5075340000000  0.4260470000000 1.0
C      1  0.5831260000000  0.4963750000000  0.5586190000000 1.0
C      1  0.5392510000000  0.5008100000000  0.5834800000000 1.0
C      1  0.5133260000000  0.4832070000000  0.5860680000000 1.0
C      1  0.5282720000000  0.4286730000000  0.5433960000000 1.0
C      1  0.4873400000000  0.5129560000000  0.5921280000000 1.0
C      1  0.4787100000000  0.5039420000000  0.4928150000000 1.0
C      1  0.5135720000000  0.5231720000000  0.5864510000000 1.0
C      1  0.4999610000000  0.4117090000000  0.5348420000000 1.0
C      1  0.4865020000000  0.4167090000000  0.4665850000000 1.0
C      1  0.5325690000000  0.5319220000000  0.5166990000000 1.0
C      1  0.5415670000000  0.5207740000000  0.5585880000000 1.0
C      1  0.5425580000000  0.4687870000000  0.4573740000000 1.0
C      1  0.5544100000000  0.4519870000000  0.4376040000000 1.0
C      1  0.5529660000000  0.4220430000000  0.4425610000000 1.0
C      1  0.5818720000000  0.5744570000000  0.5250690000000 1.0
C      1  0.4962460000000  0.5872550000000  0.4980650000000 1.0
C      1  0.4586070000000  0.4700400000000  0.4867100000000 1.0
C      1  0.4392470000000  0.4281720000000  0.5466440000000 1.0
C      1  0.5166190000000  0.4384810000000  0.4058410000000 1.0
C      1  0.6067000000000  0.4878460000000  0.5463410000000 1.0
C      1  0.4197180000000  0.4980460000000  0.5671570000000 1.0
C      1  0.5346620000000  0.5319240000000  0.4227440000000 1.0
C      1  0.4316320000000  0.4764450000000  0.5239720000000 1.0
C      1  0.5239210000000  0.5829860000000  0.4530340000000 1.0
C      1  0.4572160000000  0.5216560000000  0.4748810000000 1.0
C      1  0.5153790000000  0.5188010000000  0.5412020000000 1.0
C      1  0.5805520000000  0.5687050000000  0.5006480000000 1.0
C      1  0.4585720000000  0.5717340000000  0.4533860000000 1.0
C      1  0.3996010000000  0.4743590000000  0.4947990000000 1.0
C      1  0.4837540000000  0.4959830000000  0.4226860000000 1.0
C      1  0.4614360000000  0.4472730000000  0.5033450000000 1.0
C      1  0.5507420000000  0.4972900000000  0.4557170000000 1.0
C      1  0.4508350000000  0.5646640000000  0.5151540000000 1.0
C      1  0.4357280000000  0.4313450000000  0.4981990000000 1.0
C      1  0.4796550000000  0.4444440000000  0.5245810000000 1.0
C      1  0.4875170000000  0.5279790000000  0.5434030000000 1.0
C      1  0.4323810000000  0.4495130000000  0.4286880000000 1.0
C      1  0.5157600000000  0.5502710000000  0.5658560000000 1.0
C      1  0.4584520000000  0.4964030000000  0.5194140000000 1.0
C      1  0.4896750000000  0.5363030000000  0.4929220000000 1.0
C      1  0.5173870000000  0.4882290000000  0.5525030000000 1.0
C      1  0.4744480000000  0.4462770000000  0.5523330000000 1.0
C      1  0.4333990000000  0.4555750000000  0.5483830000000 1.0
C      1  0.4367950000000  0.4732290000000  0.5712390000000 1.0
C      1  0.4114340000000  0.5241910000000  0.5040080000000 1.0
END
