TITL C-2778437-8639-1452 -0.00194360356275629 125000 -264.290452321042 0 0 46 (C1) n - 1
REM
REM in /home/nfs/bkarasulu/CARBON/AIRSS/Generating-Clusters/REBO/Only-C1/SD-CG/HFTN-CG
REM
REM
REM
REM
REM
REM ./C.cell (11c1c37f851c82e70ff6c80c92926a4b)
REM
REM compiler GCC version 9.2.1 20190827 (Red Hat 9.2.1-1)
REM options -cpp -mtune=generic -march=x86-64 -g -O0 -fpre-include=/usr/include/finclude/math-vector-fortran.h
REM seed 300324520 -54280605 -1109169643 -1114816883 -2031736682 -236534410 2073865935 -1040276902 -694223388 895346068 -708494810 1858801968 738075785 931980456 -1244446657 1933370258 165237565 -503199458 -1814333543 -498273983 -105730570 -919778309 1143830227 528339625 634926789 -1004459713 1936874444 -1420640487 -1180159282 -1198641132 -586219124 234559422 -567132327
REM
CELL 1.54180   50.00000   50.00000   50.00000   90.00000   90.00000   90.00000
LATT -1
SFAC C  
C      1  0.4956960000000  0.4409200000000  0.4762630000000 1.0
C      1  0.5195540000000  0.4848380000000  0.4911060000000 1.0
C      1  0.5534070000000  0.5001510000000  0.5397690000000 1.0
C      1  0.5535450000000  0.4763860000000  0.4564670000000 1.0
C      1  0.4903810000000  0.4376340000000  0.5336740000000 1.0
C      1  0.5741350000000  0.4772930000000  0.4740120000000 1.0
C      1  0.4568100000000  0.5212780000000  0.5614170000000 1.0
C      1  0.4561210000000  0.5144930000000  0.4466420000000 1.0
C      1  0.5091320000000  0.4852690000000  0.5421930000000 1.0
C      1  0.5162420000000  0.5917590000000  0.4881440000000 1.0
C      1  0.5221330000000  0.5748120000000  0.4679070000000 1.0
C      1  0.5320080000000  0.4651040000000  0.5133760000000 1.0
C      1  0.5155610000000  0.4540260000000  0.5411270000000 1.0
C      1  0.5170310000000  0.5500390000000  0.4586830000000 1.0
C      1  0.4758040000000  0.4708330000000  0.4591060000000 1.0
C      1  0.4889580000000  0.4746410000000  0.5197290000000 1.0
C      1  0.4652530000000  0.4441810000000  0.4699150000000 1.0
C      1  0.4939340000000  0.5723640000000  0.5296950000000 1.0
C      1  0.4665090000000  0.5327190000000  0.5385590000000 1.0
C      1  0.5036890000000  0.4484710000000  0.5037170000000 1.0
C      1  0.5557810000000  0.5698730000000  0.5635420000000 1.0
C      1  0.5374240000000  0.5527870000000  0.5559340000000 1.0
C      1  0.4306430000000  0.4708020000000  0.4949160000000 1.0
C      1  0.4621600000000  0.5383920000000  0.4888280000000 1.0
C      1  0.5580440000000  0.4790190000000  0.5210590000000 1.0
C      1  0.4437820000000  0.4967120000000  0.5105040000000 1.0
C      1  0.4953370000000  0.5224900000000  0.5044670000000 1.0
C      1  0.5130250000000  0.4490770000000  0.4543240000000 1.0
C      1  0.5777620000000  0.4783710000000  0.5010250000000 1.0
C      1  0.5260490000000  0.5071320000000  0.5454780000000 1.0
C      1  0.5177030000000  0.5344330000000  0.5477610000000 1.0
C      1  0.4422080000000  0.4719180000000  0.5330040000000 1.0
C      1  0.4924130000000  0.5459140000000  0.5394920000000 1.0
C      1  0.5038080000000  0.5902350000000  0.5121200000000 1.0
C      1  0.5254470000000  0.4757940000000  0.4526170000000 1.0
C      1  0.4729410000000  0.5296720000000  0.4638650000000 1.0
C      1  0.4649470000000  0.4564040000000  0.5336680000000 1.0
C      1  0.5183830000000  0.4310250000000  0.4344790000000 1.0
C      1  0.5122210000000  0.5010530000000  0.4520010000000 1.0
C      1  0.4404450000000  0.4480370000000  0.4832290000000 1.0
C      1  0.4528800000000  0.5279030000000  0.5137400000000 1.0
C      1  0.4600800000000  0.4876670000000  0.4429030000000 1.0
C      1  0.4924660000000  0.4811390000000  0.4804380000000 1.0
C      1  0.5014370000000  0.5267090000000  0.4579630000000 1.0
C      1  0.5211950000000  0.5130810000000  0.4983920000000 1.0
C      1  0.4755150000000  0.4971520000000  0.5027510000000 1.0
END
