TITL C-2778437-8639-188 0.00593088222119781 125000 -695.012692206862 0 0 117 (C1) n - 1
REM
REM in /home/nfs/bkarasulu/CARBON/AIRSS/Generating-Clusters/REBO/Only-C1/SD-CG/HFTN-CG
REM
REM
REM
REM
REM
REM ./C.cell (11c1c37f851c82e70ff6c80c92926a4b)
REM
REM compiler GCC version 9.2.1 20190827 (Red Hat 9.2.1-1)
REM options -cpp -mtune=generic -march=x86-64 -g -O0 -fpre-include=/usr/include/finclude/math-vector-fortran.h
REM seed -2133716661 -652209215 -1199633330 -1994227338 1800879206 2058710464 1954107894 782326866 -1866336453 -1858081862 476370976 -697880312 366909273 -22517341 100420717 -1150175834 1712483461 -475157986 -527917024 211147166 -92379017 -410431927 1965871321 2029997215 -21628065 1457232508 -746051011 1629348136 -1161043160 173661355 -1001177961 -1602212876 1877829651
REM
CELL 1.54180   50.00000   50.00000   50.00000   90.00000   90.00000   90.00000
LATT -1
SFAC C  
C      1  0.4536200000000  0.5272010000000  0.5509660000000 1.0
C      1  0.5334140000000  0.4141620000000  0.5167150000000 1.0
C      1  0.4412880000000  0.4698520000000  0.4508810000000 1.0
C      1  0.5597110000000  0.4872970000000  0.4309810000000 1.0
C      1  0.4271490000000  0.4864320000000  0.5566970000000 1.0
C      1  0.5048630000000  0.5460810000000  0.5701760000000 1.0
C      1  0.5536460000000  0.5792170000000  0.5087350000000 1.0
C      1  0.4815990000000  0.5562050000000  0.5172650000000 1.0
C      1  0.4908840000000  0.4698450000000  0.5675520000000 1.0
C      1  0.5194550000000  0.5711990000000  0.4509870000000 1.0
C      1  0.5645230000000  0.4680420000000  0.5644480000000 1.0
C      1  0.5708890000000  0.4440160000000  0.4955310000000 1.0
C      1  0.5194770000000  0.4547080000000  0.5250320000000 1.0
C      1  0.4354030000000  0.5663320000000  0.4543070000000 1.0
C      1  0.4721110000000  0.4837950000000  0.4529350000000 1.0
C      1  0.5117590000000  0.5617320000000  0.5235260000000 1.0
C      1  0.5677770000000  0.5068600000000  0.4556000000000 1.0
C      1  0.5354320000000  0.5386790000000  0.4294630000000 1.0
C      1  0.4984860000000  0.5409580000000  0.4665880000000 1.0
C      1  0.4324810000000  0.5692160000000  0.4821200000000 1.0
C      1  0.5082990000000  0.5102350000000  0.4612650000000 1.0
C      1  0.5190200000000  0.4365620000000  0.4381990000000 1.0
C      1  0.4847840000000  0.4989890000000  0.5590840000000 1.0
C      1  0.5160280000000  0.4288330000000  0.5577310000000 1.0
C      1  0.5889760000000  0.4856260000000  0.4676300000000 1.0
C      1  0.4452060000000  0.5755420000000  0.5119170000000 1.0
C      1  0.4168010000000  0.4982130000000  0.5325170000000 1.0
C      1  0.5208380000000  0.5343320000000  0.5931630000000 1.0
C      1  0.5476400000000  0.5527070000000  0.4556540000000 1.0
C      1  0.5703110000000  0.5356590000000  0.4680000000000 1.0
C      1  0.4723580000000  0.5448060000000  0.4864790000000 1.0
C      1  0.5174510000000  0.4604270000000  0.5587170000000 1.0
C      1  0.4872760000000  0.5043000000000  0.6090270000000 1.0
C      1  0.4700300000000  0.4794620000000  0.5352160000000 1.0
C      1  0.5347410000000  0.5200240000000  0.5662990000000 1.0
C      1  0.4799300000000  0.4498290000000  0.5215710000000 1.0
C      1  0.4724440000000  0.5728650000000  0.4672270000000 1.0
C      1  0.5638170000000  0.5742560000000  0.5354810000000 1.0
C      1  0.5934390000000  0.4646630000000  0.4497180000000 1.0
C      1  0.5390720000000  0.4721590000000  0.5764110000000 1.0
C      1  0.5750890000000  0.4921760000000  0.5524490000000 1.0
C      1  0.5435650000000  0.4845100000000  0.5144790000000 1.0
C      1  0.5241980000000  0.5064110000000  0.5210270000000 1.0
C      1  0.4712100000000  0.4494890000000  0.5634830000000 1.0
C      1  0.4678820000000  0.5423890000000  0.5849360000000 1.0
C      1  0.5243400000000  0.5823830000000  0.5085440000000 1.0
C      1  0.4360060000000  0.4006520000000  0.4789950000000 1.0
C      1  0.4447940000000  0.5322100000000  0.4728130000000 1.0
C      1  0.5593900000000  0.4274430000000  0.4756670000000 1.0
C      1  0.4718090000000  0.4337990000000  0.4647600000000 1.0
C      1  0.4802410000000  0.4566370000000  0.4249310000000 1.0
C      1  0.4611700000000  0.4993810000000  0.5110030000000 1.0
C      1  0.4972040000000  0.5706740000000  0.4330110000000 1.0
C      1  0.5767180000000  0.4890080000000  0.5207080000000 1.0
C      1  0.4848070000000  0.5360890000000  0.5445130000000 1.0
C      1  0.4800720000000  0.5959100000000  0.4806960000000 1.0
C      1  0.4639100000000  0.5752540000000  0.5391790000000 1.0
C      1  0.5519180000000  0.4523810000000  0.5196480000000 1.0
C      1  0.4446320000000  0.4618260000000  0.5502860000000 1.0
C      1  0.4594320000000  0.4478440000000  0.4411090000000 1.0
C      1  0.5474670000000  0.4435020000000  0.4525370000000 1.0
C      1  0.4379250000000  0.5145390000000  0.4277630000000 1.0
C      1  0.5384870000000  0.5110790000000  0.4724400000000 1.0
C      1  0.4910910000000  0.4896600000000  0.4786320000000 1.0
C      1  0.4572370000000  0.5583490000000  0.5626920000000 1.0
C      1  0.5779390000000  0.5200150000000  0.5243830000000 1.0
C      1  0.5656810000000  0.5617210000000  0.4900320000000 1.0
C      1  0.5511600000000  0.5537010000000  0.5506700000000 1.0
C      1  0.5633570000000  0.4441610000000  0.5477090000000 1.0
C      1  0.4541670000000  0.4312960000000  0.5158570000000 1.0
C      1  0.5757120000000  0.4752140000000  0.4929550000000 1.0
C      1  0.5037410000000  0.4932090000000  0.4083550000000 1.0
C      1  0.4752830000000  0.4543290000000  0.4886480000000 1.0
C      1  0.5406250000000  0.4222710000000  0.5434080000000 1.0
C      1  0.5445600000000  0.4823190000000  0.4821510000000 1.0
C      1  0.5770600000000  0.5348630000000  0.5012910000000 1.0
C      1  0.5066680000000  0.5320370000000  0.4365100000000 1.0
C      1  0.4728720000000  0.5952790000000  0.5130790000000 1.0
C      1  0.4126720000000  0.4552850000000  0.5107510000000 1.0
C      1  0.4866830000000  0.4246560000000  0.5607110000000 1.0
C      1  0.4760710000000  0.5149140000000  0.5849180000000 1.0
C      1  0.4489080000000  0.4244900000000  0.4850150000000 1.0
C      1  0.5030230000000  0.4280810000000  0.5116420000000 1.0
C      1  0.5062190000000  0.4642860000000  0.4951760000000 1.0
C      1  0.5113500000000  0.5147050000000  0.5463550000000 1.0
C      1  0.4334420000000  0.4527670000000  0.4894010000000 1.0
C      1  0.4616060000000  0.4996610000000  0.4276840000000 1.0
C      1  0.4393380000000  0.5197490000000  0.5241540000000 1.0
C      1  0.5005880000000  0.4249590000000  0.4588600000000 1.0
C      1  0.4859600000000  0.5155300000000  0.4975440000000 1.0
C      1  0.4826990000000  0.5107740000000  0.4127430000000 1.0
C      1  0.4365100000000  0.5369260000000  0.4440690000000 1.0
C      1  0.4639810000000  0.5648620000000  0.4360140000000 1.0
C      1  0.4106880000000  0.4960000000000  0.4858080000000 1.0
C      1  0.5188230000000  0.5248650000000  0.4967890000000 1.0
C      1  0.5153880000000  0.5093170000000  0.6106860000000 1.0
C      1  0.5169030000000  0.4624950000000  0.4159620000000 1.0
C      1  0.5042230000000  0.6006480000000  0.5005970000000 1.0
C      1  0.5227500000000  0.5542580000000  0.5481530000000 1.0
C      1  0.5032120000000  0.4722740000000  0.4449500000000 1.0
C      1  0.5241350000000  0.4637560000000  0.4669230000000 1.0
C      1  0.4400900000000  0.5065510000000  0.5706680000000 1.0
C      1  0.4830830000000  0.5431650000000  0.4178330000000 1.0
C      1  0.4191500000000  0.4800530000000  0.4639040000000 1.0
C      1  0.5475160000000  0.5204690000000  0.4123560000000 1.0
C      1  0.5124170000000  0.4157320000000  0.4828690000000 1.0
C      1  0.4526040000000  0.4764600000000  0.4906960000000 1.0
C      1  0.4055890000000  0.4833350000000  0.5111960000000 1.0
C      1  0.5364260000000  0.4900050000000  0.4106480000000 1.0
C      1  0.4319300000000  0.4431060000000  0.5300590000000 1.0
C      1  0.4222330000000  0.5208800000000  0.4881850000000 1.0
C      1  0.4303890000000  0.5461680000000  0.5072970000000 1.0
C      1  0.5245680000000  0.5540900000000  0.4802710000000 1.0
C      1  0.5335450000000  0.4969130000000  0.5886200000000 1.0
C      1  0.5637540000000  0.5243050000000  0.5536350000000 1.0
C      1  0.5414990000000  0.4087080000000  0.4872460000000 1.0
C      1  0.5681840000000  0.4594710000000  0.4364530000000 1.0
END
