TITL C-2778428-5639-318 -0.00160709283977738 125000 -104.266435304232 0 0 20 (C1) n - 1
REM
REM in /home/nfs/bkarasulu/CARBON/AIRSS/Generating-Clusters/REBO/Only-C1/SD-CG/HFTN-CG
REM
REM
REM
REM
REM
REM ./C.cell (11c1c37f851c82e70ff6c80c92926a4b)
REM
REM compiler GCC version 9.2.1 20190827 (Red Hat 9.2.1-1)
REM options -cpp -mtune=generic -march=x86-64 -g -O0 -fpre-include=/usr/include/finclude/math-vector-fortran.h
REM seed 532263697 -1316032115 442553645 1358991347 808214340 -76839375 1283318422 1406830488 1410558875 -1393186158 -668338638 1935113370 -151532585 1306143510 1056796301 -1695831751 -195944318 1548473244 371787672 -432370101 328139361 -706261583 250429357 1961427145 42229925 -1817602968 749343133 -901258137 -31588647 232030753 -877029031 1211351334 -1950405328
REM
CELL 1.54180   50.00000   50.00000   50.00000   90.00000   90.00000   90.00000
LATT -1
SFAC C  
C      1  0.5028480000000  0.4642110000000  0.5192370000000 1.0
C      1  0.5120510000000  0.4661250000000  0.4633030000000 1.0
C      1  0.4967860000000  0.5575090000000  0.4967380000000 1.0
C      1  0.5247720000000  0.4968520000000  0.5477280000000 1.0
C      1  0.4870680000000  0.5259050000000  0.5054640000000 1.0
C      1  0.5040670000000  0.4739510000000  0.4922620000000 1.0
C      1  0.5245710000000  0.4721150000000  0.5360220000000 1.0
C      1  0.4823730000000  0.5210800000000  0.5353440000000 1.0
C      1  0.5035720000000  0.4962330000000  0.4593270000000 1.0
C      1  0.4691040000000  0.4928230000000  0.5385920000000 1.0
C      1  0.5179450000000  0.5427880000000  0.5638410000000 1.0
C      1  0.4959400000000  0.5036800000000  0.4884110000000 1.0
C      1  0.5214170000000  0.4448940000000  0.4489210000000 1.0
C      1  0.5304070000000  0.4245130000000  0.4351150000000 1.0
C      1  0.5097320000000  0.5204280000000  0.5497890000000 1.0
C      1  0.4656230000000  0.5412970000000  0.5464070000000 1.0
C      1  0.4680100000000  0.5503750000000  0.4910640000000 1.0
C      1  0.4773430000000  0.4677960000000  0.5316520000000 1.0
C      1  0.5030610000000  0.5259490000000  0.4144680000000 1.0
C      1  0.5033100000000  0.5114770000000  0.4363150000000 1.0
END
