TITL C-2778432-5617-922 -0.00400848804725345 125000 -841.200543159874 0 0 146 (C1) n - 1
REM
REM in /home/nfs/bkarasulu/CARBON/AIRSS/Generating-Clusters/REBO/Only-C1/SD-CG/HFTN-CG
REM
REM
REM
REM
REM
REM ./C.cell (11c1c37f851c82e70ff6c80c92926a4b)
REM
REM compiler GCC version 9.2.1 20190827 (Red Hat 9.2.1-1)
REM options -cpp -mtune=generic -march=x86-64 -g -O0 -fpre-include=/usr/include/finclude/math-vector-fortran.h
REM seed -1593006103 -1365883789 -1526654823 1233193934 -1724838002 400505945 208238411 1045364417 459557009 -20317242 -129138294 -214834374 -829833067 164463690 1271844049 -507003222 -613297490 1083805687 -1662666019 -1410002678 2008855397 -16735496 207423054 -2086056003 -577047367 -28061067 -911416168 -349894213 1013507210 -2013335521 1040979131 463840346 -1798119737
REM
CELL 1.54180   50.00000   50.00000   50.00000   90.00000   90.00000   90.00000
LATT -1
SFAC C  
C      1  0.4171840000000  0.4467870000000  0.4579440000000 1.0
C      1  0.5683290000000  0.4314990000000  0.4493370000000 1.0
C      1  0.4522450000000  0.5142950000000  0.4166150000000 1.0
C      1  0.4042170000000  0.5298820000000  0.5036890000000 1.0
C      1  0.4744100000000  0.5828830000000  0.5496590000000 1.0
C      1  0.5498660000000  0.5902640000000  0.5282100000000 1.0
C      1  0.5600760000000  0.5442530000000  0.4301000000000 1.0
C      1  0.5445250000000  0.4587150000000  0.5629240000000 1.0
C      1  0.5546350000000  0.3621740000000  0.4772210000000 1.0
C      1  0.5365090000000  0.4543180000000  0.4555650000000 1.0
C      1  0.4519030000000  0.4660430000000  0.4585860000000 1.0
C      1  0.5694450000000  0.5148120000000  0.5616450000000 1.0
C      1  0.5500090000000  0.5007880000000  0.5287180000000 1.0
C      1  0.4869230000000  0.4650880000000  0.4220350000000 1.0
C      1  0.4806270000000  0.5498900000000  0.5470240000000 1.0
C      1  0.4780850000000  0.5485700000000  0.5071520000000 1.0
C      1  0.5709260000000  0.5436280000000  0.5647470000000 1.0
C      1  0.5391370000000  0.5348330000000  0.4066740000000 1.0
C      1  0.5261690000000  0.4741870000000  0.5845320000000 1.0
C      1  0.5629810000000  0.5151660000000  0.4940490000000 1.0
C      1  0.5758850000000  0.5570580000000  0.4573830000000 1.0
C      1  0.4615890000000  0.5075680000000  0.5716560000000 1.0
C      1  0.5290610000000  0.5603930000000  0.5121550000000 1.0
C      1  0.5759330000000  0.5545700000000  0.4902720000000 1.0
C      1  0.5957850000000  0.5206630000000  0.5019270000000 1.0
C      1  0.5078770000000  0.5194300000000  0.6082460000000 1.0
C      1  0.4970620000000  0.4636920000000  0.5843830000000 1.0
C      1  0.5007600000000  0.5955990000000  0.5112320000000 1.0
C      1  0.4875000000000  0.4024510000000  0.4571620000000 1.0
C      1  0.5133870000000  0.4327840000000  0.4534990000000 1.0
C      1  0.4972740000000  0.5562300000000  0.5827840000000 1.0
C      1  0.5009610000000  0.5251100000000  0.5457000000000 1.0
C      1  0.4408080000000  0.5021420000000  0.4465650000000 1.0
C      1  0.4731930000000  0.4212890000000  0.4819710000000 1.0
C      1  0.4970690000000  0.4484780000000  0.5537540000000 1.0
C      1  0.4546440000000  0.5219970000000  0.4663860000000 1.0
C      1  0.5876000000000  0.5083490000000  0.4534600000000 1.0
C      1  0.4786350000000  0.4327650000000  0.5097050000000 1.0
C      1  0.5591100000000  0.4891740000000  0.4195270000000 1.0
C      1  0.4498250000000  0.5551380000000  0.4593650000000 1.0
C      1  0.5709200000000  0.5138060000000  0.4329570000000 1.0
C      1  0.4969630000000  0.5602190000000  0.4332710000000 1.0
C      1  0.4480400000000  0.5634350000000  0.5010560000000 1.0
C      1  0.4497040000000  0.4536900000000  0.5494310000000 1.0
C      1  0.4386160000000  0.4700010000000  0.4846770000000 1.0
C      1  0.4432430000000  0.5325790000000  0.4957490000000 1.0
C      1  0.4894850000000  0.4875800000000  0.4785620000000 1.0
C      1  0.4769540000000  0.4577910000000  0.5316630000000 1.0
C      1  0.6012290000000  0.4860700000000  0.5206160000000 1.0
C      1  0.4963870000000  0.5710530000000  0.4880990000000 1.0
C      1  0.5037730000000  0.5303070000000  0.5062120000000 1.0
C      1  0.4895740000000  0.5020920000000  0.5363600000000 1.0
C      1  0.4017040000000  0.5020350000000  0.5173570000000 1.0
C      1  0.5690980000000  0.4386020000000  0.5682320000000 1.0
C      1  0.4149360000000  0.5343700000000  0.5634250000000 1.0
C      1  0.4755660000000  0.4829750000000  0.5903600000000 1.0
C      1  0.4151440000000  0.4802730000000  0.4518400000000 1.0
C      1  0.4793990000000  0.4660040000000  0.4612670000000 1.0
C      1  0.5430440000000  0.4246900000000  0.5260370000000 1.0
C      1  0.4607840000000  0.5055170000000  0.5405780000000 1.0
C      1  0.4418990000000  0.4261040000000  0.4690040000000 1.0
C      1  0.5928000000000  0.5318900000000  0.4713270000000 1.0
C      1  0.4645230000000  0.4996000000000  0.4904130000000 1.0
C      1  0.4562480000000  0.5317040000000  0.6030650000000 1.0
C      1  0.4368740000000  0.5393370000000  0.4330110000000 1.0
C      1  0.5554630000000  0.5612700000000  0.5420480000000 1.0
C      1  0.5347060000000  0.5025700000000  0.3995090000000 1.0
C      1  0.5268610000000  0.5053690000000  0.5078940000000 1.0
C      1  0.5444260000000  0.5663570000000  0.4518030000000 1.0
C      1  0.5329480000000  0.5557720000000  0.5654640000000 1.0
C      1  0.4751010000000  0.5990970000000  0.5244550000000 1.0
C      1  0.5870580000000  0.4409440000000  0.5466880000000 1.0
C      1  0.4256370000000  0.5364520000000  0.5895050000000 1.0
C      1  0.5907250000000  0.4689080000000  0.5420600000000 1.0
C      1  0.5193730000000  0.4014790000000  0.4562910000000 1.0
C      1  0.5041110000000  0.5149020000000  0.4023310000000 1.0
C      1  0.5095230000000  0.4781440000000  0.4988670000000 1.0
C      1  0.5562320000000  0.5774440000000  0.5007700000000 1.0
C      1  0.5148910000000  0.5298890000000  0.4788670000000 1.0
C      1  0.4784940000000  0.4944510000000  0.4076420000000 1.0
C      1  0.5344850000000  0.4708180000000  0.4066750000000 1.0
C      1  0.5240770000000  0.6019750000000  0.5260130000000 1.0
C      1  0.5091980000000  0.5479240000000  0.4099520000000 1.0
C      1  0.4706730000000  0.5434510000000  0.4367970000000 1.0
C      1  0.4901070000000  0.4414620000000  0.4643590000000 1.0
C      1  0.5284030000000  0.5250400000000  0.5589040000000 1.0
C      1  0.5110250000000  0.5696420000000  0.4573750000000 1.0
C      1  0.5443780000000  0.3848450000000  0.4700120000000 1.0
C      1  0.4901360000000  0.4322320000000  0.5809930000000 1.0
C      1  0.5638590000000  0.4821960000000  0.5038390000000 1.0
C      1  0.5160000000000  0.4656710000000  0.4310200000000 1.0
C      1  0.5269240000000  0.4919790000000  0.4475370000000 1.0
C      1  0.5928760000000  0.4893390000000  0.4884520000000 1.0
C      1  0.5348390000000  0.4429480000000  0.4877950000000 1.0
C      1  0.4470890000000  0.4768210000000  0.5738870000000 1.0
C      1  0.3995130000000  0.4671380000000  0.4789910000000 1.0
C      1  0.4638470000000  0.4196160000000  0.4437010000000 1.0
C      1  0.4246680000000  0.5581440000000  0.5450740000000 1.0
C      1  0.5273010000000  0.5215510000000  0.4339130000000 1.0
C      1  0.4467220000000  0.4340490000000  0.5220820000000 1.0
C      1  0.4503240000000  0.4811770000000  0.4217030000000 1.0
C      1  0.4460150000000  0.5610270000000  0.5881580000000 1.0
C      1  0.5751700000000  0.4290120000000  0.5217590000000 1.0
C      1  0.4463170000000  0.5713090000000  0.5609400000000 1.0
C      1  0.5256350000000  0.4445440000000  0.5411220000000 1.0
C      1  0.4815160000000  0.5107470000000  0.6060450000000 1.0
C      1  0.5062260000000  0.5768790000000  0.5608350000000 1.0
C      1  0.4344770000000  0.4877910000000  0.5351770000000 1.0
C      1  0.5875440000000  0.4386840000000  0.4925420000000 1.0
C      1  0.5203850000000  0.5413260000000  0.5944120000000 1.0
C      1  0.5025280000000  0.5077720000000  0.4619000000000 1.0
C      1  0.5338150000000  0.5372400000000  0.4591680000000 1.0
C      1  0.4367680000000  0.4540350000000  0.4310190000000 1.0
C      1  0.4105840000000  0.5260470000000  0.4741990000000 1.0
C      1  0.4534960000000  0.5330220000000  0.5260370000000 1.0
C      1  0.5390470000000  0.4981380000000  0.4769130000000 1.0
C      1  0.4510360000000  0.5965350000000  0.5042160000000 1.0
C      1  0.5909270000000  0.4447980000000  0.4649320000000 1.0
C      1  0.4927050000000  0.5206170000000  0.4340030000000 1.0
C      1  0.4026190000000  0.5042430000000  0.4350010000000 1.0
C      1  0.5646080000000  0.4820840000000  0.5523410000000 1.0
C      1  0.4107080000000  0.5283860000000  0.4458890000000 1.0
C      1  0.4296860000000  0.5017960000000  0.4892580000000 1.0
C      1  0.5914240000000  0.4770000000000  0.4598600000000 1.0
C      1  0.5471350000000  0.4180450000000  0.4680340000000 1.0
C      1  0.4237690000000  0.5191410000000  0.5368230000000 1.0
C      1  0.4756560000000  0.5952150000000  0.4806230000000 1.0
C      1  0.4744110000000  0.5359560000000  0.5758370000000 1.0
C      1  0.4178090000000  0.4528590000000  0.5254860000000 1.0
C      1  0.4136110000000  0.5531840000000  0.5185830000000 1.0
C      1  0.5439970000000  0.5027960000000  0.5794060000000 1.0
C      1  0.4681460000000  0.4445820000000  0.4283590000000 1.0
C      1  0.4293460000000  0.4416180000000  0.4955400000000 1.0
C      1  0.5086030000000  0.4790350000000  0.5313260000000 1.0
C      1  0.5650120000000  0.3392400000000  0.4845130000000 1.0
C      1  0.4463310000000  0.5814650000000  0.4734150000000 1.0
C      1  0.5226460000000  0.4913680000000  0.5558350000000 1.0
C      1  0.5567500000000  0.5406180000000  0.5148460000000 1.0
C      1  0.4197560000000  0.4670430000000  0.5559550000000 1.0
C      1  0.5823580000000  0.5109650000000  0.5312040000000 1.0
C      1  0.4549520000000  0.4767190000000  0.5137320000000 1.0
C      1  0.4024410000000  0.4752210000000  0.5068110000000 1.0
C      1  0.5596210000000  0.4529870000000  0.5031790000000 1.0
C      1  0.5651310000000  0.4647670000000  0.4420270000000 1.0
C      1  0.5098320000000  0.4469210000000  0.5107850000000 1.0
C      1  0.5083900000000  0.5614760000000  0.5305610000000 1.0
END
