TITL C-2778434-4341-1222 0.106935389350705 125000 -683.888491843839 0 0 120 (C1) n - 1
REM
REM in /home/nfs/bkarasulu/CARBON/AIRSS/Generating-Clusters/REBO/Only-C1/SD-CG/HFTN-CG
REM
REM
REM
REM
REM
REM ./C.cell (11c1c37f851c82e70ff6c80c92926a4b)
REM
REM compiler GCC version 9.2.1 20190827 (Red Hat 9.2.1-1)
REM options -cpp -mtune=generic -march=x86-64 -g -O0 -fpre-include=/usr/include/finclude/math-vector-fortran.h
REM seed 2140214377 56183219 1178937553 670270928 624506942 1099346664 1075962319 1936116370 38842474 854117910 -610763030 -865904519 -843737807 -804262789 -212711436 1933837892 -2010094709 1318369466 47306628 -776591478 -558128512 648791054 1134566729 2043594261 -1255921815 1792048212 -2131078287 -2521053 756002569 -659113158 1987868316 -1767981569 1097754258
REM
CELL 1.54180   50.00000   50.00000   50.00000   90.00000   90.00000   90.00000
LATT -1
SFAC C  
C      1  0.4376810000000  0.5908750000000  0.5382400000000 1.0
C      1  0.4602600000000  0.4661990000000  0.5466190000000 1.0
C      1  0.4796200000000  0.5012590000000  0.5891870000000 1.0
C      1  0.5170750000000  0.4222990000000  0.4616440000000 1.0
C      1  0.4665280000000  0.4127010000000  0.4965430000000 1.0
C      1  0.5151060000000  0.5131980000000  0.5769330000000 1.0
C      1  0.4636530000000  0.4484880000000  0.5755450000000 1.0
C      1  0.5554850000000  0.4543230000000  0.5458610000000 1.0
C      1  0.4609530000000  0.4302920000000  0.4404740000000 1.0
C      1  0.5451750000000  0.5350050000000  0.5093820000000 1.0
C      1  0.5027180000000  0.5568630000000  0.5655170000000 1.0
C      1  0.5466710000000  0.5310630000000  0.4750860000000 1.0
C      1  0.5667690000000  0.5654640000000  0.4773820000000 1.0
C      1  0.4552140000000  0.4202760000000  0.4725450000000 1.0
C      1  0.5614800000000  0.4502530000000  0.4668820000000 1.0
C      1  0.4226170000000  0.5027610000000  0.5240790000000 1.0
C      1  0.5625800000000  0.5037870000000  0.5228290000000 1.0
C      1  0.4771020000000  0.5144850000000  0.4424270000000 1.0
C      1  0.5440570000000  0.4990870000000  0.4870980000000 1.0
C      1  0.5441750000000  0.4825140000000  0.5905500000000 1.0
C      1  0.4862760000000  0.5039940000000  0.4134930000000 1.0
C      1  0.4671280000000  0.5770460000000  0.4937360000000 1.0
C      1  0.4580890000000  0.4886700000000  0.4186180000000 1.0
C      1  0.4908700000000  0.4714540000000  0.4045750000000 1.0
C      1  0.4804120000000  0.5328530000000  0.5758820000000 1.0
C      1  0.4089130000000  0.5254760000000  0.5417650000000 1.0
C      1  0.5104380000000  0.5233370000000  0.4090970000000 1.0
C      1  0.5594020000000  0.5242860000000  0.4247730000000 1.0
C      1  0.5190640000000  0.5221330000000  0.4918440000000 1.0
C      1  0.4877890000000  0.4437610000000  0.4240750000000 1.0
C      1  0.5445320000000  0.4206870000000  0.4671200000000 1.0
C      1  0.5849290000000  0.4824990000000  0.4638190000000 1.0
C      1  0.5195490000000  0.4158510000000  0.5551960000000 1.0
C      1  0.4089850000000  0.4989180000000  0.4962150000000 1.0
C      1  0.5709130000000  0.4721320000000  0.5259440000000 1.0
C      1  0.4443470000000  0.4954420000000  0.4781350000000 1.0
C      1  0.4246150000000  0.4899190000000  0.4507050000000 1.0
C      1  0.5133880000000  0.4356930000000  0.4363720000000 1.0
C      1  0.4032100000000  0.4716940000000  0.4877870000000 1.0
C      1  0.4745430000000  0.5026790000000  0.5170090000000 1.0
C      1  0.4270640000000  0.4409540000000  0.5168770000000 1.0
C      1  0.4343420000000  0.4992470000000  0.4262240000000 1.0
C      1  0.4978510000000  0.4671550000000  0.3791560000000 1.0
C      1  0.5592970000000  0.5101440000000  0.5777220000000 1.0
C      1  0.5457610000000  0.4689210000000  0.4866600000000 1.0
C      1  0.5112250000000  0.4386110000000  0.5465990000000 1.0
C      1  0.4710790000000  0.5688160000000  0.4451580000000 1.0
C      1  0.5249440000000  0.4538660000000  0.5045460000000 1.0
C      1  0.5015490000000  0.4399350000000  0.4841250000000 1.0
C      1  0.5139340000000  0.5519860000000  0.4257110000000 1.0
C      1  0.4929650000000  0.4353460000000  0.5819460000000 1.0
C      1  0.4735220000000  0.4920960000000  0.4638080000000 1.0
C      1  0.4816600000000  0.5317060000000  0.4776500000000 1.0
C      1  0.4836330000000  0.4864120000000  0.5450000000000 1.0
C      1  0.5291030000000  0.5756280000000  0.4449020000000 1.0
C      1  0.5371740000000  0.5367220000000  0.4457210000000 1.0
C      1  0.4575540000000  0.5539790000000  0.5125630000000 1.0
C      1  0.5311290000000  0.5499190000000  0.5566300000000 1.0
C      1  0.4608030000000  0.4617430000000  0.4649490000000 1.0
C      1  0.5086970000000  0.4718490000000  0.5540860000000 1.0
C      1  0.5754150000000  0.4197170000000  0.4729150000000 1.0
C      1  0.5146260000000  0.5533520000000  0.4827970000000 1.0
C      1  0.5114430000000  0.5902940000000  0.4681560000000 1.0
C      1  0.5014990000000  0.4866510000000  0.4773900000000 1.0
C      1  0.5641830000000  0.4712170000000  0.4416060000000 1.0
C      1  0.5151610000000  0.4563590000000  0.5821990000000 1.0
C      1  0.5463280000000  0.4505700000000  0.5783280000000 1.0
C      1  0.4307640000000  0.5405910000000  0.4623870000000 1.0
C      1  0.4872300000000  0.5680710000000  0.4232190000000 1.0
C      1  0.4036390000000  0.4505740000000  0.5066880000000 1.0
C      1  0.4210600000000  0.5196200000000  0.4765040000000 1.0
C      1  0.4901420000000  0.3975980000000  0.5105750000000 1.0
C      1  0.5263960000000  0.5006680000000  0.4589480000000 1.0
C      1  0.5345570000000  0.4572110000000  0.4369300000000 1.0
C      1  0.4986230000000  0.6028260000000  0.4970860000000 1.0
C      1  0.5091520000000  0.5286550000000  0.5308630000000 1.0
C      1  0.4750810000000  0.4240540000000  0.5552710000000 1.0
C      1  0.4628820000000  0.4631260000000  0.4318600000000 1.0
C      1  0.4475630000000  0.5157050000000  0.5433250000000 1.0
C      1  0.4136020000000  0.4655040000000  0.4617970000000 1.0
C      1  0.6230420000000  0.4999260000000  0.4870960000000 1.0
C      1  0.5395220000000  0.5549480000000  0.5295580000000 1.0
C      1  0.5313950000000  0.4693250000000  0.5314030000000 1.0
C      1  0.4588260000000  0.4754890000000  0.5942310000000 1.0
C      1  0.5694640000000  0.4735730000000  0.5686500000000 1.0
C      1  0.5959290000000  0.4993920000000  0.4835930000000 1.0
C      1  0.5086570000000  0.5930750000000  0.5211090000000 1.0
C      1  0.4795170000000  0.5843680000000  0.4671460000000 1.0
C      1  0.5105160000000  0.4874440000000  0.5941930000000 1.0
C      1  0.4211750000000  0.5462430000000  0.5476140000000 1.0
C      1  0.4479080000000  0.4887320000000  0.5081950000000 1.0
C      1  0.4370780000000  0.4768210000000  0.5695120000000 1.0
C      1  0.4531050000000  0.4577400000000  0.5167980000000 1.0
C      1  0.5325750000000  0.5789940000000  0.5161650000000 1.0
C      1  0.5797650000000  0.5452280000000  0.4921690000000 1.0
C      1  0.4339640000000  0.4427720000000  0.4580700000000 1.0
C      1  0.5561660000000  0.5725410000000  0.4499080000000 1.0
C      1  0.5059660000000  0.5256140000000  0.4545760000000 1.0
C      1  0.4922000000000  0.5812590000000  0.5459820000000 1.0
C      1  0.4940640000000  0.5628940000000  0.4993230000000 1.0
C      1  0.5376200000000  0.5759060000000  0.4850840000000 1.0
C      1  0.4947570000000  0.5139690000000  0.5536640000000 1.0
C      1  0.5286130000000  0.5016170000000  0.5238270000000 1.0
C      1  0.4715270000000  0.5302800000000  0.5045120000000 1.0
C      1  0.6069100000000  0.5093010000000  0.5528240000000 1.0
C      1  0.5450910000000  0.4955390000000  0.4359500000000 1.0
C      1  0.5778210000000  0.5010340000000  0.5526950000000 1.0
C      1  0.4455330000000  0.5634490000000  0.5399540000000 1.0
C      1  0.5795940000000  0.5175390000000  0.4995820000000 1.0
C      1  0.5017280000000  0.4860660000000  0.5093720000000 1.0
C      1  0.5384410000000  0.5277440000000  0.5721400000000 1.0
C      1  0.4958620000000  0.4544430000000  0.5207520000000 1.0
C      1  0.4728620000000  0.4512850000000  0.4903930000000 1.0
C      1  0.4604820000000  0.5419410000000  0.4537230000000 1.0
C      1  0.5357550000000  0.5100050000000  0.4074890000000 1.0
C      1  0.4542930000000  0.5030990000000  0.5664030000000 1.0
C      1  0.4796030000000  0.4264020000000  0.5254130000000 1.0
C      1  0.4984540000000  0.5547430000000  0.5259050000000 1.0
C      1  0.5203420000000  0.4618280000000  0.4658160000000 1.0
C      1  0.4689390000000  0.5603180000000  0.5593560000000 1.0
END
