TITL C-2778428-5639-272 0.000570115582586958 125000 -714.892410634972 0 0 120 (C1) n - 1
REM
REM in /home/nfs/bkarasulu/CARBON/AIRSS/Generating-Clusters/REBO/Only-C1/SD-CG/HFTN-CG
REM
REM
REM
REM
REM
REM ./C.cell (11c1c37f851c82e70ff6c80c92926a4b)
REM
REM compiler GCC version 9.2.1 20190827 (Red Hat 9.2.1-1)
REM options -cpp -mtune=generic -march=x86-64 -g -O0 -fpre-include=/usr/include/finclude/math-vector-fortran.h
REM seed 1104367053 -1529738574 1824872478 -485333422 1387416470 1103030247 102694556 -1884311546 -924766142 -395234281 814578650 -1231285790 -931932126 2097475938 -1408404445 394302343 1527553173 -763769188 195124556 367886048 -1211686707 377364634 -916862431 1341261909 2088358678 2125540844 21349253 1463268177 1757435217 -1431542078 411648872 -489230709 -2084727306
REM
CELL 1.54180   50.00000   50.00000   50.00000   90.00000   90.00000   90.00000
LATT -1
SFAC C  
C      1  0.4848870000000  0.5641940000000  0.5624040000000 1.0
C      1  0.4431920000000  0.5561670000000  0.5374670000000 1.0
C      1  0.4826830000000  0.4444440000000  0.4387310000000 1.0
C      1  0.5168000000000  0.5407130000000  0.4523750000000 1.0
C      1  0.4273720000000  0.4926650000000  0.4342030000000 1.0
C      1  0.5724460000000  0.5403440000000  0.5243790000000 1.0
C      1  0.5584300000000  0.5592980000000  0.4816040000000 1.0
C      1  0.5613940000000  0.5295840000000  0.4764830000000 1.0
C      1  0.5141470000000  0.5729820000000  0.4415000000000 1.0
C      1  0.4149530000000  0.5291420000000  0.4685540000000 1.0
C      1  0.5145040000000  0.5266890000000  0.5787060000000 1.0
C      1  0.5773260000000  0.5407730000000  0.5525790000000 1.0
C      1  0.5635000000000  0.5227970000000  0.5689680000000 1.0
C      1  0.5302040000000  0.5662870000000  0.5493050000000 1.0
C      1  0.4221290000000  0.4558180000000  0.5601520000000 1.0
C      1  0.4808680000000  0.4147070000000  0.5331060000000 1.0
C      1  0.5600230000000  0.4626900000000  0.4451280000000 1.0
C      1  0.5158930000000  0.5433750000000  0.4989470000000 1.0
C      1  0.5716330000000  0.5046340000000  0.4915200000000 1.0
C      1  0.5304460000000  0.5377020000000  0.4142170000000 1.0
C      1  0.4965080000000  0.4799690000000  0.4977560000000 1.0
C      1  0.4226740000000  0.5393950000000  0.5253450000000 1.0
C      1  0.4901690000000  0.5919920000000  0.4804840000000 1.0
C      1  0.5327370000000  0.4345400000000  0.5604270000000 1.0
C      1  0.4427650000000  0.4898320000000  0.5013410000000 1.0
C      1  0.4810000000000  0.5839380000000  0.5412530000000 1.0
C      1  0.4196730000000  0.4605430000000  0.4808090000000 1.0
C      1  0.4681370000000  0.4984660000000  0.4086330000000 1.0
C      1  0.5449390000000  0.4650510000000  0.5249570000000 1.0
C      1  0.5027190000000  0.4675160000000  0.4518970000000 1.0
C      1  0.4922380000000  0.4950670000000  0.4609670000000 1.0
C      1  0.4557310000000  0.5319640000000  0.4431350000000 1.0
C      1  0.4961030000000  0.5021670000000  0.4096310000000 1.0
C      1  0.5550960000000  0.4816680000000  0.4791900000000 1.0
C      1  0.5143800000000  0.4878290000000  0.5370280000000 1.0
C      1  0.4852900000000  0.5405190000000  0.4903360000000 1.0
C      1  0.4622800000000  0.4886320000000  0.5511530000000 1.0
C      1  0.4115930000000  0.5023360000000  0.4561520000000 1.0
C      1  0.5507840000000  0.5790870000000  0.5270210000000 1.0
C      1  0.4597350000000  0.5211610000000  0.5742620000000 1.0
C      1  0.4978910000000  0.4506290000000  0.5710000000000 1.0
C      1  0.4847640000000  0.4112460000000  0.5039400000000 1.0
C      1  0.4536050000000  0.4493880000000  0.4255130000000 1.0
C      1  0.5401090000000  0.4972500000000  0.5162980000000 1.0
C      1  0.4318960000000  0.4654020000000  0.4278310000000 1.0
C      1  0.4196200000000  0.4946720000000  0.5167130000000 1.0
C      1  0.4552260000000  0.4244000000000  0.5415560000000 1.0
C      1  0.5914820000000  0.5105330000000  0.4574640000000 1.0
C      1  0.4602480000000  0.4901710000000  0.4722190000000 1.0
C      1  0.5033350000000  0.4271350000000  0.5477900000000 1.0
C      1  0.4211100000000  0.5130420000000  0.5390320000000 1.0
C      1  0.5196940000000  0.5714080000000  0.5181800000000 1.0
C      1  0.5772870000000  0.4569680000000  0.5171120000000 1.0
C      1  0.5123240000000  0.4145680000000  0.4846420000000 1.0
C      1  0.4376680000000  0.5063550000000  0.5604240000000 1.0
C      1  0.5425950000000  0.4917620000000  0.4518370000000 1.0
C      1  0.4212310000000  0.4454050000000  0.5059950000000 1.0
C      1  0.4307800000000  0.5743520000000  0.4545460000000 1.0
C      1  0.5666600000000  0.5739610000000  0.5035530000000 1.0
C      1  0.5366190000000  0.5068370000000  0.5547420000000 1.0
C      1  0.5320120000000  0.5666700000000  0.4688490000000 1.0
C      1  0.4323090000000  0.5468550000000  0.4547390000000 1.0
C      1  0.5841730000000  0.4793340000000  0.4632450000000 1.0
C      1  0.5682700000000  0.4920350000000  0.5736180000000 1.0
C      1  0.4623600000000  0.4410690000000  0.4635780000000 1.0
C      1  0.5355120000000  0.4206830000000  0.4631770000000 1.0
C      1  0.4701150000000  0.5380060000000  0.5143570000000 1.0
C      1  0.5525410000000  0.4254710000000  0.5435170000000 1.0
C      1  0.4016410000000  0.4832370000000  0.4758050000000 1.0
C      1  0.4446390000000  0.4632470000000  0.4661980000000 1.0
C      1  0.5654400000000  0.4959260000000  0.5397100000000 1.0
C      1  0.4600660000000  0.5759070000000  0.5222210000000 1.0
C      1  0.5151440000000  0.5822880000000  0.4898150000000 1.0
C      1  0.4608770000000  0.4657020000000  0.5306100000000 1.0
C      1  0.4712820000000  0.5602090000000  0.4663590000000 1.0
C      1  0.4707690000000  0.4983210000000  0.5097870000000 1.0
C      1  0.5033190000000  0.5296190000000  0.4165090000000 1.0
C      1  0.4717010000000  0.4344930000000  0.4895440000000 1.0
C      1  0.5099300000000  0.4414090000000  0.4984300000000 1.0
C      1  0.5473600000000  0.4807320000000  0.5881080000000 1.0
C      1  0.4695870000000  0.5177700000000  0.5357810000000 1.0
C      1  0.4939040000000  0.5181880000000  0.5538130000000 1.0
C      1  0.4088430000000  0.5295870000000  0.4984600000000 1.0
C      1  0.4856720000000  0.5452270000000  0.4391530000000 1.0
C      1  0.5905240000000  0.4763670000000  0.4968030000000 1.0
C      1  0.5160870000000  0.4662080000000  0.4790150000000 1.0
C      1  0.5261420000000  0.4591570000000  0.5819490000000 1.0
C      1  0.5453310000000  0.4581550000000  0.4933570000000 1.0
C      1  0.5503800000000  0.4267840000000  0.4893260000000 1.0
C      1  0.5119160000000  0.5554030000000  0.5679410000000 1.0
C      1  0.6029840000000  0.5261930000000  0.4792240000000 1.0
C      1  0.4853800000000  0.4997680000000  0.5814040000000 1.0
C      1  0.5131260000000  0.4515530000000  0.4252360000000 1.0
C      1  0.4721420000000  0.4688490000000  0.5752680000000 1.0
C      1  0.5630580000000  0.4303650000000  0.5172030000000 1.0
C      1  0.4508060000000  0.4450480000000  0.5632040000000 1.0
C      1  0.5199020000000  0.5113970000000  0.4617520000000 1.0
C      1  0.4746590000000  0.4588360000000  0.5049180000000 1.0
C      1  0.5397380000000  0.4407150000000  0.4416030000000 1.0
C      1  0.5020150000000  0.5088550000000  0.5143770000000 1.0
C      1  0.3954970000000  0.4993080000000  0.4997630000000 1.0
C      1  0.4931670000000  0.4651700000000  0.5415810000000 1.0
C      1  0.4887570000000  0.5846010000000  0.4500640000000 1.0
C      1  0.5208240000000  0.5269910000000  0.5348270000000 1.0
C      1  0.4660320000000  0.5784920000000  0.4949090000000 1.0
C      1  0.5177100000000  0.4488610000000  0.5263260000000 1.0
C      1  0.5507440000000  0.5199060000000  0.4230710000000 1.0
C      1  0.4341040000000  0.4212130000000  0.5212480000000 1.0
C      1  0.5180640000000  0.4945690000000  0.5893010000000 1.0
C      1  0.4609540000000  0.5474460000000  0.5623620000000 1.0
C      1  0.5164210000000  0.4813850000000  0.4118840000000 1.0
C      1  0.5879150000000  0.5012890000000  0.5201310000000 1.0
C      1  0.4729260000000  0.5203710000000  0.4676030000000 1.0
C      1  0.4478960000000  0.5095640000000  0.4247810000000 1.0
C      1  0.5333630000000  0.5153260000000  0.4906190000000 1.0
C      1  0.4312660000000  0.4595470000000  0.5314650000000 1.0
C      1  0.5448300000000  0.5408700000000  0.5178930000000 1.0
C      1  0.5965880000000  0.5312160000000  0.5070760000000 1.0
C      1  0.5681710000000  0.5244430000000  0.4445790000000 1.0
C      1  0.5415920000000  0.4916330000000  0.4200580000000 1.0
END
