TITL C-2778432-5617-446 0.00150759808961226 125000 -519.526215281612 0 0 90 (C1) n - 1
REM
REM in /home/nfs/bkarasulu/CARBON/AIRSS/Generating-Clusters/REBO/Only-C1/SD-CG/HFTN-CG
REM
REM
REM
REM
REM
REM ./C.cell (11c1c37f851c82e70ff6c80c92926a4b)
REM
REM compiler GCC version 9.2.1 20190827 (Red Hat 9.2.1-1)
REM options -cpp -mtune=generic -march=x86-64 -g -O0 -fpre-include=/usr/include/finclude/math-vector-fortran.h
REM seed 1380613093 -1290747834 1438423281 -581975122 494742697 1246906469 -1494254625 732033936 1148786930 -546594975 1419791160 1210852149 832146663 -1790794356 1526265610 -1291089685 -1541475475 -1582143558 1686286473 -1178551356 147245705 1660780701 -1059641443 -1854801991 -396185242 739373606 -1259331822 420093241 -662319765 1331836036 -2132017445 19674626 -1336325651
REM
CELL 1.54180   50.00000   50.00000   50.00000   90.00000   90.00000   90.00000
LATT -1
SFAC C  
C      1  0.4792600000000  0.4985530000000  0.5300340000000 1.0
C      1  0.4363640000000  0.5231250000000  0.4828560000000 1.0
C      1  0.5084800000000  0.5825690000000  0.5155250000000 1.0
C      1  0.5171690000000  0.5693670000000  0.5393580000000 1.0
C      1  0.4392350000000  0.5472830000000  0.4966270000000 1.0
C      1  0.4549700000000  0.5498950000000  0.5456950000000 1.0
C      1  0.5084020000000  0.4620980000000  0.5732940000000 1.0
C      1  0.5640430000000  0.5137650000000  0.4680980000000 1.0
C      1  0.5844530000000  0.4704890000000  0.5299490000000 1.0
C      1  0.4396750000000  0.5256350000000  0.5471530000000 1.0
C      1  0.5412440000000  0.5562380000000  0.5311540000000 1.0
C      1  0.5387510000000  0.4446900000000  0.5414910000000 1.0
C      1  0.5722000000000  0.4869050000000  0.4644710000000 1.0
C      1  0.4480780000000  0.4199980000000  0.4791690000000 1.0
C      1  0.4445880000000  0.4629550000000  0.5104680000000 1.0
C      1  0.5249420000000  0.4652770000000  0.4674570000000 1.0
C      1  0.5035390000000  0.4260900000000  0.4713130000000 1.0
C      1  0.4958790000000  0.5302890000000  0.5828520000000 1.0
C      1  0.4821220000000  0.4507160000000  0.5577610000000 1.0
C      1  0.5699030000000  0.5326940000000  0.3964260000000 1.0
C      1  0.4919440000000  0.5081720000000  0.4134640000000 1.0
C      1  0.5396770000000  0.5170300000000  0.4914710000000 1.0
C      1  0.4616240000000  0.4206300000000  0.5416540000000 1.0
C      1  0.4732340000000  0.5572990000000  0.5641480000000 1.0
C      1  0.5152180000000  0.5519540000000  0.4438240000000 1.0
C      1  0.5417720000000  0.4412480000000  0.4404140000000 1.0
C      1  0.4960730000000  0.4961060000000  0.4776020000000 1.0
C      1  0.4152000000000  0.4733750000000  0.5233440000000 1.0
C      1  0.5528770000000  0.5364730000000  0.4170930000000 1.0
C      1  0.4503730000000  0.4503320000000  0.5538480000000 1.0
C      1  0.5891550000000  0.5042810000000  0.5330040000000 1.0
C      1  0.5192380000000  0.4953560000000  0.4163130000000 1.0
C      1  0.4288970000000  0.4794850000000  0.4669630000000 1.0
C      1  0.5334970000000  0.5820760000000  0.4999400000000 1.0
C      1  0.4517770000000  0.5227540000000  0.4593300000000 1.0
C      1  0.4650640000000  0.5643340000000  0.4846280000000 1.0
C      1  0.4613290000000  0.6377160000000  0.5043380000000 1.0
C      1  0.4143060000000  0.5244060000000  0.5341420000000 1.0
C      1  0.5263830000000  0.4696260000000  0.4347730000000 1.0
C      1  0.5303930000000  0.4911020000000  0.5426110000000 1.0
C      1  0.5048070000000  0.5547390000000  0.5630050000000 1.0
C      1  0.4696530000000  0.6136250000000  0.5055790000000 1.0
C      1  0.5077240000000  0.5090640000000  0.5324830000000 1.0
C      1  0.4547040000000  0.4108760000000  0.5110960000000 1.0
C      1  0.4949610000000  0.4257360000000  0.5406530000000 1.0
C      1  0.5340710000000  0.5271190000000  0.5204680000000 1.0
C      1  0.4949790000000  0.5368630000000  0.4131820000000 1.0
C      1  0.5544540000000  0.4604910000000  0.5203250000000 1.0
C      1  0.4367170000000  0.4942400000000  0.4969240000000 1.0
C      1  0.5808700000000  0.4860630000000  0.5588640000000 1.0
C      1  0.4927990000000  0.4484070000000  0.5026280000000 1.0
C      1  0.5355800000000  0.4263030000000  0.4629740000000 1.0
C      1  0.4163640000000  0.4601770000000  0.4919480000000 1.0
C      1  0.4641640000000  0.4436650000000  0.5168260000000 1.0
C      1  0.5565620000000  0.5286910000000  0.4437610000000 1.0
C      1  0.5752450000000  0.5182290000000  0.5099670000000 1.0
C      1  0.5671480000000  0.5434630000000  0.5036110000000 1.0
C      1  0.4643290000000  0.4635670000000  0.4596300000000 1.0
C      1  0.4371850000000  0.4746860000000  0.5478330000000 1.0
C      1  0.5686440000000  0.4861660000000  0.5041670000000 1.0
C      1  0.5626020000000  0.5743150000000  0.5170390000000 1.0
C      1  0.5203020000000  0.4273110000000  0.5287150000000 1.0
C      1  0.4801080000000  0.4190000000000  0.4900050000000 1.0
C      1  0.4854050000000  0.5511670000000  0.4395290000000 1.0
C      1  0.5071700000000  0.4950650000000  0.4480300000000 1.0
C      1  0.4854720000000  0.4634090000000  0.4258670000000 1.0
C      1  0.4873840000000  0.4842370000000  0.5595290000000 1.0
C      1  0.4105400000000  0.5039030000000  0.5167420000000 1.0
C      1  0.4524160000000  0.4996410000000  0.5478660000000 1.0
C      1  0.4571760000000  0.5624240000000  0.5191900000000 1.0
C      1  0.4795800000000  0.5848950000000  0.5070590000000 1.0
C      1  0.4529080000000  0.4934830000000  0.4473550000000 1.0
C      1  0.4738640000000  0.4886870000000  0.4243350000000 1.0
C      1  0.5523900000000  0.4859620000000  0.5678450000000 1.0
C      1  0.5330950000000  0.5385490000000  0.4651680000000 1.0
C      1  0.4383040000000  0.4464810000000  0.4696540000000 1.0
C      1  0.5390230000000  0.5151570000000  0.5732790000000 1.0
C      1  0.4664940000000  0.5468500000000  0.4585910000000 1.0
C      1  0.4878990000000  0.5072290000000  0.5800190000000 1.0
C      1  0.5351700000000  0.4589010000000  0.5655900000000 1.0
C      1  0.5232510000000  0.5288340000000  0.5537400000000 1.0
C      1  0.5444690000000  0.5564090000000  0.4870090000000 1.0
C      1  0.5242640000000  0.4902530000000  0.4906350000000 1.0
C      1  0.5261830000000  0.5472460000000  0.4148500000000 1.0
C      1  0.5244060000000  0.4603630000000  0.5068530000000 1.0
C      1  0.4707410000000  0.4970960000000  0.5008930000000 1.0
C      1  0.4793820000000  0.4702370000000  0.4857160000000 1.0
C      1  0.5263350000000  0.4282030000000  0.4956970000000 1.0
C      1  0.4962300000000  0.4522100000000  0.4544230000000 1.0
C      1  0.5551460000000  0.4679290000000  0.4787970000000 1.0
END
