TITL C-2778429-3646-351 0.112414687631127 125000 -1131.05368550834 0 0 196 (C1) n - 1
REM
REM in /home/nfs/bkarasulu/CARBON/AIRSS/Generating-Clusters/REBO/Only-C1/SD-CG/HFTN-CG
REM
REM
REM
REM
REM
REM ./C.cell (11c1c37f851c82e70ff6c80c92926a4b)
REM
REM compiler GCC version 9.2.1 20190827 (Red Hat 9.2.1-1)
REM options -cpp -mtune=generic -march=x86-64 -g -O0 -fpre-include=/usr/include/finclude/math-vector-fortran.h
REM seed -385466327 1524194979 -1921967631 1423658300 -1687413706 -1654605264 1766866144 -824851030 729478401 -1735573626 -526604149 872871290 1752566449 -1152189118 -1503871989 987058508 1301458773 -604696433 -861171933 837841343 1597842634 516068406 1000978394 445814390 -18932112 1078651649 1325228027 -175874727 -156820012 290459121 -997767745 -488716133 388009434
REM
CELL 1.54180   50.00000   50.00000   50.00000   90.00000   90.00000   90.00000
LATT -1
SFAC C  
C      1  0.4740760000000  0.5764870000000  0.5308280000000 1.0
C      1  0.6059210000000  0.5301510000000  0.4773450000000 1.0
C      1  0.5888230000000  0.5434250000000  0.4554150000000 1.0
C      1  0.5441970000000  0.5324710000000  0.4305390000000 1.0
C      1  0.5704410000000  0.4714070000000  0.5491270000000 1.0
C      1  0.5636030000000  0.4070220000000  0.5424670000000 1.0
C      1  0.5533030000000  0.4020970000000  0.4903930000000 1.0
C      1  0.4300300000000  0.5092100000000  0.4639600000000 1.0
C      1  0.5522100000000  0.5261730000000  0.5245290000000 1.0
C      1  0.4715750000000  0.5399160000000  0.4986140000000 1.0
C      1  0.6134390000000  0.5041330000000  0.4860480000000 1.0
C      1  0.4424010000000  0.5165390000000  0.5331380000000 1.0
C      1  0.5778070000000  0.5063400000000  0.5259340000000 1.0
C      1  0.5577390000000  0.4387940000000  0.5681820000000 1.0
C      1  0.4384620000000  0.6096270000000  0.4880840000000 1.0
C      1  0.4662100000000  0.4307960000000  0.4986990000000 1.0
C      1  0.4203740000000  0.4818850000000  0.4911090000000 1.0
C      1  0.5123820000000  0.5767750000000  0.5473920000000 1.0
C      1  0.5020530000000  0.4341200000000  0.5356540000000 1.0
C      1  0.4921930000000  0.4408060000000  0.4701730000000 1.0
C      1  0.5228260000000  0.5254510000000  0.5070510000000 1.0
C      1  0.5543030000000  0.5504970000000  0.5481640000000 1.0
C      1  0.4662190000000  0.5072590000000  0.5498570000000 1.0
C      1  0.5258690000000  0.4433360000000  0.4714570000000 1.0
C      1  0.5162760000000  0.5259770000000  0.6114370000000 1.0
C      1  0.4338860000000  0.4580760000000  0.5708170000000 1.0
C      1  0.4398240000000  0.4783650000000  0.5459540000000 1.0
C      1  0.4609660000000  0.5987220000000  0.5613320000000 1.0
C      1  0.4785880000000  0.4478650000000  0.5514830000000 1.0
C      1  0.6027990000000  0.5914780000000  0.4349920000000 1.0
C      1  0.5898370000000  0.5816410000000  0.5267930000000 1.0
C      1  0.4870290000000  0.5492240000000  0.5343010000000 1.0
C      1  0.5798980000000  0.4332990000000  0.5171890000000 1.0
C      1  0.4592080000000  0.4528010000000  0.4066800000000 1.0
C      1  0.4639310000000  0.5100740000000  0.4178990000000 1.0
C      1  0.5206780000000  0.6051840000000  0.4825360000000 1.0
C      1  0.4990090000000  0.5260520000000  0.4078650000000 1.0
C      1  0.4742930000000  0.5993040000000  0.4554260000000 1.0
C      1  0.5823380000000  0.5449750000000  0.4948500000000 1.0
C      1  0.4198600000000  0.5376590000000  0.4778270000000 1.0
C      1  0.4825950000000  0.5469240000000  0.5739550000000 1.0
C      1  0.3954960000000  0.4509500000000  0.4889170000000 1.0
C      1  0.4477520000000  0.5447900000000  0.5201000000000 1.0
C      1  0.4982810000000  0.4666670000000  0.4343230000000 1.0
C      1  0.4163080000000  0.4308520000000  0.5004190000000 1.0
C      1  0.5283170000000  0.4503100000000  0.5106500000000 1.0
C      1  0.4366030000000  0.4648580000000  0.4709840000000 1.0
C      1  0.3976920000000  0.4651590000000  0.4627490000000 1.0
C      1  0.5268540000000  0.5189360000000  0.5736410000000 1.0
C      1  0.4296620000000  0.4399230000000  0.5471050000000 1.0
C      1  0.5523430000000  0.5611030000000  0.4906480000000 1.0
C      1  0.5370310000000  0.4835530000000  0.4708010000000 1.0
C      1  0.4713570000000  0.5331440000000  0.4418330000000 1.0
C      1  0.5234200000000  0.5768400000000  0.4270020000000 1.0
C      1  0.4285190000000  0.5436960000000  0.4225880000000 1.0
C      1  0.4621540000000  0.4229450000000  0.5630580000000 1.0
C      1  0.4079640000000  0.4812620000000  0.5525890000000 1.0
C      1  0.5901880000000  0.4835880000000  0.4805700000000 1.0
C      1  0.6005080000000  0.4484330000000  0.4392390000000 1.0
C      1  0.5489620000000  0.3924630000000  0.5289350000000 1.0
C      1  0.4658040000000  0.4583160000000  0.4828110000000 1.0
C      1  0.4907720000000  0.4692470000000  0.6046050000000 1.0
C      1  0.4599150000000  0.4897710000000  0.5784540000000 1.0
C      1  0.6243870000000  0.4676150000000  0.5171640000000 1.0
C      1  0.5499590000000  0.4196590000000  0.4648390000000 1.0
C      1  0.3927010000000  0.4933300000000  0.4646570000000 1.0
C      1  0.4406970000000  0.5454940000000  0.4520200000000 1.0
C      1  0.4634180000000  0.5816940000000  0.5030240000000 1.0
C      1  0.4847420000000  0.6052230000000  0.5430170000000 1.0
C      1  0.4620820000000  0.5290160000000  0.5715810000000 1.0
C      1  0.4591260000000  0.5691910000000  0.4539560000000 1.0
C      1  0.5649000000000  0.4536300000000  0.4040120000000 1.0
C      1  0.5079980000000  0.4175550000000  0.5704720000000 1.0
C      1  0.4758800000000  0.5667230000000  0.5979440000000 1.0
C      1  0.5068680000000  0.3787370000000  0.4779020000000 1.0
C      1  0.4579330000000  0.4017950000000  0.5406150000000 1.0
C      1  0.5107980000000  0.4471240000000  0.4012390000000 1.0
C      1  0.5737980000000  0.4942350000000  0.5725130000000 1.0
C      1  0.5231030000000  0.5134050000000  0.4244600000000 1.0
C      1  0.4939450000000  0.4478820000000  0.5091920000000 1.0
C      1  0.5999510000000  0.4615340000000  0.5401100000000 1.0
C      1  0.4737470000000  0.5813960000000  0.4262660000000 1.0
C      1  0.4920220000000  0.4801310000000  0.5121690000000 1.0
C      1  0.5388060000000  0.4959230000000  0.5014720000000 1.0
C      1  0.5606180000000  0.5651010000000  0.5215680000000 1.0
C      1  0.4838300000000  0.5364480000000  0.6121930000000 1.0
C      1  0.4623700000000  0.4506520000000  0.4406220000000 1.0
C      1  0.5051450000000  0.4011960000000  0.5133270000000 1.0
C      1  0.5874960000000  0.4660810000000  0.4217250000000 1.0
C      1  0.4895020000000  0.4127040000000  0.4891960000000 1.0
C      1  0.5971040000000  0.5501840000000  0.5241200000000 1.0
C      1  0.4542370000000  0.4597780000000  0.5916350000000 1.0
C      1  0.5364610000000  0.4635200000000  0.3926060000000 1.0
C      1  0.5258930000000  0.4806640000000  0.3687350000000 1.0
C      1  0.5305150000000  0.4232090000000  0.4374080000000 1.0
C      1  0.4402230000000  0.5239710000000  0.5867370000000 1.0
C      1  0.5588350000000  0.4988910000000  0.4148790000000 1.0
C      1  0.3965490000000  0.5206210000000  0.4283630000000 1.0
C      1  0.5404380000000  0.5557930000000  0.4137160000000 1.0
C      1  0.5776160000000  0.4905360000000  0.4335610000000 1.0
C      1  0.4753830000000  0.5500460000000  0.4128860000000 1.0
C      1  0.5194620000000  0.5472480000000  0.5327600000000 1.0
C      1  0.5449810000000  0.5990240000000  0.5533280000000 1.0
C      1  0.4214980000000  0.5544290000000  0.5036180000000 1.0
C      1  0.6314060000000  0.4914270000000  0.5047650000000 1.0
C      1  0.5783150000000  0.4305200000000  0.4558220000000 1.0
C      1  0.4517340000000  0.5626940000000  0.5466270000000 1.0
C      1  0.4684330000000  0.4705980000000  0.5345190000000 1.0
C      1  0.5216480000000  0.4961390000000  0.5968600000000 1.0
C      1  0.5722990000000  0.5378050000000  0.5899980000000 1.0
C      1  0.5601110000000  0.5985060000000  0.5264040000000 1.0
C      1  0.4965930000000  0.4579350000000  0.5728930000000 1.0
C      1  0.4994850000000  0.5825780000000  0.5790080000000 1.0
C      1  0.5279080000000  0.5473420000000  0.4742320000000 1.0
C      1  0.4062560000000  0.5511440000000  0.5334600000000 1.0
C      1  0.4216490000000  0.5620680000000  0.5569110000000 1.0
C      1  0.5013620000000  0.5896080000000  0.4694900000000 1.0
C      1  0.4198090000000  0.5189410000000  0.5527190000000 1.0
C      1  0.4201230000000  0.5076450000000  0.4376550000000 1.0
C      1  0.4654210000000  0.6151710000000  0.4817830000000 1.0
C      1  0.4388990000000  0.4961370000000  0.4196990000000 1.0
C      1  0.4402820000000  0.4293820000000  0.4530730000000 1.0
C      1  0.4842590000000  0.5025210000000  0.6086230000000 1.0
C      1  0.3590010000000  0.5551830000000  0.4431920000000 1.0
C      1  0.4858440000000  0.4995110000000  0.3955890000000 1.0
C      1  0.4226010000000  0.4555490000000  0.4429730000000 1.0
C      1  0.4391780000000  0.4210820000000  0.4812950000000 1.0
C      1  0.4549450000000  0.3934500000000  0.4843090000000 1.0
C      1  0.5524570000000  0.4870050000000  0.5945900000000 1.0
C      1  0.5987390000000  0.4511980000000  0.5019610000000 1.0
C      1  0.3931260000000  0.5235110000000  0.5373390000000 1.0
C      1  0.4326140000000  0.4483500000000  0.5209000000000 1.0
C      1  0.3924200000000  0.5217280000000  0.4680540000000 1.0
C      1  0.4736090000000  0.4807960000000  0.4516910000000 1.0
C      1  0.5131890000000  0.6078770000000  0.5599610000000 1.0
C      1  0.4981430000000  0.5246450000000  0.4889880000000 1.0
C      1  0.5531420000000  0.4499440000000  0.5304330000000 1.0
C      1  0.5099190000000  0.5860770000000  0.5159100000000 1.0
C      1  0.4567510000000  0.5092590000000  0.5045630000000 1.0
C      1  0.5273790000000  0.4213080000000  0.4974940000000 1.0
C      1  0.5967260000000  0.4533230000000  0.4713810000000 1.0
C      1  0.4803650000000  0.3946070000000  0.4635320000000 1.0
C      1  0.4847710000000  0.6079400000000  0.5089160000000 1.0
C      1  0.5138720000000  0.5675470000000  0.4532920000000 1.0
C      1  0.4888100000000  0.4952780000000  0.4855560000000 1.0
C      1  0.4866460000000  0.4694950000000  0.4050090000000 1.0
C      1  0.5434060000000  0.4688750000000  0.5692920000000 1.0
C      1  0.4348640000000  0.4682660000000  0.4177970000000 1.0
C      1  0.5185780000000  0.4890820000000  0.5270300000000 1.0
C      1  0.5064260000000  0.4831830000000  0.4619440000000 1.0
C      1  0.4493170000000  0.4754020000000  0.5073040000000 1.0
C      1  0.5164990000000  0.4782360000000  0.5592360000000 1.0
C      1  0.5960220000000  0.5681790000000  0.4448940000000 1.0
C      1  0.4258170000000  0.4966030000000  0.5776920000000 1.0
C      1  0.4694240000000  0.4165350000000  0.4413890000000 1.0
C      1  0.5302680000000  0.4343520000000  0.5506370000000 1.0
C      1  0.5485510000000  0.5731250000000  0.5665990000000 1.0
C      1  0.4501690000000  0.3869120000000  0.5116550000000 1.0
C      1  0.4771750000000  0.5677180000000  0.4797460000000 1.0
C      1  0.4982640000000  0.5378680000000  0.4588400000000 1.0
C      1  0.4996910000000  0.5813710000000  0.4087160000000 1.0
C      1  0.4996920000000  0.4364370000000  0.5976620000000 1.0
C      1  0.5655800000000  0.5287020000000  0.4484310000000 1.0
C      1  0.5873750000000  0.4816410000000  0.5144850000000 1.0
C      1  0.4836700000000  0.4305730000000  0.4137060000000 1.0
C      1  0.5042980000000  0.4936030000000  0.3701210000000 1.0
C      1  0.4571700000000  0.4986140000000  0.4732450000000 1.0
C      1  0.5834430000000  0.4336090000000  0.5506010000000 1.0
C      1  0.5112310000000  0.5447280000000  0.5843820000000 1.0
C      1  0.4495060000000  0.5735060000000  0.5772800000000 1.0
C      1  0.5288050000000  0.5695700000000  0.5857780000000 1.0
C      1  0.5578420000000  0.4415520000000  0.4325560000000 1.0
C      1  0.4899700000000  0.5216200000000  0.5400620000000 1.0
C      1  0.3920600000000  0.4931350000000  0.5316150000000 1.0
C      1  0.4294770000000  0.4086210000000  0.5227560000000 1.0
C      1  0.5402380000000  0.5916730000000  0.5006870000000 1.0
C      1  0.5129010000000  0.5628520000000  0.4968200000000 1.0
C      1  0.5118010000000  0.5540470000000  0.3968760000000 1.0
C      1  0.4454470000000  0.5447150000000  0.4035840000000 1.0
C      1  0.4936160000000  0.4969950000000  0.5767130000000 1.0
C      1  0.5040040000000  0.4359990000000  0.4390180000000 1.0
C      1  0.5201120000000  0.5155010000000  0.5455950000000 1.0
C      1  0.4683020000000  0.4354970000000  0.5900630000000 1.0
C      1  0.5363590000000  0.4625430000000  0.4455340000000 1.0
C      1  0.5614020000000  0.5196840000000  0.4922650000000 1.0
C      1  0.4324050000000  0.5833220000000  0.4989900000000 1.0
C      1  0.5837300000000  0.5210250000000  0.5698580000000 1.0
C      1  0.5767130000000  0.4079900000000  0.5047190000000 1.0
C      1  0.3940500000000  0.4787020000000  0.5064680000000 1.0
C      1  0.5667620000000  0.4991030000000  0.4650890000000 1.0
C      1  0.5912110000000  0.5281240000000  0.5423120000000 1.0
C      1  0.5318630000000  0.4819800000000  0.4198540000000 1.0
C      1  0.5300000000000  0.3819450000000  0.5026500000000 1.0
C      1  0.4913630000000  0.4041790000000  0.5435080000000 1.0
C      1  0.3776870000000  0.5363500000000  0.4457740000000 1.0
C      1  0.5468160000000  0.5327950000000  0.5975840000000 1.0
END
