TITL C-2778428-5639-317 -0.000726125526510595 125000 -925.74057554578 0 0 157 (C1) n - 1
REM
REM in /home/nfs/bkarasulu/CARBON/AIRSS/Generating-Clusters/REBO/Only-C1/SD-CG/HFTN-CG
REM
REM
REM
REM
REM
REM ./C.cell (11c1c37f851c82e70ff6c80c92926a4b)
REM
REM compiler GCC version 9.2.1 20190827 (Red Hat 9.2.1-1)
REM options -cpp -mtune=generic -march=x86-64 -g -O0 -fpre-include=/usr/include/finclude/math-vector-fortran.h
REM seed -31810755 -99340793 -1233446976 -1403404838 -1827843401 -303040299 2069212863 -1871993116 1660917702 -128942624 -1297362310 1309084685 -1352263430 -1297395798 1300513618 -1823487821 -1038188897 -1681111597 1453097301 -1158797208 -2041877770 -2117028889 -145745524 -1462877233 -443833110 2039170792 198069977 -189272277 100787880 1056732189 -1202670051 -1687684731 976924518
REM
CELL 1.54180   50.00000   50.00000   50.00000   90.00000   90.00000   90.00000
LATT -1
SFAC C  
C      1  0.5980570000000  0.5081530000000  0.5316210000000 1.0
C      1  0.4652610000000  0.5440440000000  0.4488200000000 1.0
C      1  0.4133990000000  0.4419690000000  0.4639330000000 1.0
C      1  0.4155590000000  0.5745370000000  0.4836120000000 1.0
C      1  0.5588460000000  0.5059910000000  0.5365490000000 1.0
C      1  0.5037100000000  0.4362680000000  0.5038930000000 1.0
C      1  0.5854540000000  0.5548680000000  0.5169230000000 1.0
C      1  0.4698700000000  0.5830410000000  0.5701130000000 1.0
C      1  0.4226050000000  0.4468110000000  0.5288200000000 1.0
C      1  0.4199120000000  0.5532490000000  0.4655180000000 1.0
C      1  0.5071610000000  0.3985270000000  0.4748930000000 1.0
C      1  0.4374490000000  0.5027500000000  0.3580980000000 1.0
C      1  0.4286060000000  0.4921570000000  0.5715550000000 1.0
C      1  0.5278550000000  0.5704520000000  0.4024790000000 1.0
C      1  0.3949980000000  0.5025200000000  0.4774950000000 1.0
C      1  0.5498450000000  0.5171500000000  0.5734480000000 1.0
C      1  0.5839650000000  0.5156820000000  0.4561170000000 1.0
C      1  0.4246020000000  0.4988240000000  0.5411120000000 1.0
C      1  0.5136590000000  0.5354810000000  0.6121950000000 1.0
C      1  0.4494250000000  0.5132370000000  0.3789170000000 1.0
C      1  0.4768740000000  0.4392470000000  0.4585330000000 1.0
C      1  0.5147910000000  0.5754030000000  0.5548380000000 1.0
C      1  0.4553860000000  0.5649610000000  0.5006820000000 1.0
C      1  0.4791700000000  0.5639440000000  0.5209900000000 1.0
C      1  0.5851570000000  0.4364570000000  0.4982350000000 1.0
C      1  0.5389930000000  0.5403590000000  0.4676790000000 1.0
C      1  0.4459470000000  0.5771250000000  0.5387270000000 1.0
C      1  0.4392730000000  0.4709870000000  0.4729850000000 1.0
C      1  0.5608530000000  0.4215500000000  0.4915300000000 1.0
C      1  0.4241240000000  0.5676260000000  0.5138270000000 1.0
C      1  0.5929720000000  0.4596880000000  0.4823910000000 1.0
C      1  0.4618050000000  0.5240770000000  0.4004380000000 1.0
C      1  0.5252490000000  0.5985570000000  0.4732030000000 1.0
C      1  0.5082740000000  0.4646500000000  0.4021780000000 1.0
C      1  0.4802540000000  0.4459850000000  0.4076390000000 1.0
C      1  0.5700470000000  0.5160990000000  0.4301200000000 1.0
C      1  0.4140540000000  0.4872460000000  0.4594440000000 1.0
C      1  0.5140680000000  0.4034950000000  0.4458430000000 1.0
C      1  0.5243260000000  0.5114130000000  0.4655350000000 1.0
C      1  0.4555960000000  0.5106310000000  0.5486900000000 1.0
C      1  0.5058210000000  0.4469960000000  0.4293400000000 1.0
C      1  0.5222830000000  0.4974720000000  0.4932560000000 1.0
C      1  0.5005300000000  0.5312950000000  0.4614960000000 1.0
C      1  0.4408430000000  0.5939220000000  0.4889800000000 1.0
C      1  0.5492010000000  0.5858840000000  0.4525590000000 1.0
C      1  0.5891400000000  0.4337820000000  0.5269330000000 1.0
C      1  0.5360310000000  0.5814580000000  0.5339090000000 1.0
C      1  0.5214240000000  0.4498590000000  0.5958990000000 1.0
C      1  0.5608870000000  0.5431500000000  0.4238500000000 1.0
C      1  0.5113780000000  0.4768030000000  0.5682860000000 1.0
C      1  0.5084640000000  0.5077500000000  0.4291640000000 1.0
C      1  0.4606980000000  0.4882640000000  0.4929840000000 1.0
C      1  0.4536270000000  0.5418120000000  0.5807320000000 1.0
C      1  0.5143660000000  0.4221820000000  0.5864090000000 1.0
C      1  0.4385100000000  0.5532250000000  0.5590840000000 1.0
C      1  0.5544760000000  0.4746640000000  0.5384570000000 1.0
C      1  0.5422390000000  0.4639760000000  0.4872380000000 1.0
C      1  0.5410430000000  0.5256070000000  0.4986270000000 1.0
C      1  0.4728260000000  0.6028760000000  0.4911850000000 1.0
C      1  0.5802680000000  0.5206640000000  0.5579320000000 1.0
C      1  0.5672800000000  0.4201400000000  0.5409040000000 1.0
C      1  0.4530200000000  0.5091100000000  0.5817230000000 1.0
C      1  0.5102320000000  0.4609920000000  0.4829740000000 1.0
C      1  0.4813060000000  0.5217780000000  0.5078310000000 1.0
C      1  0.5233970000000  0.4899930000000  0.4060610000000 1.0
C      1  0.5171700000000  0.5790780000000  0.5865690000000 1.0
C      1  0.5918470000000  0.4811250000000  0.5257950000000 1.0
C      1  0.5190670000000  0.5656100000000  0.4688420000000 1.0
C      1  0.5135390000000  0.4787260000000  0.5186440000000 1.0
C      1  0.5906020000000  0.5242640000000  0.5080970000000 1.0
C      1  0.5021750000000  0.5437870000000  0.5544980000000 1.0
C      1  0.5768440000000  0.4655450000000  0.4538840000000 1.0
C      1  0.4962940000000  0.4637290000000  0.4541060000000 1.0
C      1  0.5655950000000  0.4595430000000  0.4269960000000 1.0
C      1  0.4752370000000  0.4489000000000  0.5623520000000 1.0
C      1  0.5266790000000  0.4258390000000  0.4331690000000 1.0
C      1  0.4479270000000  0.4508900000000  0.4981530000000 1.0
C      1  0.4325140000000  0.5056290000000  0.4906820000000 1.0
C      1  0.5561600000000  0.5598050000000  0.5325580000000 1.0
C      1  0.4103590000000  0.4811030000000  0.4986320000000 1.0
C      1  0.5084480000000  0.5346210000000  0.4945510000000 1.0
C      1  0.4545070000000  0.5995740000000  0.5197730000000 1.0
C      1  0.4914850000000  0.4860170000000  0.4933920000000 1.0
C      1  0.4565970000000  0.4864060000000  0.4302620000000 1.0
C      1  0.4878280000000  0.5655920000000  0.4805180000000 1.0
C      1  0.5530740000000  0.5587680000000  0.4471420000000 1.0
C      1  0.4841870000000  0.4701660000000  0.5780050000000 1.0
C      1  0.4832960000000  0.5727900000000  0.4415420000000 1.0
C      1  0.4943850000000  0.5087130000000  0.6038320000000 1.0
C      1  0.5683410000000  0.5562010000000  0.4903740000000 1.0
C      1  0.5437710000000  0.5323650000000  0.5276490000000 1.0
C      1  0.4026880000000  0.4559070000000  0.4815080000000 1.0
C      1  0.5428430000000  0.5281890000000  0.5990380000000 1.0
C      1  0.4407810000000  0.4229890000000  0.5165740000000 1.0
C      1  0.5359150000000  0.4218030000000  0.5350320000000 1.0
C      1  0.4717030000000  0.5376620000000  0.4797410000000 1.0
C      1  0.5185340000000  0.3883980000000  0.4990140000000 1.0
C      1  0.4757810000000  0.5357710000000  0.5377220000000 1.0
C      1  0.5552900000000  0.4864440000000  0.4686510000000 1.0
C      1  0.4603240000000  0.4248090000000  0.4251970000000 1.0
C      1  0.5361170000000  0.4785560000000  0.5902000000000 1.0
C      1  0.5091080000000  0.5643500000000  0.5071900000000 1.0
C      1  0.5600620000000  0.4375860000000  0.5643590000000 1.0
C      1  0.4871070000000  0.4197170000000  0.4835290000000 1.0
C      1  0.4921010000000  0.5947860000000  0.4660350000000 1.0
C      1  0.4998400000000  0.5634620000000  0.6022620000000 1.0
C      1  0.5650160000000  0.4787230000000  0.5065060000000 1.0
C      1  0.5366460000000  0.4341990000000  0.4955890000000 1.0
C      1  0.5316280000000  0.4497570000000  0.5632290000000 1.0
C      1  0.4234900000000  0.4666850000000  0.5794770000000 1.0
C      1  0.5832660000000  0.5512740000000  0.5503920000000 1.0
C      1  0.5409130000000  0.5691050000000  0.4951720000000 1.0
C      1  0.4536400000000  0.4300110000000  0.5630670000000 1.0
C      1  0.5947740000000  0.4902470000000  0.4671040000000 1.0
C      1  0.4550400000000  0.4195350000000  0.4868120000000 1.0
C      1  0.4502780000000  0.4101130000000  0.4544860000000 1.0
C      1  0.5789670000000  0.4593550000000  0.5660220000000 1.0
C      1  0.4789650000000  0.4968800000000  0.5297700000000 1.0
C      1  0.4254290000000  0.5283290000000  0.4783310000000 1.0
C      1  0.5507370000000  0.5550960000000  0.4000980000000 1.0
C      1  0.4099810000000  0.5223110000000  0.5285200000000 1.0
C      1  0.5557160000000  0.4883190000000  0.4165030000000 1.0
C      1  0.5249850000000  0.5214560000000  0.5505580000000 1.0
C      1  0.5790500000000  0.5400240000000  0.4709930000000 1.0
C      1  0.5134190000000  0.4026820000000  0.5232990000000 1.0
C      1  0.4829810000000  0.4084170000000  0.4447010000000 1.0
C      1  0.4879410000000  0.4118590000000  0.5313650000000 1.0
C      1  0.4867710000000  0.4455270000000  0.5318100000000 1.0
C      1  0.4730710000000  0.5616170000000  0.5901660000000 1.0
C      1  0.5679340000000  0.5079580000000  0.4919400000000 1.0
C      1  0.4505200000000  0.4563200000000  0.4193690000000 1.0
C      1  0.4848370000000  0.5806720000000  0.5471480000000 1.0
C      1  0.5520200000000  0.4357860000000  0.4252700000000 1.0
C      1  0.3963600000000  0.5181230000000  0.5038430000000 1.0
C      1  0.4369650000000  0.5589500000000  0.4438870000000 1.0
C      1  0.4197350000000  0.5470350000000  0.5364200000000 1.0
C      1  0.4583760000000  0.4134990000000  0.5391470000000 1.0
C      1  0.5015710000000  0.5296730000000  0.5815300000000 1.0
C      1  0.4268670000000  0.4750990000000  0.4352380000000 1.0
C      1  0.5377580000000  0.4961980000000  0.4425360000000 1.0
C      1  0.4306540000000  0.4404210000000  0.5760580000000 1.0
C      1  0.4557870000000  0.5710040000000  0.4214980000000 1.0
C      1  0.4678990000000  0.4674960000000  0.5193840000000 1.0
C      1  0.4858100000000  0.4904910000000  0.4433250000000 1.0
C      1  0.5291140000000  0.5987120000000  0.5070720000000 1.0
C      1  0.5002660000000  0.5384250000000  0.4304560000000 1.0
C      1  0.5093010000000  0.4954720000000  0.5450510000000 1.0
C      1  0.5084340000000  0.5683470000000  0.4208140000000 1.0
C      1  0.4451420000000  0.4437930000000  0.4568700000000 1.0
C      1  0.4665360000000  0.5172250000000  0.4327650000000 1.0
C      1  0.4744530000000  0.4917680000000  0.5941750000000 1.0
C      1  0.5605060000000  0.4852390000000  0.5704910000000 1.0
C      1  0.5196510000000  0.4116500000000  0.5617640000000 1.0
C      1  0.4753120000000  0.5490390000000  0.4104980000000 1.0
C      1  0.5951170000000  0.4583500000000  0.5418750000000 1.0
C      1  0.4179290000000  0.4735830000000  0.5260310000000 1.0
C      1  0.5295760000000  0.4540740000000  0.5300700000000 1.0
END
