TITL C-2778430-5657-270 0.00745710991484517 125000 -619.34735371449 0 0 107 (C1) n - 1
REM
REM in /home/nfs/bkarasulu/CARBON/AIRSS/Generating-Clusters/REBO/Only-C1/SD-CG/HFTN-CG
REM
REM
REM
REM
REM
REM ./C.cell (11c1c37f851c82e70ff6c80c92926a4b)
REM
REM compiler GCC version 9.2.1 20190827 (Red Hat 9.2.1-1)
REM options -cpp -mtune=generic -march=x86-64 -g -O0 -fpre-include=/usr/include/finclude/math-vector-fortran.h
REM seed 621021066 2123312361 -1741318877 -1088665470 2112123565 -921294663 1868269476 -512356062 -1238209629 -4934057 -63703595 -47095110 -118332733 -165560226 1091483645 271151573 1594755598 1188655550 918127677 -1345421347 837321318 721030755 -599051399 -1619215615 -19956502 937999658 -2063165622 76851269 -474484950 1776682700 1618945048 239055103 -1926727026
REM
CELL 1.54180   50.00000   50.00000   50.00000   90.00000   90.00000   90.00000
LATT -1
SFAC C  
C      1  0.4712260000000  0.4355380000000  0.5544230000000 1.0
C      1  0.4955330000000  0.4855540000000  0.4597710000000 1.0
C      1  0.5250680000000  0.4831780000000  0.4088120000000 1.0
C      1  0.5169240000000  0.5386280000000  0.5225660000000 1.0
C      1  0.5638400000000  0.4592190000000  0.5466320000000 1.0
C      1  0.4290400000000  0.4676570000000  0.4703280000000 1.0
C      1  0.4674440000000  0.5471500000000  0.5077520000000 1.0
C      1  0.4412410000000  0.5404280000000  0.5537710000000 1.0
C      1  0.4424120000000  0.5325380000000  0.4927020000000 1.0
C      1  0.4911240000000  0.5274730000000  0.5080040000000 1.0
C      1  0.5278280000000  0.4421630000000  0.4404350000000 1.0
C      1  0.4449590000000  0.5885850000000  0.4882060000000 1.0
C      1  0.5635610000000  0.4927340000000  0.5242330000000 1.0
C      1  0.4439090000000  0.4598020000000  0.4476510000000 1.0
C      1  0.4089130000000  0.4867790000000  0.5116150000000 1.0
C      1  0.4802300000000  0.5740940000000  0.5214990000000 1.0
C      1  0.4625770000000  0.4347840000000  0.4484460000000 1.0
C      1  0.4961070000000  0.4265040000000  0.5621480000000 1.0
C      1  0.5385870000000  0.4601130000000  0.4966470000000 1.0
C      1  0.5413070000000  0.4909100000000  0.5059590000000 1.0
C      1  0.4529090000000  0.4150030000000  0.4303500000000 1.0
C      1  0.5649650000000  0.5010580000000  0.5561530000000 1.0
C      1  0.5217600000000  0.4412330000000  0.5527790000000 1.0
C      1  0.5029100000000  0.5736800000000  0.4575690000000 1.0
C      1  0.5433910000000  0.5348990000000  0.5074210000000 1.0
C      1  0.5900810000000  0.5213530000000  0.5130730000000 1.0
C      1  0.4190340000000  0.5361120000000  0.5125670000000 1.0
C      1  0.4635010000000  0.4246390000000  0.4778540000000 1.0
C      1  0.4833830000000  0.5718590000000  0.4320360000000 1.0
C      1  0.4563520000000  0.4875680000000  0.5312750000000 1.0
C      1  0.5600900000000  0.5840800000000  0.4749960000000 1.0
C      1  0.5952790000000  0.5357130000000  0.4888610000000 1.0
C      1  0.4423160000000  0.5685170000000  0.5101530000000 1.0
C      1  0.4493690000000  0.5342930000000  0.4411040000000 1.0
C      1  0.4293180000000  0.5294010000000  0.4648560000000 1.0
C      1  0.5548830000000  0.5535410000000  0.4646850000000 1.0
C      1  0.4452330000000  0.4789470000000  0.4933800000000 1.0
C      1  0.5364140000000  0.5208860000000  0.4508240000000 1.0
C      1  0.5638750000000  0.4471910000000  0.4815560000000 1.0
C      1  0.5897340000000  0.4630690000000  0.4906960000000 1.0
C      1  0.5718380000000  0.4083290000000  0.5587890000000 1.0
C      1  0.4970160000000  0.4961260000000  0.4339580000000 1.0
C      1  0.5374410000000  0.4261720000000  0.4757450000000 1.0
C      1  0.5887930000000  0.4803340000000  0.5434320000000 1.0
C      1  0.4269260000000  0.5567370000000  0.5334580000000 1.0
C      1  0.5332800000000  0.4712570000000  0.5418840000000 1.0
C      1  0.5455430000000  0.4607320000000  0.4575340000000 1.0
C      1  0.4365820000000  0.4760500000000  0.5566140000000 1.0
C      1  0.4665200000000  0.4651240000000  0.5630250000000 1.0
C      1  0.5419110000000  0.4982420000000  0.4256700000000 1.0
C      1  0.4521840000000  0.4575090000000  0.5150060000000 1.0
C      1  0.5099540000000  0.5672890000000  0.5275630000000 1.0
C      1  0.4129340000000  0.5115420000000  0.5250040000000 1.0
C      1  0.4995530000000  0.4556580000000  0.4996680000000 1.0
C      1  0.5094730000000  0.5203250000000  0.4328960000000 1.0
C      1  0.5072430000000  0.4561320000000  0.4193650000000 1.0
C      1  0.4590820000000  0.4182840000000  0.5350470000000 1.0
C      1  0.4351350000000  0.5088990000000  0.5476570000000 1.0
C      1  0.4493660000000  0.5101970000000  0.4234070000000 1.0
C      1  0.5936980000000  0.4876370000000  0.5109010000000 1.0
C      1  0.4894940000000  0.4093310000000  0.4857070000000 1.0
C      1  0.5678780000000  0.4335260000000  0.5527690000000 1.0
C      1  0.4822640000000  0.5713690000000  0.5553240000000 1.0
C      1  0.4999590000000  0.5163980000000  0.5389940000000 1.0
C      1  0.4827300000000  0.5038200000000  0.4771580000000 1.0
C      1  0.4944160000000  0.4379050000000  0.4451720000000 1.0
C      1  0.4672950000000  0.5478560000000  0.5636000000000 1.0
C      1  0.4711720000000  0.5491630000000  0.4626510000000 1.0
C      1  0.5445100000000  0.4849080000000  0.5703600000000 1.0
C      1  0.5572150000000  0.5313990000000  0.5581900000000 1.0
C      1  0.5501660000000  0.5916530000000  0.5068960000000 1.0
C      1  0.4838430000000  0.5255630000000  0.5660910000000 1.0
C      1  0.4227800000000  0.4663460000000  0.5270170000000 1.0
C      1  0.4744570000000  0.5943330000000  0.5000000000000 1.0
C      1  0.4832040000000  0.4859730000000  0.5197790000000 1.0
C      1  0.5363770000000  0.5634460000000  0.4982730000000 1.0
C      1  0.5338160000000  0.5891560000000  0.5322860000000 1.0
C      1  0.5586150000000  0.4851000000000  0.4458450000000 1.0
C      1  0.4919760000000  0.4744690000000  0.5836960000000 1.0
C      1  0.4965720000000  0.4235640000000  0.5222790000000 1.0
C      1  0.4078920000000  0.5119460000000  0.4664790000000 1.0
C      1  0.4748690000000  0.4015250000000  0.5141160000000 1.0
C      1  0.4911240000000  0.4821110000000  0.4058300000000 1.0
C      1  0.5311160000000  0.5216780000000  0.5784620000000 1.0
C      1  0.5668140000000  0.5322470000000  0.5272380000000 1.0
C      1  0.5694210000000  0.5034660000000  0.4640960000000 1.0
C      1  0.5752810000000  0.5332380000000  0.4684300000000 1.0
C      1  0.4721190000000  0.5803420000000  0.4694190000000 1.0
C      1  0.5109770000000  0.4213760000000  0.4699350000000 1.0
C      1  0.5219090000000  0.4614440000000  0.5786890000000 1.0
C      1  0.5319370000000  0.5513030000000  0.5683620000000 1.0
C      1  0.5162560000000  0.5749760000000  0.5582910000000 1.0
C      1  0.5239490000000  0.4403890000000  0.5188230000000 1.0
C      1  0.4080260000000  0.4872580000000  0.4817890000000 1.0
C      1  0.5267430000000  0.5838230000000  0.4753140000000 1.0
C      1  0.4457610000000  0.4784160000000  0.4275590000000 1.0
C      1  0.4844590000000  0.4938250000000  0.5588990000000 1.0
C      1  0.5149380000000  0.4657170000000  0.4722320000000 1.0
C      1  0.5216010000000  0.5460580000000  0.4642570000000 1.0
C      1  0.5189660000000  0.4945730000000  0.5890310000000 1.0
C      1  0.5439560000000  0.5135100000000  0.4835070000000 1.0
C      1  0.5126310000000  0.4803560000000  0.5191420000000 1.0
C      1  0.4578320000000  0.5035570000000  0.4898890000000 1.0
C      1  0.4725870000000  0.4402280000000  0.5044840000000 1.0
C      1  0.4624660000000  0.4886600000000  0.4027230000000 1.0
C      1  0.4940060000000  0.5333290000000  0.4752100000000 1.0
C      1  0.4625240000000  0.5599190000000  0.4252980000000 1.0
END
