TITL C-2778432-5617-1334 -0.0102621092241153 125000 -1079.10950421711 0 0 183 (C1) n - 1
REM
REM in /home/nfs/bkarasulu/CARBON/AIRSS/Generating-Clusters/REBO/Only-C1/SD-CG/HFTN-CG
REM
REM
REM
REM
REM
REM ./C.cell (11c1c37f851c82e70ff6c80c92926a4b)
REM
REM compiler GCC version 9.2.1 20190827 (Red Hat 9.2.1-1)
REM options -cpp -mtune=generic -march=x86-64 -g -O0 -fpre-include=/usr/include/finclude/math-vector-fortran.h
REM seed 1910074153 -1608607935 1888853221 -494049627 325958584 -1014119538 844024299 -1519628651 -23970026 -917842175 1634513916 1617264354 -1011044784 1847472837 751055277 -1520490771 192155894 647105537 1512494261 1506610669 -1751753735 298766624 -1012721972 -971524284 550373978 1710211257 -527476771 1674305343 1361731810 -46403585 1970550115 -2070836763 26398453
REM
CELL 1.54180   50.00000   50.00000   50.00000   90.00000   90.00000   90.00000
LATT -1
SFAC C  
C      1  0.5219380000000  0.5024200000000  0.5178250000000 1.0
C      1  0.5799830000000  0.5380930000000  0.4788700000000 1.0
C      1  0.5845300000000  0.5229110000000  0.4487700000000 1.0
C      1  0.3999060000000  0.4673430000000  0.5432310000000 1.0
C      1  0.5752240000000  0.4217720000000  0.5189840000000 1.0
C      1  0.4569920000000  0.5323610000000  0.5721480000000 1.0
C      1  0.5063250000000  0.3941210000000  0.5056470000000 1.0
C      1  0.4816770000000  0.6089890000000  0.5481500000000 1.0
C      1  0.4891720000000  0.3957890000000  0.4758520000000 1.0
C      1  0.5586810000000  0.4873060000000  0.5138360000000 1.0
C      1  0.5486920000000  0.4382930000000  0.5636090000000 1.0
C      1  0.4529400000000  0.4679390000000  0.4375580000000 1.0
C      1  0.5346400000000  0.4878750000000  0.4894060000000 1.0
C      1  0.5050030000000  0.4123760000000  0.5891770000000 1.0
C      1  0.5832480000000  0.5677880000000  0.4641380000000 1.0
C      1  0.3971810000000  0.5243420000000  0.5235280000000 1.0
C      1  0.5358860000000  0.5687130000000  0.5044060000000 1.0
C      1  0.4688960000000  0.5303810000000  0.4993060000000 1.0
C      1  0.4372680000000  0.4627090000000  0.5120980000000 1.0
C      1  0.4995910000000  0.5250230000000  0.5151230000000 1.0
C      1  0.5639620000000  0.5683230000000  0.5415280000000 1.0
C      1  0.5903400000000  0.5496260000000  0.5152960000000 1.0
C      1  0.4591070000000  0.5437660000000  0.4689090000000 1.0
C      1  0.5145180000000  0.4824610000000  0.5960480000000 1.0
C      1  0.5494780000000  0.4224850000000  0.5379800000000 1.0
C      1  0.3995490000000  0.4538930000000  0.4559010000000 1.0
C      1  0.5675920000000  0.5102880000000  0.5607640000000 1.0
C      1  0.5889220000000  0.5738540000000  0.4948010000000 1.0
C      1  0.5030830000000  0.5059260000000  0.6095800000000 1.0
C      1  0.5661530000000  0.5813130000000  0.5135670000000 1.0
C      1  0.5196610000000  0.5052350000000  0.4002120000000 1.0
C      1  0.4534660000000  0.5977000000000  0.5075720000000 1.0
C      1  0.5404460000000  0.5814400000000  0.5595980000000 1.0
C      1  0.4228170000000  0.5037440000000  0.5152070000000 1.0
C      1  0.4839510000000  0.4361290000000  0.5017850000000 1.0
C      1  0.6044500000000  0.4940400000000  0.5445250000000 1.0
C      1  0.6165680000000  0.4841690000000  0.4410770000000 1.0
C      1  0.4418760000000  0.4985820000000  0.5374000000000 1.0
C      1  0.4375720000000  0.4078010000000  0.4604380000000 1.0
C      1  0.4609290000000  0.4464540000000  0.4842470000000 1.0
C      1  0.4801770000000  0.4767950000000  0.3933290000000 1.0
C      1  0.6009540000000  0.4695010000000  0.5115630000000 1.0
C      1  0.5344940000000  0.4650410000000  0.4474460000000 1.0
C      1  0.4551430000000  0.4761860000000  0.4906710000000 1.0
C      1  0.5063890000000  0.4738840000000  0.4947540000000 1.0
C      1  0.4046500000000  0.5429960000000  0.4824690000000 1.0
C      1  0.5424260000000  0.4755070000000  0.5940630000000 1.0
C      1  0.4561000000000  0.5892370000000  0.5370930000000 1.0
C      1  0.4556750000000  0.3985360000000  0.4813330000000 1.0
C      1  0.5494690000000  0.4995640000000  0.4159130000000 1.0
C      1  0.4485550000000  0.4130600000000  0.4319710000000 1.0
C      1  0.5325170000000  0.4287740000000  0.4920460000000 1.0
C      1  0.5142910000000  0.5592430000000  0.6000970000000 1.0
C      1  0.4657290000000  0.5583800000000  0.5825320000000 1.0
C      1  0.5093510000000  0.5348390000000  0.4852910000000 1.0
C      1  0.5086980000000  0.6103750000000  0.5038090000000 1.0
C      1  0.5429800000000  0.5417890000000  0.5407770000000 1.0
C      1  0.5071780000000  0.6124390000000  0.5321640000000 1.0
C      1  0.4689800000000  0.4559290000000  0.4091010000000 1.0
C      1  0.4392680000000  0.5161370000000  0.4068490000000 1.0
C      1  0.5364360000000  0.4696810000000  0.4057100000000 1.0
C      1  0.5490710000000  0.5337190000000  0.4164150000000 1.0
C      1  0.5345010000000  0.5951360000000  0.4629720000000 1.0
C      1  0.4621040000000  0.5736450000000  0.4514650000000 1.0
C      1  0.4451280000000  0.4098970000000  0.5090320000000 1.0
C      1  0.5377480000000  0.5690990000000  0.5862100000000 1.0
C      1  0.6015480000000  0.5137890000000  0.4836480000000 1.0
C      1  0.4065370000000  0.4756120000000  0.5136940000000 1.0
C      1  0.4197560000000  0.5634840000000  0.5056660000000 1.0
C      1  0.4417680000000  0.4786130000000  0.5633930000000 1.0
C      1  0.5244750000000  0.4368280000000  0.4635770000000 1.0
C      1  0.4894940000000  0.4996480000000  0.4522570000000 1.0
C      1  0.4386270000000  0.5428390000000  0.4213130000000 1.0
C      1  0.4313960000000  0.4413430000000  0.4392250000000 1.0
C      1  0.5580220000000  0.4434910000000  0.4906150000000 1.0
C      1  0.5230790000000  0.3995280000000  0.4774210000000 1.0
C      1  0.4599590000000  0.5842420000000  0.5695030000000 1.0
C      1  0.5635780000000  0.4986420000000  0.5926960000000 1.0
C      1  0.5117570000000  0.5391570000000  0.5409060000000 1.0
C      1  0.4190050000000  0.4321020000000  0.4703710000000 1.0
C      1  0.4976440000000  0.5657540000000  0.5430930000000 1.0
C      1  0.6140370000000  0.5013770000000  0.5128280000000 1.0
C      1  0.4420890000000  0.5588860000000  0.5302690000000 1.0
C      1  0.5042580000000  0.4014830000000  0.5578040000000 1.0
C      1  0.5180500000000  0.5304710000000  0.6066650000000 1.0
C      1  0.5088630000000  0.4765940000000  0.3918360000000 1.0
C      1  0.5807230000000  0.5406310000000  0.5528180000000 1.0
C      1  0.5440720000000  0.4276660000000  0.4373450000000 1.0
C      1  0.5235440000000  0.4346070000000  0.5762600000000 1.0
C      1  0.5590540000000  0.5436970000000  0.5030090000000 1.0
C      1  0.5627080000000  0.4676180000000  0.5674990000000 1.0
C      1  0.4990350000000  0.4513370000000  0.4746210000000 1.0
C      1  0.4843770000000  0.4702090000000  0.4504240000000 1.0
C      1  0.5921870000000  0.4732110000000  0.4343400000000 1.0
C      1  0.5106550000000  0.5635830000000  0.4575170000000 1.0
C      1  0.3929100000000  0.5197530000000  0.4942050000000 1.0
C      1  0.5425130000000  0.5235150000000  0.4484930000000 1.0
C      1  0.4745130000000  0.4970330000000  0.5017510000000 1.0
C      1  0.4326610000000  0.5360540000000  0.5536360000000 1.0
C      1  0.4965010000000  0.4347400000000  0.5574340000000 1.0
C      1  0.5303890000000  0.5976400000000  0.4909670000000 1.0
C      1  0.5902090000000  0.4889270000000  0.5747370000000 1.0
C      1  0.4134000000000  0.5165340000000  0.5590020000000 1.0
C      1  0.4915780000000  0.5634040000000  0.4125070000000 1.0
C      1  0.4336660000000  0.4212810000000  0.5375670000000 1.0
C      1  0.3944620000000  0.4918960000000  0.4897510000000 1.0
C      1  0.5084640000000  0.4601520000000  0.5220480000000 1.0
C      1  0.4756810000000  0.4029860000000  0.5449370000000 1.0
C      1  0.6017670000000  0.5258810000000  0.5329990000000 1.0
C      1  0.4537320000000  0.4604530000000  0.5375640000000 1.0
C      1  0.4239300000000  0.4344830000000  0.5012980000000 1.0
C      1  0.4853290000000  0.6024710000000  0.5789770000000 1.0
C      1  0.5158080000000  0.5423730000000  0.4362390000000 1.0
C      1  0.4178610000000  0.5640620000000  0.4658230000000 1.0
C      1  0.4984490000000  0.5042780000000  0.4810690000000 1.0
C      1  0.4111210000000  0.4408160000000  0.5327660000000 1.0
C      1  0.4778520000000  0.5185520000000  0.5545980000000 1.0
C      1  0.4706510000000  0.5154020000000  0.4311150000000 1.0
C      1  0.5235870000000  0.4327050000000  0.5196520000000 1.0
C      1  0.5834320000000  0.4890340000000  0.4911510000000 1.0
C      1  0.4335820000000  0.5240910000000  0.4580430000000 1.0
C      1  0.5063740000000  0.4539220000000  0.4334900000000 1.0
C      1  0.5290140000000  0.4941950000000  0.4497840000000 1.0
C      1  0.4694590000000  0.4619050000000  0.5685690000000 1.0
C      1  0.4030920000000  0.5502510000000  0.5298770000000 1.0
C      1  0.4830160000000  0.5976070000000  0.4934340000000 1.0
C      1  0.4748740000000  0.5066970000000  0.6121530000000 1.0
C      1  0.5498700000000  0.5198110000000  0.5198170000000 1.0
C      1  0.4069150000000  0.4826450000000  0.4656450000000 1.0
C      1  0.5153740000000  0.5875300000000  0.5470940000000 1.0
C      1  0.5209860000000  0.5484430000000  0.4041190000000 1.0
C      1  0.4877940000000  0.5574350000000  0.4771280000000 1.0
C      1  0.4375150000000  0.4871360000000  0.4135360000000 1.0
C      1  0.4540940000000  0.4169150000000  0.5569900000000 1.0
C      1  0.4745310000000  0.5571480000000  0.5199180000000 1.0
C      1  0.5092280000000  0.5945710000000  0.4467430000000 1.0
C      1  0.5864680000000  0.4662340000000  0.5423200000000 1.0
C      1  0.4286410000000  0.5875380000000  0.4869680000000 1.0
C      1  0.4985400000000  0.5063910000000  0.5682740000000 1.0
C      1  0.4690000000000  0.5424420000000  0.4104550000000 1.0
C      1  0.5513180000000  0.5710720000000  0.4575280000000 1.0
C      1  0.4775930000000  0.4062950000000  0.5138210000000 1.0
C      1  0.5163700000000  0.4807890000000  0.5434020000000 1.0
C      1  0.5452180000000  0.5229780000000  0.5913490000000 1.0
C      1  0.4387960000000  0.5105770000000  0.4877940000000 1.0
C      1  0.4954540000000  0.5273900000000  0.3958530000000 1.0
C      1  0.6144840000000  0.5084080000000  0.4541930000000 1.0
C      1  0.4681030000000  0.5067130000000  0.5314740000000 1.0
C      1  0.4117780000000  0.4872270000000  0.5609140000000 1.0
C      1  0.4345040000000  0.5608230000000  0.4424860000000 1.0
C      1  0.4910000000000  0.4387720000000  0.4161810000000 1.0
C      1  0.5227670000000  0.4019530000000  0.5333170000000 1.0
C      1  0.5361110000000  0.5447400000000  0.4703820000000 1.0
C      1  0.5611060000000  0.4839690000000  0.4703690000000 1.0
C      1  0.4701920000000  0.5046100000000  0.3985650000000 1.0
C      1  0.5469880000000  0.4887920000000  0.5457980000000 1.0
C      1  0.4627520000000  0.4335810000000  0.5788480000000 1.0
C      1  0.5018040000000  0.5710020000000  0.5039510000000 1.0
C      1  0.5697650000000  0.5504160000000  0.4376100000000 1.0
C      1  0.5097460000000  0.5116930000000  0.4297510000000 1.0
C      1  0.5921890000000  0.4407670000000  0.4955610000000 1.0
C      1  0.4972770000000  0.4746840000000  0.5700510000000 1.0
C      1  0.4140170000000  0.4694300000000  0.4290320000000 1.0
C      1  0.4404560000000  0.4853570000000  0.4643870000000 1.0
C      1  0.4853760000000  0.5820980000000  0.4328790000000 1.0
C      1  0.4651180000000  0.4366380000000  0.4593660000000 1.0
C      1  0.4131770000000  0.5020040000000  0.4407810000000 1.0
C      1  0.5694700000000  0.4960000000000  0.4394870000000 1.0
C      1  0.4815010000000  0.4468090000000  0.5331080000000 1.0
C      1  0.5704260000000  0.4055790000000  0.4934150000000 1.0
C      1  0.5540200000000  0.5458420000000  0.5727720000000 1.0
C      1  0.5675170000000  0.4577140000000  0.4496690000000 1.0
C      1  0.5530640000000  0.4088740000000  0.4643440000000 1.0
C      1  0.4759760000000  0.4103910000000  0.4493330000000 1.0
C      1  0.5768010000000  0.4335090000000  0.4658240000000 1.0
C      1  0.5439900000000  0.4435710000000  0.4152100000000 1.0
C      1  0.4579740000000  0.5933740000000  0.4735440000000 1.0
C      1  0.4059540000000  0.5329480000000  0.4420850000000 1.0
C      1  0.4901310000000  0.5732850000000  0.5931960000000 1.0
C      1  0.5650420000000  0.4548040000000  0.5206730000000 1.0
C      1  0.4797000000000  0.4216190000000  0.5982730000000 1.0
C      1  0.4533800000000  0.5138890000000  0.5970550000000 1.0
C      1  0.5222360000000  0.5220720000000  0.5679380000000 1.0
END
