TITL C-2778429-3646-1261 0.0010336419923369 125000 -368.335850620661 0 0 65 (C1) n - 1
REM
REM in /home/nfs/bkarasulu/CARBON/AIRSS/Generating-Clusters/REBO/Only-C1/SD-CG/HFTN-CG
REM
REM
REM
REM
REM
REM ./C.cell (11c1c37f851c82e70ff6c80c92926a4b)
REM
REM compiler GCC version 9.2.1 20190827 (Red Hat 9.2.1-1)
REM options -cpp -mtune=generic -march=x86-64 -g -O0 -fpre-include=/usr/include/finclude/math-vector-fortran.h
REM seed 1622924085 159824064 476177007 1227550283 -70663913 -1912104609 -1569877810 -111272778 -1902620588 -2059755631 1601998640 1160364052 -512448554 -1463825082 -203730842 -823330366 -826648051 -1232128781 -1759438077 442822084 -3166221 -1376793858 -408611030 -1550792138 -1875034332 981712710 1837033561 1051090570 505261599 -1214665214 1610078147 323556839 -970589549
REM
CELL 1.54180   50.00000   50.00000   50.00000   90.00000   90.00000   90.00000
LATT -1
SFAC C  
C      1  0.4723550000000  0.5115940000000  0.5385350000000 1.0
C      1  0.5196730000000  0.4902990000000  0.5216150000000 1.0
C      1  0.5134040000000  0.4677000000000  0.5539060000000 1.0
C      1  0.5186130000000  0.4188070000000  0.5298210000000 1.0
C      1  0.4637660000000  0.4717000000000  0.4349170000000 1.0
C      1  0.4710990000000  0.4552770000000  0.4573350000000 1.0
C      1  0.5728310000000  0.5300670000000  0.5040340000000 1.0
C      1  0.5781820000000  0.4753300000000  0.5069230000000 1.0
C      1  0.4949760000000  0.5113270000000  0.4883440000000 1.0
C      1  0.5439840000000  0.5015850000000  0.4688000000000 1.0
C      1  0.5237070000000  0.5466380000000  0.4660860000000 1.0
C      1  0.5136410000000  0.4404720000000  0.5612550000000 1.0
C      1  0.4617790000000  0.4738970000000  0.5452490000000 1.0
C      1  0.5186260000000  0.4907320000000  0.5775000000000 1.0
C      1  0.5154810000000  0.5708190000000  0.5253760000000 1.0
C      1  0.5130390000000  0.4230250000000  0.4777710000000 1.0
C      1  0.5498280000000  0.5576890000000  0.4709580000000 1.0
C      1  0.4911150000000  0.4754930000000  0.5316770000000 1.0
C      1  0.4946190000000  0.5736180000000  0.5057340000000 1.0
C      1  0.5152470000000  0.5476390000000  0.5425670000000 1.0
C      1  0.4771330000000  0.4379590000000  0.5076670000000 1.0
C      1  0.5716360000000  0.5396540000000  0.4763880000000 1.0
C      1  0.4252800000000  0.5135310000000  0.5204820000000 1.0
C      1  0.4674640000000  0.4312990000000  0.4813640000000 1.0
C      1  0.4426210000000  0.5010680000000  0.5378150000000 1.0
C      1  0.5092600000000  0.4352970000000  0.5087310000000 1.0
C      1  0.5935220000000  0.5185540000000  0.5205140000000 1.0
C      1  0.5190570000000  0.5191880000000  0.4738280000000 1.0
C      1  0.5351660000000  0.4544430000000  0.4743190000000 1.0
C      1  0.5499510000000  0.4842360000000  0.4964600000000 1.0
C      1  0.5011870000000  0.4849640000000  0.3948350000000 1.0
C      1  0.5488690000000  0.5142810000000  0.5086740000000 1.0
C      1  0.4286600000000  0.5009750000000  0.4643220000000 1.0
C      1  0.4810300000000  0.5516580000000  0.4436720000000 1.0
C      1  0.4738100000000  0.5537430000000  0.5104460000000 1.0
C      1  0.4482470000000  0.5275150000000  0.4721310000000 1.0
C      1  0.5427300000000  0.4844430000000  0.5582820000000 1.0
C      1  0.4822320000000  0.4870460000000  0.4121490000000 1.0
C      1  0.4163760000000  0.5105500000000  0.4892930000000 1.0
C      1  0.5408770000000  0.4724470000000  0.4577270000000 1.0
C      1  0.4910180000000  0.4278130000000  0.4612220000000 1.0
C      1  0.4139850000000  0.4701790000000  0.4964720000000 1.0
C      1  0.4589120000000  0.4545150000000  0.5208520000000 1.0
C      1  0.5685240000000  0.5166350000000  0.4589690000000 1.0
C      1  0.4681230000000  0.5513040000000  0.5385280000000 1.0
C      1  0.4676670000000  0.4980520000000  0.5685150000000 1.0
C      1  0.5688540000000  0.4888990000000  0.5513310000000 1.0
C      1  0.4664400000000  0.4709890000000  0.4852210000000 1.0
C      1  0.4311810000000  0.5380100000000  0.4996560000000 1.0
C      1  0.4732360000000  0.5312210000000  0.4920170000000 1.0
C      1  0.4629350000000  0.5317010000000  0.4443730000000 1.0
C      1  0.4898650000000  0.5430880000000  0.5558550000000 1.0
C      1  0.4968260000000  0.5148290000000  0.5280960000000 1.0
C      1  0.4400920000000  0.4662870000000  0.5001030000000 1.0
C      1  0.5257490000000  0.4624690000000  0.5048250000000 1.0
C      1  0.5290510000000  0.5217910000000  0.5307800000000 1.0
C      1  0.5868190000000  0.4916150000000  0.5292440000000 1.0
C      1  0.4871910000000  0.4848030000000  0.4991750000000 1.0
C      1  0.5094930000000  0.5040480000000  0.5989750000000 1.0
C      1  0.4365920000000  0.4893300000000  0.4402740000000 1.0
C      1  0.4964630000000  0.5829320000000  0.4790100000000 1.0
C      1  0.5838510000000  0.5095480000000  0.4373240000000 1.0
C      1  0.4835300000000  0.5229280000000  0.5751850000000 1.0
C      1  0.5015750000000  0.5634140000000  0.4590000000000 1.0
C      1  0.4609570000000  0.5070420000000  0.4274930000000 1.0
END
