TITL C-2778436-5916-546 0.00516848081759819 125000 -856.558451641005 0 0 146 (C1) n - 1
REM
REM in /home/nfs/bkarasulu/CARBON/AIRSS/Generating-Clusters/REBO/Only-C1/SD-CG/HFTN-CG
REM
REM
REM
REM
REM
REM ./C.cell (11c1c37f851c82e70ff6c80c92926a4b)
REM
REM compiler GCC version 9.2.1 20190827 (Red Hat 9.2.1-1)
REM options -cpp -mtune=generic -march=x86-64 -g -O0 -fpre-include=/usr/include/finclude/math-vector-fortran.h
REM seed -511816347 -1902138828 -2034869337 -1854987522 1218486290 -1081157491 542713379 -1237747205 784772180 -796924848 -1299538992 -1775355468 1607765480 593859015 -1450778877 1007489154 1184862796 -918533074 -552489251 2035200597 -1328738134 669376608 -1540993201 -1972964866 -166804067 1336507643 -470427062 1090198877 217662672 2147306698 1120272889 -326374465 -260249365
REM
CELL 1.54180   50.00000   50.00000   50.00000   90.00000   90.00000   90.00000
LATT -1
SFAC C  
C      1  0.4731520000000  0.4841760000000  0.4488140000000 1.0
C      1  0.5577880000000  0.5270770000000  0.5744650000000 1.0
C      1  0.5091670000000  0.5839760000000  0.5192590000000 1.0
C      1  0.4386460000000  0.4631690000000  0.4775280000000 1.0
C      1  0.4427510000000  0.5067350000000  0.5550020000000 1.0
C      1  0.5076160000000  0.3930210000000  0.5435370000000 1.0
C      1  0.4563450000000  0.5060460000000  0.4685860000000 1.0
C      1  0.5639320000000  0.4732110000000  0.4392920000000 1.0
C      1  0.5676690000000  0.4663120000000  0.4938750000000 1.0
C      1  0.4665100000000  0.4183390000000  0.5344140000000 1.0
C      1  0.4966570000000  0.5349390000000  0.6273440000000 1.0
C      1  0.4835400000000  0.4742980000000  0.5037550000000 1.0
C      1  0.4938890000000  0.5642370000000  0.5328150000000 1.0
C      1  0.5257010000000  0.6029190000000  0.4969230000000 1.0
C      1  0.4701440000000  0.5115400000000  0.5041630000000 1.0
C      1  0.5353770000000  0.4357290000000  0.5833610000000 1.0
C      1  0.4663300000000  0.5276560000000  0.5990960000000 1.0
C      1  0.5340520000000  0.4424320000000  0.4667110000000 1.0
C      1  0.5184340000000  0.5509530000000  0.4775000000000 1.0
C      1  0.4649510000000  0.4324770000000  0.5591290000000 1.0
C      1  0.5397930000000  0.5964060000000  0.5273730000000 1.0
C      1  0.5299800000000  0.4082650000000  0.4470660000000 1.0
C      1  0.4757800000000  0.4852400000000  0.5335510000000 1.0
C      1  0.4151700000000  0.4703220000000  0.4460120000000 1.0
C      1  0.5035410000000  0.4600010000000  0.4399790000000 1.0
C      1  0.5539630000000  0.5379340000000  0.4232960000000 1.0
C      1  0.5064000000000  0.4840560000000  0.5350180000000 1.0
C      1  0.5243130000000  0.4869220000000  0.4423560000000 1.0
C      1  0.5376650000000  0.4345940000000  0.4351030000000 1.0
C      1  0.4269520000000  0.5056940000000  0.4954470000000 1.0
C      1  0.5143890000000  0.4158890000000  0.5633380000000 1.0
C      1  0.4650600000000  0.5536270000000  0.5892370000000 1.0
C      1  0.4955050000000  0.5561410000000  0.4159360000000 1.0
C      1  0.5483620000000  0.4178460000000  0.5017720000000 1.0
C      1  0.5202680000000  0.4987490000000  0.5922760000000 1.0
C      1  0.5808860000000  0.4654170000000  0.4614160000000 1.0
C      1  0.4975990000000  0.5267510000000  0.5752340000000 1.0
C      1  0.5108380000000  0.4522900000000  0.4846350000000 1.0
C      1  0.5679120000000  0.5592190000000  0.4432840000000 1.0
C      1  0.4891870000000  0.4815850000000  0.4184620000000 1.0
C      1  0.4168730000000  0.4973360000000  0.5467290000000 1.0
C      1  0.5040630000000  0.5041240000000  0.3986060000000 1.0
C      1  0.4487340000000  0.4595630000000  0.5580700000000 1.0
C      1  0.6046700000000  0.4774960000000  0.5039020000000 1.0
C      1  0.5766060000000  0.5263010000000  0.4452550000000 1.0
C      1  0.4150970000000  0.5029290000000  0.4387480000000 1.0
C      1  0.4418680000000  0.5505290000000  0.5236130000000 1.0
C      1  0.4595200000000  0.5822050000000  0.4504740000000 1.0
C      1  0.4372620000000  0.4753550000000  0.4206300000000 1.0
C      1  0.4569550000000  0.4552470000000  0.4173520000000 1.0
C      1  0.5070440000000  0.5717080000000  0.4387540000000 1.0
C      1  0.4753760000000  0.5146320000000  0.4351310000000 1.0
C      1  0.4859030000000  0.5343390000000  0.5471120000000 1.0
C      1  0.5589600000000  0.4845390000000  0.5214300000000 1.0
C      1  0.5392740000000  0.5023230000000  0.5724360000000 1.0
C      1  0.5887560000000  0.4765820000000  0.5341740000000 1.0
C      1  0.5005340000000  0.3898400000000  0.5200480000000 1.0
C      1  0.4724760000000  0.5503770000000  0.5118340000000 1.0
C      1  0.4198560000000  0.5673630000000  0.4743590000000 1.0
C      1  0.4219720000000  0.5575860000000  0.4251430000000 1.0
C      1  0.5736230000000  0.4363210000000  0.5004170000000 1.0
C      1  0.4004280000000  0.4748330000000  0.4763220000000 1.0
C      1  0.5776220000000  0.5026860000000  0.5622730000000 1.0
C      1  0.5261240000000  0.4385200000000  0.5447900000000 1.0
C      1  0.4346410000000  0.4845780000000  0.6015870000000 1.0
C      1  0.5437680000000  0.4721820000000  0.4737780000000 1.0
C      1  0.5811480000000  0.4434970000000  0.5304810000000 1.0
C      1  0.4251900000000  0.5151600000000  0.4643480000000 1.0
C      1  0.5252000000000  0.4118720000000  0.4799570000000 1.0
C      1  0.4659630000000  0.4148360000000  0.4816700000000 1.0
C      1  0.4388910000000  0.5863890000000  0.4696290000000 1.0
C      1  0.4880620000000  0.4270450000000  0.5124300000000 1.0
C      1  0.5034410000000  0.4319050000000  0.3967980000000 1.0
C      1  0.5271230000000  0.5349250000000  0.4281740000000 1.0
C      1  0.4208190000000  0.5345390000000  0.5107760000000 1.0
C      1  0.5974290000000  0.5098940000000  0.5384360000000 1.0
C      1  0.3993220000000  0.4781070000000  0.5034930000000 1.0
C      1  0.4670660000000  0.5524900000000  0.4125080000000 1.0
C      1  0.5070080000000  0.4444810000000  0.5900820000000 1.0
C      1  0.5635090000000  0.5303330000000  0.5431150000000 1.0
C      1  0.5526270000000  0.5031600000000  0.4428090000000 1.0
C      1  0.4877040000000  0.5829490000000  0.4583620000000 1.0
C      1  0.4304280000000  0.4426120000000  0.4588280000000 1.0
C      1  0.5638090000000  0.5901670000000  0.5368590000000 1.0
C      1  0.5179500000000  0.4754180000000  0.5063890000000 1.0
C      1  0.5613660000000  0.5091690000000  0.5021270000000 1.0
C      1  0.5295080000000  0.5200250000000  0.5002570000000 1.0
C      1  0.5867510000000  0.5256330000000  0.5110430000000 1.0
C      1  0.4555820000000  0.5773590000000  0.5665030000000 1.0
C      1  0.4667340000000  0.5153090000000  0.5358680000000 1.0
C      1  0.5418890000000  0.5494000000000  0.5869320000000 1.0
C      1  0.5131330000000  0.4437360000000  0.5177780000000 1.0
C      1  0.4946610000000  0.5920710000000  0.4886080000000 1.0
C      1  0.5646260000000  0.5000130000000  0.4728400000000 1.0
C      1  0.5570500000000  0.4529080000000  0.5758230000000 1.0
C      1  0.4347740000000  0.5653370000000  0.5457300000000 1.0
C      1  0.5959350000000  0.5124800000000  0.4660460000000 1.0
C      1  0.4808020000000  0.4993580000000  0.5864950000000 1.0
C      1  0.5531190000000  0.5634790000000  0.5090730000000 1.0
C      1  0.5240280000000  0.4982550000000  0.4746210000000 1.0
C      1  0.4401010000000  0.4793290000000  0.4982690000000 1.0
C      1  0.4350290000000  0.5077840000000  0.4114820000000 1.0
C      1  0.5452940000000  0.4588230000000  0.4231380000000 1.0
C      1  0.4606840000000  0.5245630000000  0.4146330000000 1.0
C      1  0.4486850000000  0.5687050000000  0.4269280000000 1.0
C      1  0.5731780000000  0.4717250000000  0.5649340000000 1.0
C      1  0.5149690000000  0.5356090000000  0.4540150000000 1.0
C      1  0.4497200000000  0.4223900000000  0.4551980000000 1.0
C      1  0.5856880000000  0.5743170000000  0.5397980000000 1.0
C      1  0.5222830000000  0.4775700000000  0.4095800000000 1.0
C      1  0.4048410000000  0.5071520000000  0.5203410000000 1.0
C      1  0.4168220000000  0.5413660000000  0.4805390000000 1.0
C      1  0.4175990000000  0.4685940000000  0.5476440000000 1.0
C      1  0.6036560000000  0.5311660000000  0.4888190000000 1.0
C      1  0.4552180000000  0.5336130000000  0.4877140000000 1.0
C      1  0.6001240000000  0.4823950000000  0.4770250000000 1.0
C      1  0.5524610000000  0.4289060000000  0.5325350000000 1.0
C      1  0.4635620000000  0.5913020000000  0.5363930000000 1.0
C      1  0.5091550000000  0.5307770000000  0.4050970000000 1.0
C      1  0.5167080000000  0.5482960000000  0.5852410000000 1.0
C      1  0.5037910000000  0.5421290000000  0.5014070000000 1.0
C      1  0.5386070000000  0.4884160000000  0.5439260000000 1.0
C      1  0.5024010000000  0.4745730000000  0.5860280000000 1.0
C      1  0.5503240000000  0.5844520000000  0.4907390000000 1.0
C      1  0.4504320000000  0.4673960000000  0.5251400000000 1.0
C      1  0.4534740000000  0.4869070000000  0.5772770000000 1.0
C      1  0.5562520000000  0.5800360000000  0.4647230000000 1.0
C      1  0.4108210000000  0.4580960000000  0.5216110000000 1.0
C      1  0.4330340000000  0.4415640000000  0.5106500000000 1.0
C      1  0.5925740000000  0.5441100000000  0.5383520000000 1.0
C      1  0.4133790000000  0.5319470000000  0.4210280000000 1.0
C      1  0.4885300000000  0.4418630000000  0.4176530000000 1.0
C      1  0.5349330000000  0.5709840000000  0.4435300000000 1.0
C      1  0.4859770000000  0.4604020000000  0.4664520000000 1.0
C      1  0.5458030000000  0.5403060000000  0.5211510000000 1.0
C      1  0.4491500000000  0.4189840000000  0.5095290000000 1.0
C      1  0.4720530000000  0.4468270000000  0.4922470000000 1.0
C      1  0.4712220000000  0.5945440000000  0.5131600000000 1.0
C      1  0.4937400000000  0.5173430000000  0.4571940000000 1.0
C      1  0.4628570000000  0.4266700000000  0.4311400000000 1.0
C      1  0.4972100000000  0.4042310000000  0.4907790000000 1.0
C      1  0.4924950000000  0.4993940000000  0.4842080000000 1.0
C      1  0.5189640000000  0.4654520000000  0.5582780000000 1.0
C      1  0.4864660000000  0.4278840000000  0.5763020000000 1.0
C      1  0.5078540000000  0.5180230000000  0.6097100000000 1.0
C      1  0.4850180000000  0.5630880000000  0.5642510000000 1.0
END
