TITL C-2778436-5916-327 -0.00289086643694846 125000 -280.115186974155 0 0 48 (C1) n - 1
REM
REM in /home/nfs/bkarasulu/CARBON/AIRSS/Generating-Clusters/REBO/Only-C1/SD-CG/HFTN-CG
REM
REM
REM
REM
REM
REM ./C.cell (11c1c37f851c82e70ff6c80c92926a4b)
REM
REM compiler GCC version 9.2.1 20190827 (Red Hat 9.2.1-1)
REM options -cpp -mtune=generic -march=x86-64 -g -O0 -fpre-include=/usr/include/finclude/math-vector-fortran.h
REM seed 864935111 -385207776 -1407342224 -438765000 1970362207 1283635091 1633307263 283711683 -1695897326 535572296 -712506643 1628436341 72530390 1056247930 2103323213 -1239594038 -449711491 -1969722786 1075499630 -279444316 271752717 -1314802275 -806685631 -915899217 410964937 -711426108 -1103519495 1317147073 -1908287022 -34964758 888872423 -1915986185 1542702531
REM
CELL 1.54180   50.00000   50.00000   50.00000   90.00000   90.00000   90.00000
LATT -1
SFAC C  
C      1  0.4819720000000  0.4732150000000  0.5421270000000 1.0
C      1  0.4580230000000  0.5389250000000  0.5316900000000 1.0
C      1  0.5262240000000  0.4611840000000  0.4564170000000 1.0
C      1  0.4385140000000  0.4980910000000  0.5153650000000 1.0
C      1  0.4931860000000  0.4344350000000  0.5105770000000 1.0
C      1  0.5041630000000  0.4952680000000  0.4791640000000 1.0
C      1  0.5479610000000  0.5102650000000  0.4262020000000 1.0
C      1  0.4487280000000  0.4758210000000  0.5388150000000 1.0
C      1  0.4764600000000  0.5311140000000  0.4284020000000 1.0
C      1  0.4579580000000  0.4911790000000  0.4901110000000 1.0
C      1  0.4363260000000  0.5272380000000  0.5199210000000 1.0
C      1  0.5526770000000  0.5112890000000  0.5438560000000 1.0
C      1  0.5305740000000  0.5517950000000  0.5017570000000 1.0
C      1  0.4854470000000  0.4427330000000  0.4846160000000 1.0
C      1  0.5470920000000  0.4583290000000  0.5284840000000 1.0
C      1  0.5301870000000  0.4889850000000  0.5478130000000 1.0
C      1  0.5390500000000  0.4660340000000  0.5014350000000 1.0
C      1  0.5149110000000  0.5445990000000  0.5421690000000 1.0
C      1  0.5033840000000  0.5517100000000  0.4958750000000 1.0
C      1  0.5057810000000  0.4424260000000  0.4644290000000 1.0
C      1  0.5265640000000  0.4451020000000  0.5444620000000 1.0
C      1  0.5422760000000  0.5341370000000  0.5283630000000 1.0
C      1  0.5323100000000  0.4342420000000  0.5687440000000 1.0
C      1  0.5151200000000  0.5662420000000  0.5574010000000 1.0
C      1  0.4496640000000  0.5434010000000  0.4419650000000 1.0
C      1  0.4571180000000  0.4948650000000  0.5642270000000 1.0
C      1  0.5154610000000  0.4830160000000  0.5024770000000 1.0
C      1  0.4885640000000  0.5285450000000  0.5370150000000 1.0
C      1  0.4699930000000  0.5256630000000  0.4588070000000 1.0
C      1  0.4625160000000  0.4590730000000  0.4849160000000 1.0
C      1  0.5145350000000  0.4879650000000  0.4533870000000 1.0
C      1  0.5623170000000  0.4802180000000  0.5443240000000 1.0
C      1  0.5655830000000  0.5162020000000  0.4778360000000 1.0
C      1  0.4994880000000  0.4473450000000  0.5347340000000 1.0
C      1  0.5676030000000  0.5083940000000  0.4461640000000 1.0
C      1  0.4267650000000  0.5533450000000  0.4539040000000 1.0
C      1  0.4845980000000  0.5046740000000  0.5557060000000 1.0
C      1  0.4785930000000  0.5113200000000  0.4830530000000 1.0
C      1  0.4154050000000  0.5519570000000  0.4785140000000 1.0
C      1  0.5085850000000  0.4859870000000  0.5300210000000 1.0
C      1  0.5546770000000  0.5321580000000  0.4966920000000 1.0
C      1  0.4996930000000  0.5197900000000  0.4185380000000 1.0
C      1  0.4191420000000  0.5418180000000  0.5033070000000 1.0
C      1  0.5681960000000  0.4848000000000  0.4681560000000 1.0
C      1  0.4863610000000  0.5317990000000  0.5046910000000 1.0
C      1  0.5494710000000  0.4639630000000  0.4745750000000 1.0
C      1  0.5204070000000  0.5047250000000  0.4303550000000 1.0
C      1  0.4403740000000  0.4646200000000  0.5084440000000 1.0
END
