TITL C-2778423-5760-113 0.00240941031964526 125000 -1001.94856470857 0 0 173 (C1) n - 1
REM
REM in /home/nfs/bkarasulu/CARBON/AIRSS/Generating-Clusters/REBO/Only-C1/SD-CG/HFTN-CG
REM
REM
REM
REM
REM
REM ./C.cell (11c1c37f851c82e70ff6c80c92926a4b)
REM
REM compiler GCC version 9.2.1 20190827 (Red Hat 9.2.1-1)
REM options -cpp -mtune=generic -march=x86-64 -g -O0 -fpre-include=/usr/include/finclude/math-vector-fortran.h
REM seed 474943029 -1984722821 -1872780537 -1558044297 809859429 1135409429 -1790061251 795551080 1418954595 -2027339391 1792496993 1831112279 1822600505 457581118 -38204865 2131166596 1693300466 -104844394 -728290891 24114712 1530834625 -1867534555 14137167 -362162279 199540858 2019512398 594620500 -203411545 -773657837 -1967629176 2030568615 -1556962067 -968457793
REM
CELL 1.54180   50.00000   50.00000   50.00000   90.00000   90.00000   90.00000
LATT -1
SFAC C  
C      1  0.5525680000000  0.6004700000000  0.5073130000000 1.0
C      1  0.5853640000000  0.4854370000000  0.4906650000000 1.0
C      1  0.4454190000000  0.4889380000000  0.5704850000000 1.0
C      1  0.5062240000000  0.4881280000000  0.4421030000000 1.0
C      1  0.4635110000000  0.4223180000000  0.4800330000000 1.0
C      1  0.4032720000000  0.5007090000000  0.5362770000000 1.0
C      1  0.4415180000000  0.5685450000000  0.5145990000000 1.0
C      1  0.4839820000000  0.4512260000000  0.5528020000000 1.0
C      1  0.5512100000000  0.4273520000000  0.4457460000000 1.0
C      1  0.5902120000000  0.4582490000000  0.4731200000000 1.0
C      1  0.4109520000000  0.5300800000000  0.5257930000000 1.0
C      1  0.5006390000000  0.6250240000000  0.4490690000000 1.0
C      1  0.4680120000000  0.5250740000000  0.6095950000000 1.0
C      1  0.4836280000000  0.5638000000000  0.5609960000000 1.0
C      1  0.5221670000000  0.6132570000000  0.4351740000000 1.0
C      1  0.5471650000000  0.4854490000000  0.5933060000000 1.0
C      1  0.5326180000000  0.5744490000000  0.5739090000000 1.0
C      1  0.4980740000000  0.4773100000000  0.6037280000000 1.0
C      1  0.4690170000000  0.4836520000000  0.4057970000000 1.0
C      1  0.5543220000000  0.4887460000000  0.5321870000000 1.0
C      1  0.4537420000000  0.5794060000000  0.4865170000000 1.0
C      1  0.4701730000000  0.5259400000000  0.4534390000000 1.0
C      1  0.5206360000000  0.5564390000000  0.5482470000000 1.0
C      1  0.5490690000000  0.5647890000000  0.4407560000000 1.0
C      1  0.4512300000000  0.5193290000000  0.5843730000000 1.0
C      1  0.4874430000000  0.5024620000000  0.5833420000000 1.0
C      1  0.4863240000000  0.5247430000000  0.5152650000000 1.0
C      1  0.4567500000000  0.4872780000000  0.4878540000000 1.0
C      1  0.4700140000000  0.6048530000000  0.4886840000000 1.0
C      1  0.4387260000000  0.5709310000000  0.4570690000000 1.0
C      1  0.5759040000000  0.4440840000000  0.4485870000000 1.0
C      1  0.4912630000000  0.6083130000000  0.4705550000000 1.0
C      1  0.4522310000000  0.5448870000000  0.4836680000000 1.0
C      1  0.5355250000000  0.4648620000000  0.4026910000000 1.0
C      1  0.4287960000000  0.5021500000000  0.4812800000000 1.0
C      1  0.4572910000000  0.5703970000000  0.5813910000000 1.0
C      1  0.4912710000000  0.5435030000000  0.6080630000000 1.0
C      1  0.5102040000000  0.5787130000000  0.5277720000000 1.0
C      1  0.4935610000000  0.4724030000000  0.4986830000000 1.0
C      1  0.4406100000000  0.5519970000000  0.4133970000000 1.0
C      1  0.4260590000000  0.5529900000000  0.5411930000000 1.0
C      1  0.5480110000000  0.4590150000000  0.5330370000000 1.0
C      1  0.4880570000000  0.5276000000000  0.4166170000000 1.0
C      1  0.3964360000000  0.4990370000000  0.4798940000000 1.0
C      1  0.6001040000000  0.4749910000000  0.4457080000000 1.0
C      1  0.4320940000000  0.5791360000000  0.5620870000000 1.0
C      1  0.4699430000000  0.5573450000000  0.4573540000000 1.0
C      1  0.5243620000000  0.4079100000000  0.4358130000000 1.0
C      1  0.5715240000000  0.5681140000000  0.5450490000000 1.0
C      1  0.5053530000000  0.4825520000000  0.5648870000000 1.0
C      1  0.4801170000000  0.4386220000000  0.5150720000000 1.0
C      1  0.4687640000000  0.4678290000000  0.5200760000000 1.0
C      1  0.4844500000000  0.5749280000000  0.5991520000000 1.0
C      1  0.5244760000000  0.3866650000000  0.4934240000000 1.0
C      1  0.5092010000000  0.4539840000000  0.5834250000000 1.0
C      1  0.4105360000000  0.4683620000000  0.5342540000000 1.0
C      1  0.5583450000000  0.4834200000000  0.4197840000000 1.0
C      1  0.5223060000000  0.4079690000000  0.5631340000000 1.0
C      1  0.4949120000000  0.3884970000000  0.5000780000000 1.0
C      1  0.5113590000000  0.5462080000000  0.4279600000000 1.0
C      1  0.5160250000000  0.4897470000000  0.3912480000000 1.0
C      1  0.5831970000000  0.4938670000000  0.5212310000000 1.0
C      1  0.5171430000000  0.5656120000000  0.6031140000000 1.0
C      1  0.5686750000000  0.5452830000000  0.4245010000000 1.0
C      1  0.5884680000000  0.5359000000000  0.4428760000000 1.0
C      1  0.5495930000000  0.4354740000000  0.5544050000000 1.0
C      1  0.4411570000000  0.4210900000000  0.4542520000000 1.0
C      1  0.5888500000000  0.5348380000000  0.4698150000000 1.0
C      1  0.5486260000000  0.5048150000000  0.5043720000000 1.0
C      1  0.5694740000000  0.5008090000000  0.5899970000000 1.0
C      1  0.5851550000000  0.4960310000000  0.4619800000000 1.0
C      1  0.5099340000000  0.5834380000000  0.4711240000000 1.0
C      1  0.4907610000000  0.4130350000000  0.4328430000000 1.0
C      1  0.5408250000000  0.5379780000000  0.4125930000000 1.0
C      1  0.4627610000000  0.4169190000000  0.4289460000000 1.0
C      1  0.4409550000000  0.4819980000000  0.6017570000000 1.0
C      1  0.4574680000000  0.4382590000000  0.4085040000000 1.0
C      1  0.5669050000000  0.5345460000000  0.5481290000000 1.0
C      1  0.5010240000000  0.4250630000000  0.5774360000000 1.0
C      1  0.4326070000000  0.5714680000000  0.4270730000000 1.0
C      1  0.4945340000000  0.5163690000000  0.4705870000000 1.0
C      1  0.5095170000000  0.4436900000000  0.5003850000000 1.0
C      1  0.5871380000000  0.5225410000000  0.5278870000000 1.0
C      1  0.4065750000000  0.4800280000000  0.4564650000000 1.0
C      1  0.4222330000000  0.4771100000000  0.4263900000000 1.0
C      1  0.4836720000000  0.5141780000000  0.5537420000000 1.0
C      1  0.5026250000000  0.4399990000000  0.4450770000000 1.0
C      1  0.5037920000000  0.4579440000000  0.3915460000000 1.0
C      1  0.5170700000000  0.5269580000000  0.5942280000000 1.0
C      1  0.5453130000000  0.4075270000000  0.5401780000000 1.0
C      1  0.5401110000000  0.4038020000000  0.5111810000000 1.0
C      1  0.5446620000000  0.4733600000000  0.4948260000000 1.0
C      1  0.4344030000000  0.5090040000000  0.5128710000000 1.0
C      1  0.5394520000000  0.4798550000000  0.4625970000000 1.0
C      1  0.5145150000000  0.4549240000000  0.5379790000000 1.0
C      1  0.5028570000000  0.5870940000000  0.5730210000000 1.0
C      1  0.4174920000000  0.5509050000000  0.5025040000000 1.0
C      1  0.5390580000000  0.4625440000000  0.5718490000000 1.0
C      1  0.4210240000000  0.4714160000000  0.6146810000000 1.0
C      1  0.4140690000000  0.4627370000000  0.4953130000000 1.0
C      1  0.5345080000000  0.5254760000000  0.5446640000000 1.0
C      1  0.5096760000000  0.5693220000000  0.4980900000000 1.0
C      1  0.5250310000000  0.5047050000000  0.4801690000000 1.0
C      1  0.4203320000000  0.5105390000000  0.4349020000000 1.0
C      1  0.5126400000000  0.5085210000000  0.5268180000000 1.0
C      1  0.4591280000000  0.5749980000000  0.5417460000000 1.0
C      1  0.4299380000000  0.4444140000000  0.5487320000000 1.0
C      1  0.4831150000000  0.5924560000000  0.5331210000000 1.0
C      1  0.6016820000000  0.4674030000000  0.5223170000000 1.0
C      1  0.5212850000000  0.5152010000000  0.4379630000000 1.0
C      1  0.4811070000000  0.4590030000000  0.4528930000000 1.0
C      1  0.5625280000000  0.5630200000000  0.5754750000000 1.0
C      1  0.4275940000000  0.4339090000000  0.5162480000000 1.0
C      1  0.5906670000000  0.4450320000000  0.5107700000000 1.0
C      1  0.5087360000000  0.4233430000000  0.5384470000000 1.0
C      1  0.5578360000000  0.5027920000000  0.4480950000000 1.0
C      1  0.4685100000000  0.4924750000000  0.6096680000000 1.0
C      1  0.4541320000000  0.4170030000000  0.5110580000000 1.0
C      1  0.5225110000000  0.4980270000000  0.6020260000000 1.0
C      1  0.5928150000000  0.4536220000000  0.3987820000000 1.0
C      1  0.5388010000000  0.4308280000000  0.4976200000000 1.0
C      1  0.4971520000000  0.4233710000000  0.4805600000000 1.0
C      1  0.4605470000000  0.5198050000000  0.4978450000000 1.0
C      1  0.4758870000000  0.6122180000000  0.5154620000000 1.0
C      1  0.5276900000000  0.4321470000000  0.4670290000000 1.0
C      1  0.4560970000000  0.4631000000000  0.5577080000000 1.0
C      1  0.4757320000000  0.4572400000000  0.3983590000000 1.0
C      1  0.4353880000000  0.5064460000000  0.5465670000000 1.0
C      1  0.5437500000000  0.5449120000000  0.5978000000000 1.0
C      1  0.5652670000000  0.5822620000000  0.4618830000000 1.0
C      1  0.3930420000000  0.4838780000000  0.5087590000000 1.0
C      1  0.4511840000000  0.4189370000000  0.5446750000000 1.0
C      1  0.5683110000000  0.5298770000000  0.5812230000000 1.0
C      1  0.4945400000000  0.4982610000000  0.4135900000000 1.0
C      1  0.5388400000000  0.5471090000000  0.4832580000000 1.0
C      1  0.4601170000000  0.5278440000000  0.5369880000000 1.0
C      1  0.4566240000000  0.5272940000000  0.4218730000000 1.0
C      1  0.4924960000000  0.4835600000000  0.4714050000000 1.0
C      1  0.5624030000000  0.5271480000000  0.4894140000000 1.0
C      1  0.6035810000000  0.4217090000000  0.5039010000000 1.0
C      1  0.5820680000000  0.4639490000000  0.4221130000000 1.0
C      1  0.4752230000000  0.4222860000000  0.5603210000000 1.0
C      1  0.5439780000000  0.5334810000000  0.4534420000000 1.0
C      1  0.5615300000000  0.4488560000000  0.5062130000000 1.0
C      1  0.5194290000000  0.4795580000000  0.5147230000000 1.0
C      1  0.5551330000000  0.5750470000000  0.4901670000000 1.0
C      1  0.5771600000000  0.5678030000000  0.5125510000000 1.0
C      1  0.5620480000000  0.5966810000000  0.5372580000000 1.0
C      1  0.4480200000000  0.5428190000000  0.5648320000000 1.0
C      1  0.4296890000000  0.4584860000000  0.4606660000000 1.0
C      1  0.4250480000000  0.4330520000000  0.4821370000000 1.0
C      1  0.4982080000000  0.5644270000000  0.4489730000000 1.0
C      1  0.4597610000000  0.4791620000000  0.4444490000000 1.0
C      1  0.4200570000000  0.5467410000000  0.4717710000000 1.0
C      1  0.4354830000000  0.4459700000000  0.4307790000000 1.0
C      1  0.4915950000000  0.4078640000000  0.5203120000000 1.0
C      1  0.4587990000000  0.4563960000000  0.4772480000000 1.0
C      1  0.5294290000000  0.5885640000000  0.4456800000000 1.0
C      1  0.4770560000000  0.3904510000000  0.4739790000000 1.0
C      1  0.4049190000000  0.5240060000000  0.4583710000000 1.0
C      1  0.5311030000000  0.6007310000000  0.5302050000000 1.0
C      1  0.4400150000000  0.4662070000000  0.5171550000000 1.0
C      1  0.5077170000000  0.5379800000000  0.4934650000000 1.0
C      1  0.4870940000000  0.4872620000000  0.5365270000000 1.0
C      1  0.5256630000000  0.4623800000000  0.4410600000000 1.0
C      1  0.5892180000000  0.5409870000000  0.5032780000000 1.0
C      1  0.5345840000000  0.4932680000000  0.5563600000000 1.0
C      1  0.4442380000000  0.4987800000000  0.4133040000000 1.0
C      1  0.4473940000000  0.5037230000000  0.4528020000000 1.0
C      1  0.5331420000000  0.4367830000000  0.4196400000000 1.0
C      1  0.5096790000000  0.3964340000000  0.4639640000000 1.0
C      1  0.5008040000000  0.5364290000000  0.5664410000000 1.0
C      1  0.5367320000000  0.5052100000000  0.4100770000000 1.0
END
