TITL C-2778426-5645-1320 -0.127627930025725 125000 -442.65935864695 0 0 78 (C1) n - 1
REM
REM in /home/nfs/bkarasulu/CARBON/AIRSS/Generating-Clusters/REBO/Only-C1/SD-CG/HFTN-CG
REM
REM
REM
REM
REM
REM ./C.cell (11c1c37f851c82e70ff6c80c92926a4b)
REM
REM compiler GCC version 9.2.1 20190827 (Red Hat 9.2.1-1)
REM options -cpp -mtune=generic -march=x86-64 -g -O0 -fpre-include=/usr/include/finclude/math-vector-fortran.h
REM seed -1839977025 2088204667 1884936652 1490485328 -1785960661 -58892294 -1180099541 -980399253 833844342 -1577875485 -1564635863 -1818920202 1555788328 301731306 -112041774 -1389746977 -1687042900 1536166156 -615282137 -296505933 -1132895791 -223886856 -225182312 169910916 1495684026 1308567150 1393570426 258722819 -1662193233 -1577350430 1155017523 -1900668884 627547055
REM
CELL 1.54180   50.00000   50.00000   50.00000   90.00000   90.00000   90.00000
LATT -1
SFAC C  
C      1  0.5806540000000  0.4837660000000  0.4845320000000 1.0
C      1  0.5933460000000  0.4914350000000  0.5136380000000 1.0
C      1  0.4889090000000  0.5167530000000  0.5450600000000 1.0
C      1  0.4701010000000  0.5282190000000  0.4244600000000 1.0
C      1  0.5380810000000  0.5593640000000  0.4987390000000 1.0
C      1  0.5878210000000  0.5176570000000  0.5234190000000 1.0
C      1  0.5121750000000  0.4217440000000  0.5098650000000 1.0
C      1  0.4012890000000  0.5598650000000  0.5273070000000 1.0
C      1  0.4542810000000  0.4976640000000  0.4915390000000 1.0
C      1  0.4979820000000  0.5179850000000  0.4232370000000 1.0
C      1  0.5052710000000  0.5581490000000  0.4379360000000 1.0
C      1  0.4978640000000  0.5493060000000  0.4681270000000 1.0
C      1  0.5315570000000  0.5287370000000  0.5440740000000 1.0
C      1  0.5079390000000  0.5531050000000  0.5467590000000 1.0
C      1  0.5020770000000  0.4774940000000  0.5783360000000 1.0
C      1  0.5712470000000  0.4717360000000  0.5213270000000 1.0
C      1  0.5000320000000  0.5683330000000  0.4906910000000 1.0
C      1  0.4323200000000  0.5162000000000  0.4749430000000 1.0
C      1  0.5388050000000  0.4262090000000  0.4933150000000 1.0
C      1  0.5034930000000  0.4563530000000  0.4653410000000 1.0
C      1  0.4660570000000  0.4961930000000  0.4362280000000 1.0
C      1  0.4064110000000  0.4607860000000  0.5242740000000 1.0
C      1  0.4867530000000  0.4361950000000  0.5283020000000 1.0
C      1  0.4260620000000  0.5545070000000  0.5174860000000 1.0
C      1  0.5139780000000  0.5220580000000  0.4711200000000 1.0
C      1  0.4590180000000  0.5452310000000  0.4810590000000 1.0
C      1  0.5612230000000  0.4810420000000  0.4593380000000 1.0
C      1  0.4290180000000  0.4770870000000  0.5294470000000 1.0
C      1  0.4374730000000  0.4869650000000  0.5540970000000 1.0
C      1  0.4648350000000  0.4742710000000  0.5644590000000 1.0
C      1  0.5255690000000  0.4513340000000  0.6191540000000 1.0
C      1  0.4302670000000  0.5442530000000  0.4914460000000 1.0
C      1  0.5143290000000  0.5314600000000  0.5720380000000 1.0
C      1  0.5469970000000  0.4589150000000  0.5399310000000 1.0
C      1  0.5434730000000  0.4770730000000  0.5015350000000 1.0
C      1  0.4368370000000  0.4650160000000  0.4734110000000 1.0
C      1  0.5241620000000  0.5492050000000  0.4235250000000 1.0
C      1  0.5009020000000  0.4246000000000  0.4583880000000 1.0
C      1  0.4618850000000  0.4730950000000  0.4609370000000 1.0
C      1  0.4897370000000  0.4595280000000  0.5529240000000 1.0
C      1  0.4193640000000  0.4863750000000  0.4757060000000 1.0
C      1  0.5141410000000  0.4640600000000  0.5992980000000 1.0
C      1  0.5410260000000  0.4321040000000  0.4665190000000 1.0
C      1  0.4755040000000  0.5533360000000  0.5367790000000 1.0
C      1  0.5596710000000  0.5307180000000  0.5359220000000 1.0
C      1  0.4101290000000  0.4409700000000  0.5052550000000 1.0
C      1  0.4522850000000  0.4739100000000  0.5096100000000 1.0
C      1  0.5068540000000  0.5723690000000  0.5222450000000 1.0
C      1  0.5197780000000  0.4411550000000  0.5350740000000 1.0
C      1  0.5626040000000  0.5527700000000  0.4828260000000 1.0
C      1  0.5489990000000  0.5340990000000  0.4286420000000 1.0
C      1  0.5158020000000  0.5057450000000  0.4992420000000 1.0
C      1  0.5214520000000  0.5385690000000  0.5066580000000 1.0
C      1  0.4496360000000  0.5579500000000  0.5329700000000 1.0
C      1  0.5255630000000  0.5882170000000  0.5000950000000 1.0
C      1  0.4348770000000  0.4430070000000  0.4912730000000 1.0
C      1  0.4754370000000  0.5231910000000  0.4941650000000 1.0
C      1  0.4832810000000  0.4633390000000  0.4991340000000 1.0
C      1  0.5126470000000  0.4750750000000  0.4918110000000 1.0
C      1  0.4819730000000  0.4984800000000  0.4727300000000 1.0
C      1  0.4917730000000  0.5324520000000  0.5166420000000 1.0
C      1  0.5608720000000  0.5413360000000  0.4571490000000 1.0
C      1  0.5181210000000  0.4748950000000  0.5418110000000 1.0
C      1  0.5637120000000  0.5240390000000  0.4077830000000 1.0
C      1  0.4685860000000  0.5489170000000  0.4507110000000 1.0
C      1  0.4998160000000  0.5049180000000  0.5750130000000 1.0
C      1  0.5455430000000  0.5113920000000  0.4579340000000 1.0
C      1  0.5039320000000  0.5031660000000  0.4469650000000 1.0
C      1  0.4607360000000  0.4408640000000  0.5103900000000 1.0
C      1  0.5541180000000  0.4455810000000  0.5092090000000 1.0
C      1  0.5502870000000  0.4552970000000  0.4546850000000 1.0
C      1  0.4909740000000  0.4734940000000  0.4433520000000 1.0
C      1  0.4635420000000  0.5053520000000  0.5582250000000 1.0
C      1  0.4929620000000  0.4331220000000  0.4883420000000 1.0
C      1  0.5549820000000  0.5054890000000  0.4897950000000 1.0
C      1  0.5158740000000  0.5031600000000  0.5312410000000 1.0
C      1  0.5651620000000  0.5303950000000  0.5037310000000 1.0
C      1  0.4477540000000  0.5218090000000  0.4493250000000 1.0
END
