TITL C-2778437-8639-586 -0.000433758302676635 125000 -288.637925036009 0 0 51 (C1) n - 1
REM
REM in /home/nfs/bkarasulu/CARBON/AIRSS/Generating-Clusters/REBO/Only-C1/SD-CG/HFTN-CG
REM
REM
REM
REM
REM
REM ./C.cell (11c1c37f851c82e70ff6c80c92926a4b)
REM
REM compiler GCC version 9.2.1 20190827 (Red Hat 9.2.1-1)
REM options -cpp -mtune=generic -march=x86-64 -g -O0 -fpre-include=/usr/include/finclude/math-vector-fortran.h
REM seed 945668854 392285552 556213703 -1491856474 1071626360 -647578500 -117443787 -1616415400 -1302824714 -1406451901 -97908900 919186126 -1921931432 510256561 -781398818 1236519561 312178291 -569125086 1385231102 367979167 -1954055412 607544423 685837394 695958333 470537254 -77453847 -1189226702 719900535 -1730719050 2051267714 -422943934 -1214121070 1998799031
REM
CELL 1.54180   50.00000   50.00000   50.00000   90.00000   90.00000   90.00000
LATT -1
SFAC C  
C      1  0.5601030000000  0.5215560000000  0.5129020000000 1.0
C      1  0.4833880000000  0.5441960000000  0.4743800000000 1.0
C      1  0.5053350000000  0.5389370000000  0.4965500000000 1.0
C      1  0.5365880000000  0.4229290000000  0.4722420000000 1.0
C      1  0.4458950000000  0.5004440000000  0.4669000000000 1.0
C      1  0.4913140000000  0.5423190000000  0.5371110000000 1.0
C      1  0.4979140000000  0.5717620000000  0.4752360000000 1.0
C      1  0.4642420000000  0.4476400000000  0.4574270000000 1.0
C      1  0.4700310000000  0.4725810000000  0.5250860000000 1.0
C      1  0.3725940000000  0.4901960000000  0.4631910000000 1.0
C      1  0.4759610000000  0.5153950000000  0.5753790000000 1.0
C      1  0.5417750000000  0.4755270000000  0.5306470000000 1.0
C      1  0.4201790000000  0.5108340000000  0.4775100000000 1.0
C      1  0.5887090000000  0.5086660000000  0.5245270000000 1.0
C      1  0.5004000000000  0.4706950000000  0.5603860000000 1.0
C      1  0.4458960000000  0.5391870000000  0.5099070000000 1.0
C      1  0.5581850000000  0.5245320000000  0.4623200000000 1.0
C      1  0.4932230000000  0.5940430000000  0.4608440000000 1.0
C      1  0.5071110000000  0.5146620000000  0.5103870000000 1.0
C      1  0.5111320000000  0.4266990000000  0.4635350000000 1.0
C      1  0.5285790000000  0.5025100000000  0.4281840000000 1.0
C      1  0.5025300000000  0.4755700000000  0.4633170000000 1.0
C      1  0.5653550000000  0.4885510000000  0.5121950000000 1.0
C      1  0.5614800000000  0.5362120000000  0.4864880000000 1.0
C      1  0.5086410000000  0.4398930000000  0.5212220000000 1.0
C      1  0.4769620000000  0.4921780000000  0.4784980000000 1.0
C      1  0.4480120000000  0.4693690000000  0.4587460000000 1.0
C      1  0.5271990000000  0.5172560000000  0.5578470000000 1.0
C      1  0.5030680000000  0.4911110000000  0.4328340000000 1.0
C      1  0.4762750000000  0.4839570000000  0.5717990000000 1.0
C      1  0.4794920000000  0.5027720000000  0.4457470000000 1.0
C      1  0.5202440000000  0.5664090000000  0.4967250000000 1.0
C      1  0.5493500000000  0.4692900000000  0.4920020000000 1.0
C      1  0.4536100000000  0.4815980000000  0.5480860000000 1.0
C      1  0.5329410000000  0.4832800000000  0.4707550000000 1.0
C      1  0.4922990000000  0.4470260000000  0.4606700000000 1.0
C      1  0.4242760000000  0.5321280000000  0.4953640000000 1.0
C      1  0.3957700000000  0.5002480000000  0.4701650000000 1.0
C      1  0.4911050000000  0.4558640000000  0.5361690000000 1.0
C      1  0.5332420000000  0.5081400000000  0.5256050000000 1.0
C      1  0.5440330000000  0.5025240000000  0.4522380000000 1.0
C      1  0.5554520000000  0.4386550000000  0.4839650000000 1.0
C      1  0.6117510000000  0.5119620000000  0.5351590000000 1.0
C      1  0.5319730000000  0.4505150000000  0.5139590000000 1.0
C      1  0.4668600000000  0.5265770000000  0.4610330000000 1.0
C      1  0.4800450000000  0.4973900000000  0.5080730000000 1.0
C      1  0.4684340000000  0.5246650000000  0.5249860000000 1.0
C      1  0.5251790000000  0.4845750000000  0.5565780000000 1.0
C      1  0.5215670000000  0.5442700000000  0.5373760000000 1.0
C      1  0.4563130000000  0.5117730000000  0.5515470000000 1.0
C      1  0.4979910000000  0.5309310000000  0.5661980000000 1.0
END
