TITL C-2778426-5645-840 0.00152896080026021 125000 -603.957751964546 0 0 103 (C1) n - 1
REM
REM in /home/nfs/bkarasulu/CARBON/AIRSS/Generating-Clusters/REBO/Only-C1/SD-CG/HFTN-CG
REM
REM
REM
REM
REM
REM ./C.cell (11c1c37f851c82e70ff6c80c92926a4b)
REM
REM compiler GCC version 9.2.1 20190827 (Red Hat 9.2.1-1)
REM options -cpp -mtune=generic -march=x86-64 -g -O0 -fpre-include=/usr/include/finclude/math-vector-fortran.h
REM seed 463128703 -505814284 -15648081 1455179498 785293428 -435355184 -491601316 2115390552 369612589 557263369 -1627675014 -804579369 998459660 596688712 696936977 -1017961841 1884828676 754347181 1776317901 -282663744 2013263200 -2070693407 -739839852 -1371137385 1851046294 -1954031037 -518524363 1889424488 -1953228675 -1068790391 -85778599 1853933539 951245471
REM
CELL 1.54180   50.00000   50.00000   50.00000   90.00000   90.00000   90.00000
LATT -1
SFAC C  
C      1  0.5099180000000  0.3996430000000  0.4479100000000 1.0
C      1  0.4583140000000  0.5624210000000  0.4572370000000 1.0
C      1  0.4843300000000  0.4517370000000  0.4845950000000 1.0
C      1  0.5226410000000  0.5400700000000  0.5777000000000 1.0
C      1  0.5352460000000  0.5088920000000  0.4177190000000 1.0
C      1  0.4785200000000  0.4420750000000  0.5642840000000 1.0
C      1  0.4143170000000  0.5433310000000  0.5244230000000 1.0
C      1  0.5580460000000  0.4349780000000  0.5225970000000 1.0
C      1  0.4943410000000  0.5438210000000  0.5713490000000 1.0
C      1  0.4317370000000  0.5674770000000  0.4766020000000 1.0
C      1  0.5374470000000  0.4806250000000  0.4197570000000 1.0
C      1  0.4596740000000  0.5081700000000  0.5190880000000 1.0
C      1  0.5579480000000  0.4696830000000  0.4404700000000 1.0
C      1  0.5659220000000  0.5182860000000  0.4618890000000 1.0
C      1  0.5110950000000  0.4413820000000  0.5580430000000 1.0
C      1  0.5466400000000  0.4356340000000  0.4813500000000 1.0
C      1  0.5037720000000  0.5535180000000  0.4890040000000 1.0
C      1  0.5313980000000  0.4624340000000  0.5709120000000 1.0
C      1  0.4226560000000  0.5096400000000  0.4813100000000 1.0
C      1  0.4572310000000  0.5867870000000  0.4882730000000 1.0
C      1  0.5000220000000  0.4245190000000  0.4524580000000 1.0
C      1  0.5405860000000  0.4294050000000  0.5510240000000 1.0
C      1  0.4138150000000  0.4988310000000  0.5088440000000 1.0
C      1  0.5872210000000  0.4735340000000  0.4918600000000 1.0
C      1  0.4554880000000  0.4713680000000  0.5041130000000 1.0
C      1  0.5521490000000  0.4642810000000  0.5085530000000 1.0
C      1  0.4451780000000  0.5172260000000  0.5549190000000 1.0
C      1  0.5378810000000  0.5267770000000  0.5021670000000 1.0
C      1  0.4192950000000  0.5159900000000  0.5325220000000 1.0
C      1  0.5827910000000  0.4907310000000  0.5152000000000 1.0
C      1  0.5186470000000  0.5475540000000  0.5387710000000 1.0
C      1  0.4911230000000  0.5344280000000  0.4222830000000 1.0
C      1  0.5052950000000  0.4514590000000  0.5045510000000 1.0
C      1  0.5192670000000  0.5154650000000  0.5466780000000 1.0
C      1  0.4517940000000  0.5297130000000  0.5006900000000 1.0
C      1  0.5379200000000  0.4082070000000  0.5257960000000 1.0
C      1  0.5156950000000  0.5068820000000  0.4941430000000 1.0
C      1  0.4317790000000  0.4560370000000  0.4839110000000 1.0
C      1  0.5683350000000  0.5311230000000  0.5381250000000 1.0
C      1  0.5524950000000  0.4922610000000  0.4891690000000 1.0
C      1  0.4569670000000  0.4339350000000  0.4901420000000 1.0
C      1  0.5150120000000  0.5798950000000  0.5381030000000 1.0
C      1  0.4597740000000  0.4926090000000  0.4180390000000 1.0
C      1  0.4673480000000  0.5348910000000  0.4416010000000 1.0
C      1  0.4804850000000  0.5853600000000  0.4636700000000 1.0
C      1  0.4925400000000  0.5682250000000  0.5166530000000 1.0
C      1  0.4238620000000  0.5156530000000  0.4481350000000 1.0
C      1  0.4864200000000  0.4823560000000  0.4208410000000 1.0
C      1  0.5002080000000  0.4892000000000  0.5421610000000 1.0
C      1  0.4812820000000  0.4220980000000  0.5397630000000 1.0
C      1  0.5197680000000  0.4481230000000  0.4490900000000 1.0
C      1  0.5455020000000  0.5214310000000  0.4429770000000 1.0
C      1  0.5369000000000  0.5107420000000  0.5749330000000 1.0
C      1  0.5709300000000  0.4791390000000  0.5411910000000 1.0
C      1  0.4980140000000  0.4943600000000  0.4495350000000 1.0
C      1  0.4878260000000  0.5098540000000  0.5226460000000 1.0
C      1  0.4839360000000  0.4639430000000  0.4558970000000 1.0
C      1  0.4474420000000  0.5136040000000  0.4333630000000 1.0
C      1  0.5439260000000  0.5008940000000  0.5215050000000 1.0
C      1  0.5214540000000  0.4780200000000  0.5086160000000 1.0
C      1  0.4699100000000  0.5372850000000  0.4756610000000 1.0
C      1  0.4278870000000  0.4649660000000  0.5342300000000 1.0
C      1  0.5763210000000  0.4433950000000  0.4960100000000 1.0
C      1  0.5520050000000  0.4369670000000  0.4477830000000 1.0
C      1  0.5252980000000  0.4271620000000  0.5009660000000 1.0
C      1  0.4315890000000  0.5493760000000  0.5032560000000 1.0
C      1  0.4713310000000  0.4266700000000  0.4599910000000 1.0
C      1  0.5054840000000  0.5440890000000  0.4589330000000 1.0
C      1  0.5193420000000  0.4863320000000  0.5801610000000 1.0
C      1  0.4493180000000  0.4857470000000  0.5429480000000 1.0
C      1  0.4753060000000  0.5214570000000  0.5703600000000 1.0
C      1  0.5126430000000  0.4667750000000  0.4247040000000 1.0
C      1  0.4585950000000  0.4258910000000  0.5208120000000 1.0
C      1  0.5402090000000  0.4670410000000  0.4697940000000 1.0
C      1  0.5158710000000  0.5196740000000  0.4509550000000 1.0
C      1  0.5776420000000  0.5206200000000  0.5129470000000 1.0
C      1  0.5380500000000  0.5820090000000  0.4656160000000 1.0
C      1  0.4442240000000  0.5497870000000  0.5501800000000 1.0
C      1  0.4702940000000  0.4984380000000  0.4683300000000 1.0
C      1  0.4925870000000  0.5150730000000  0.4831340000000 1.0
C      1  0.5466880000000  0.5436720000000  0.5545240000000 1.0
C      1  0.4160700000000  0.5401710000000  0.4678280000000 1.0
C      1  0.4520290000000  0.4542750000000  0.4565820000000 1.0
C      1  0.5071740000000  0.5751690000000  0.4556580000000 1.0
C      1  0.5115350000000  0.5223310000000  0.4093780000000 1.0
C      1  0.5742150000000  0.4871990000000  0.4638230000000 1.0
C      1  0.5572790000000  0.5052290000000  0.5525330000000 1.0
C      1  0.4971600000000  0.4604390000000  0.5345460000000 1.0
C      1  0.5053690000000  0.4159250000000  0.5268400000000 1.0
C      1  0.4995240000000  0.5356050000000  0.5166490000000 1.0
C      1  0.4629970000000  0.5699530000000  0.5434110000000 1.0
C      1  0.5643820000000  0.5358110000000  0.4872600000000 1.0
C      1  0.4161470000000  0.4706520000000  0.5100100000000 1.0
C      1  0.5410220000000  0.5788160000000  0.5160940000000 1.0
C      1  0.4691000000000  0.4701550000000  0.5623350000000 1.0
C      1  0.5214170000000  0.5802590000000  0.4923850000000 1.0
C      1  0.4489100000000  0.4921070000000  0.4841520000000 1.0
C      1  0.5584260000000  0.4580550000000  0.5551810000000 1.0
C      1  0.4647380000000  0.5812020000000  0.5147300000000 1.0
C      1  0.5582540000000  0.5673660000000  0.4889280000000 1.0
C      1  0.4888490000000  0.5676560000000  0.5562920000000 1.0
C      1  0.4684360000000  0.4553930000000  0.5218190000000 1.0
C      1  0.4888050000000  0.4930800000000  0.5731220000000 1.0
END
