TITL C-2778424-3986-55 0.0007286484096108 125000 -1046.90235038624 0 0 179 (C1) n - 1
REM
REM in /home/nfs/bkarasulu/CARBON/AIRSS/Generating-Clusters/REBO/Only-C1/SD-CG/HFTN-CG
REM
REM
REM
REM
REM
REM ./C.cell (11c1c37f851c82e70ff6c80c92926a4b)
REM
REM compiler GCC version 9.2.1 20190827 (Red Hat 9.2.1-1)
REM options -cpp -mtune=generic -march=x86-64 -g -O0 -fpre-include=/usr/include/finclude/math-vector-fortran.h
REM seed 357337362 1902438635 508365107 -666594139 -2070091058 14021507 1938332358 451059532 -307593511 518832702 407628975 1488442634 -851084980 -1710995097 -2073040256 -1837021680 1892176836 2118779241 1067646351 -408314150 1599926222 -1938683678 1552515203 337025045 714961415 281941242 -1744074814 1399109328 -131174527 -904211720 1835214739 906769796 5174669
REM
CELL 1.54180   50.00000   50.00000   50.00000   90.00000   90.00000   90.00000
LATT -1
SFAC C  
C      1  0.4236740000000  0.5427140000000  0.5140870000000 1.0
C      1  0.5915060000000  0.4953130000000  0.4325010000000 1.0
C      1  0.5678710000000  0.5612110000000  0.5182620000000 1.0
C      1  0.5056940000000  0.6174420000000  0.5030520000000 1.0
C      1  0.5233720000000  0.4975320000000  0.6129710000000 1.0
C      1  0.4925760000000  0.6398790000000  0.5221480000000 1.0
C      1  0.5363810000000  0.6058270000000  0.4993360000000 1.0
C      1  0.4934120000000  0.4860420000000  0.6186320000000 1.0
C      1  0.5023150000000  0.4862640000000  0.4014480000000 1.0
C      1  0.5955470000000  0.5012050000000  0.4771050000000 1.0
C      1  0.3952660000000  0.5385590000000  0.4691840000000 1.0
C      1  0.4789030000000  0.3839940000000  0.4734720000000 1.0
C      1  0.5048900000000  0.4688380000000  0.5258590000000 1.0
C      1  0.4360280000000  0.5326350000000  0.4115480000000 1.0
C      1  0.5409640000000  0.5645810000000  0.4265570000000 1.0
C      1  0.4604410000000  0.3937160000000  0.4558840000000 1.0
C      1  0.4689620000000  0.5313210000000  0.4031070000000 1.0
C      1  0.5911200000000  0.5265690000000  0.4574540000000 1.0
C      1  0.4587930000000  0.3991410000000  0.5537850000000 1.0
C      1  0.4556710000000  0.5318780000000  0.5164800000000 1.0
C      1  0.4858300000000  0.5204520000000  0.5843510000000 1.0
C      1  0.4156430000000  0.5083350000000  0.5473870000000 1.0
C      1  0.4545750000000  0.6053990000000  0.4771380000000 1.0
C      1  0.5141900000000  0.5949460000000  0.4463890000000 1.0
C      1  0.4510420000000  0.4360710000000  0.5666760000000 1.0
C      1  0.5392680000000  0.4087230000000  0.5244300000000 1.0
C      1  0.5385150000000  0.4612090000000  0.4584080000000 1.0
C      1  0.4856480000000  0.5060000000000  0.5567010000000 1.0
C      1  0.5984850000000  0.4706190000000  0.5518290000000 1.0
C      1  0.5595720000000  0.4546600000000  0.5811370000000 1.0
C      1  0.4215740000000  0.4757420000000  0.5388310000000 1.0
C      1  0.5121510000000  0.5946320000000  0.5693280000000 1.0
C      1  0.4232090000000  0.4149020000000  0.5004060000000 1.0
C      1  0.5088960000000  0.4868830000000  0.5529250000000 1.0
C      1  0.4611830000000  0.4687970000000  0.5235860000000 1.0
C      1  0.5373250000000  0.5405810000000  0.4593020000000 1.0
C      1  0.4168350000000  0.4276960000000  0.5252810000000 1.0
C      1  0.5702460000000  0.4976760000000  0.4987020000000 1.0
C      1  0.4685320000000  0.4088710000000  0.5025100000000 1.0
C      1  0.5749630000000  0.5516440000000  0.4411380000000 1.0
C      1  0.4374430000000  0.5775740000000  0.4360950000000 1.0
C      1  0.4998580000000  0.4881980000000  0.4549130000000 1.0
C      1  0.4752840000000  0.5337020000000  0.5434770000000 1.0
C      1  0.4602080000000  0.5841970000000  0.4537050000000 1.0
C      1  0.5006670000000  0.4364970000000  0.4830320000000 1.0
C      1  0.5060340000000  0.4419040000000  0.4296320000000 1.0
C      1  0.4220180000000  0.5070210000000  0.4961270000000 1.0
C      1  0.5168750000000  0.4060940000000  0.4436780000000 1.0
C      1  0.4370950000000  0.4728730000000  0.4193990000000 1.0
C      1  0.5981660000000  0.4878100000000  0.5293680000000 1.0
C      1  0.4951520000000  0.3689910000000  0.5298080000000 1.0
C      1  0.5733860000000  0.5872620000000  0.5246150000000 1.0
C      1  0.4705720000000  0.4999300000000  0.6045840000000 1.0
C      1  0.4341810000000  0.5956230000000  0.4970050000000 1.0
C      1  0.5447680000000  0.4474850000000  0.5339800000000 1.0
C      1  0.5453750000000  0.4120140000000  0.4516700000000 1.0
C      1  0.5132060000000  0.4153690000000  0.5144320000000 1.0
C      1  0.5397800000000  0.4964990000000  0.5453420000000 1.0
C      1  0.5876740000000  0.5141490000000  0.5306530000000 1.0
C      1  0.5203870000000  0.5307390000000  0.4227180000000 1.0
C      1  0.4792100000000  0.4589340000000  0.4961700000000 1.0
C      1  0.5538350000000  0.4443800000000  0.4133870000000 1.0
C      1  0.5592030000000  0.5586730000000  0.4771880000000 1.0
C      1  0.5736070000000  0.4357840000000  0.5355690000000 1.0
C      1  0.5213590000000  0.5071010000000  0.4929450000000 1.0
C      1  0.5106160000000  0.4049110000000  0.5647290000000 1.0
C      1  0.5537120000000  0.5895690000000  0.4749560000000 1.0
C      1  0.4941170000000  0.5686230000000  0.5822850000000 1.0
C      1  0.4602480000000  0.4152170000000  0.4321990000000 1.0
C      1  0.4619090000000  0.5994530000000  0.5521800000000 1.0
C      1  0.4123640000000  0.4553480000000  0.5182870000000 1.0
C      1  0.4334450000000  0.5036130000000  0.4476460000000 1.0
C      1  0.5939740000000  0.4490270000000  0.4902220000000 1.0
C      1  0.4798320000000  0.3733130000000  0.5030420000000 1.0
C      1  0.5384150000000  0.4721320000000  0.5952710000000 1.0
C      1  0.4904630000000  0.3861590000000  0.5510760000000 1.0
C      1  0.5545260000000  0.5335650000000  0.4219800000000 1.0
C      1  0.4873420000000  0.5739610000000  0.4456350000000 1.0
C      1  0.4587570000000  0.4619030000000  0.4347050000000 1.0
C      1  0.5228230000000  0.6178650000000  0.4384530000000 1.0
C      1  0.4346720000000  0.5173180000000  0.5712300000000 1.0
C      1  0.4485730000000  0.4232390000000  0.4903930000000 1.0
C      1  0.4680910000000  0.4748200000000  0.4612840000000 1.0
C      1  0.4553410000000  0.5283150000000  0.5919920000000 1.0
C      1  0.5513040000000  0.3999190000000  0.4770850000000 1.0
C      1  0.5161820000000  0.5810390000000  0.4913360000000 1.0
C      1  0.5475260000000  0.5438940000000  0.5121100000000 1.0
C      1  0.5818050000000  0.4750730000000  0.5742570000000 1.0
C      1  0.5109310000000  0.5612340000000  0.4264900000000 1.0
C      1  0.4597350000000  0.5444940000000  0.4331860000000 1.0
C      1  0.5597320000000  0.5151300000000  0.4606080000000 1.0
C      1  0.4770720000000  0.5024790000000  0.3864360000000 1.0
C      1  0.5045130000000  0.5342640000000  0.4919370000000 1.0
C      1  0.4354840000000  0.4154040000000  0.4534330000000 1.0
C      1  0.4820590000000  0.4482470000000  0.5670330000000 1.0
C      1  0.4325310000000  0.4997560000000  0.5213830000000 1.0
C      1  0.4975720000000  0.4846510000000  0.4870520000000 1.0
C      1  0.5606200000000  0.4102490000000  0.5025050000000 1.0
C      1  0.4036430000000  0.4846870000000  0.4688100000000 1.0
C      1  0.4278070000000  0.5405880000000  0.5475470000000 1.0
C      1  0.4632770000000  0.5011520000000  0.5235790000000 1.0
C      1  0.5910270000000  0.5305250000000  0.5080300000000 1.0
C      1  0.4192560000000  0.4343350000000  0.4656870000000 1.0
C      1  0.4669370000000  0.5049460000000  0.4693890000000 1.0
C      1  0.4173050000000  0.4613760000000  0.4851520000000 1.0
C      1  0.4378500000000  0.5188300000000  0.4752120000000 1.0
C      1  0.5349880000000  0.5708310000000  0.5386880000000 1.0
C      1  0.5452000000000  0.4884880000000  0.4465710000000 1.0
C      1  0.5007000000000  0.5192190000000  0.4040430000000 1.0
C      1  0.5056790000000  0.5412650000000  0.5898320000000 1.0
C      1  0.4959810000000  0.4234050000000  0.4545230000000 1.0
C      1  0.5494970000000  0.4850420000000  0.4136760000000 1.0
C      1  0.5080270000000  0.4622170000000  0.6046760000000 1.0
C      1  0.3976300000000  0.5379340000000  0.4991890000000 1.0
C      1  0.5818610000000  0.4300430000000  0.5076310000000 1.0
C      1  0.4190980000000  0.5052790000000  0.4106750000000 1.0
C      1  0.3908920000000  0.5061720000000  0.4921240000000 1.0
C      1  0.4556300000000  0.5459670000000  0.4655420000000 1.0
C      1  0.4884020000000  0.5602000000000  0.5312440000000 1.0
C      1  0.4653220000000  0.5689910000000  0.4867140000000 1.0
C      1  0.5161190000000  0.5577400000000  0.5132480000000 1.0
C      1  0.5983010000000  0.4718540000000  0.4448130000000 1.0
C      1  0.5065540000000  0.4621970000000  0.5732290000000 1.0
C      1  0.5379280000000  0.4105960000000  0.5545100000000 1.0
C      1  0.4258250000000  0.5616670000000  0.4209570000000 1.0
C      1  0.4500080000000  0.4963520000000  0.3996150000000 1.0
C      1  0.4817150000000  0.5227100000000  0.4462820000000 1.0
C      1  0.4488770000000  0.4673580000000  0.5556900000000 1.0
C      1  0.4729790000000  0.5302220000000  0.4903140000000 1.0
C      1  0.4798140000000  0.4170530000000  0.5732600000000 1.0
C      1  0.4315590000000  0.4187450000000  0.5482140000000 1.0
C      1  0.4663940000000  0.5524200000000  0.5705100000000 1.0
C      1  0.5392910000000  0.4595880000000  0.5086190000000 1.0
C      1  0.4968530000000  0.4719200000000  0.4278720000000 1.0
C      1  0.5312770000000  0.4791060000000  0.3949160000000 1.0
C      1  0.5341370000000  0.4549260000000  0.5594460000000 1.0
C      1  0.5027540000000  0.4020650000000  0.4874670000000 1.0
C      1  0.4587470000000  0.4933470000000  0.5729500000000 1.0
C      1  0.5646260000000  0.5178960000000  0.5509280000000 1.0
C      1  0.5218230000000  0.5682410000000  0.4642270000000 1.0
C      1  0.4923710000000  0.4975830000000  0.5181910000000 1.0
C      1  0.5279540000000  0.3837720000000  0.4822360000000 1.0
C      1  0.5752640000000  0.5019560000000  0.5772420000000 1.0
C      1  0.5015130000000  0.4392470000000  0.5228390000000 1.0
C      1  0.5336280000000  0.5985070000000  0.5508260000000 1.0
C      1  0.4871220000000  0.5819010000000  0.5532960000000 1.0
C      1  0.5246920000000  0.5333530000000  0.5437050000000 1.0
C      1  0.4732050000000  0.4393470000000  0.4261380000000 1.0
C      1  0.5977990000000  0.4504910000000  0.4620240000000 1.0
C      1  0.5215930000000  0.5119200000000  0.4496280000000 1.0
C      1  0.5103990000000  0.5203370000000  0.5289390000000 1.0
C      1  0.5604240000000  0.5809420000000  0.4445440000000 1.0
C      1  0.5419320000000  0.4893360000000  0.5136630000000 1.0
C      1  0.5312710000000  0.5291800000000  0.5960450000000 1.0
C      1  0.4031000000000  0.5165570000000  0.4556470000000 1.0
C      1  0.4443590000000  0.5701050000000  0.5520070000000 1.0
C      1  0.5539350000000  0.5473710000000  0.6006650000000 1.0
C      1  0.4502580000000  0.4540940000000  0.4813380000000 1.0
C      1  0.4093130000000  0.4836100000000  0.4351710000000 1.0
C      1  0.4608710000000  0.3887630000000  0.5244640000000 1.0
C      1  0.4976280000000  0.5447790000000  0.4603290000000 1.0
C      1  0.4757330000000  0.4441020000000  0.5365060000000 1.0
C      1  0.4285740000000  0.5721710000000  0.5216370000000 1.0
C      1  0.4674150000000  0.5802960000000  0.5175380000000 1.0
C      1  0.5511150000000  0.6050810000000  0.5262290000000 1.0
C      1  0.5374700000000  0.4394490000000  0.4357330000000 1.0
C      1  0.5283910000000  0.4518790000000  0.4838420000000 1.0
C      1  0.5534560000000  0.5481340000000  0.5532030000000 1.0
C      1  0.5356920000000  0.5009750000000  0.5789240000000 1.0
C      1  0.5964270000000  0.4768140000000  0.5007160000000 1.0
C      1  0.4576340000000  0.5050010000000  0.4306940000000 1.0
C      1  0.5496960000000  0.5215510000000  0.4919900000000 1.0
C      1  0.5616110000000  0.4264930000000  0.5634210000000 1.0
C      1  0.4861290000000  0.5960690000000  0.4862010000000 1.0
C      1  0.4418480000000  0.6018210000000  0.5279300000000 1.0
C      1  0.4807670000000  0.6099640000000  0.5255140000000 1.0
C      1  0.5824280000000  0.5431460000000  0.4841810000000 1.0
C      1  0.5687510000000  0.5064810000000  0.4197930000000 1.0
C      1  0.5639440000000  0.5584390000000  0.5801740000000 1.0
END
