TITL C-2778425-5191-1262 0.00896436015029514 125000 -941.652618785134 0 0 161 (C1) n - 1
REM
REM in /home/nfs/bkarasulu/CARBON/AIRSS/Generating-Clusters/REBO/Only-C1/SD-CG/HFTN-CG
REM
REM
REM
REM
REM
REM ./C.cell (11c1c37f851c82e70ff6c80c92926a4b)
REM
REM compiler GCC version 9.2.1 20190827 (Red Hat 9.2.1-1)
REM options -cpp -mtune=generic -march=x86-64 -g -O0 -fpre-include=/usr/include/finclude/math-vector-fortran.h
REM seed -424710509 1379307701 -764424697 1385134758 -1743472708 -1816361863 470810492 -1315677830 -605188694 -1463256122 1692979554 -441737815 1146689760 803898680 276841597 1289619299 60243368 -132529898 -1162938441 -604887491 -1228041566 1342957123 783481079 399188071 -1226083805 -2140906299 -297918859 659019959 1961294389 879619624 -766705454 1608510033 2029429541
REM
CELL 1.54180   50.00000   50.00000   50.00000   90.00000   90.00000   90.00000
LATT -1
SFAC C  
C      1  0.4245140000000  0.5212690000000  0.5326590000000 1.0
C      1  0.5855660000000  0.5436770000000  0.5621050000000 1.0
C      1  0.5270080000000  0.4222210000000  0.5134320000000 1.0
C      1  0.5458320000000  0.5189110000000  0.4257320000000 1.0
C      1  0.5423270000000  0.5890580000000  0.5378810000000 1.0
C      1  0.5446500000000  0.5615220000000  0.5306020000000 1.0
C      1  0.5674150000000  0.4548680000000  0.5461340000000 1.0
C      1  0.4554150000000  0.5892240000000  0.5105080000000 1.0
C      1  0.5335410000000  0.5057800000000  0.5389620000000 1.0
C      1  0.4841150000000  0.5196540000000  0.5636460000000 1.0
C      1  0.5022490000000  0.6148040000000  0.5192000000000 1.0
C      1  0.4343850000000  0.4646980000000  0.5696340000000 1.0
C      1  0.4621360000000  0.4896080000000  0.5066170000000 1.0
C      1  0.4797900000000  0.4817260000000  0.3965450000000 1.0
C      1  0.5049650000000  0.3952960000000  0.4492370000000 1.0
C      1  0.4504400000000  0.5250310000000  0.5829370000000 1.0
C      1  0.5107740000000  0.4006450000000  0.5760040000000 1.0
C      1  0.4249700000000  0.5457830000000  0.4485590000000 1.0
C      1  0.5604260000000  0.4237370000000  0.5064740000000 1.0
C      1  0.4837690000000  0.4245680000000  0.5417870000000 1.0
C      1  0.4483660000000  0.5602920000000  0.5464160000000 1.0
C      1  0.5266710000000  0.4953370000000  0.5698340000000 1.0
C      1  0.4534320000000  0.5794570000000  0.5674730000000 1.0
C      1  0.4672280000000  0.4946970000000  0.5377730000000 1.0
C      1  0.5211220000000  0.4422570000000  0.4887710000000 1.0
C      1  0.4999400000000  0.5664280000000  0.4764970000000 1.0
C      1  0.5187200000000  0.5315290000000  0.5265940000000 1.0
C      1  0.4302690000000  0.4835230000000  0.5001980000000 1.0
C      1  0.5506240000000  0.5658370000000  0.4444320000000 1.0
C      1  0.4378930000000  0.5697480000000  0.5214800000000 1.0
C      1  0.4260920000000  0.4598390000000  0.4814160000000 1.0
C      1  0.5048230000000  0.4718750000000  0.4850250000000 1.0
C      1  0.4770820000000  0.5296460000000  0.4534980000000 1.0
C      1  0.5247440000000  0.5570140000000  0.5059150000000 1.0
C      1  0.4337360000000  0.5750570000000  0.4362590000000 1.0
C      1  0.5915390000000  0.5105470000000  0.4987550000000 1.0
C      1  0.5784940000000  0.4850420000000  0.4593080000000 1.0
C      1  0.4913870000000  0.5066410000000  0.4098340000000 1.0
C      1  0.5661270000000  0.5372650000000  0.5355230000000 1.0
C      1  0.4764460000000  0.4643860000000  0.4944320000000 1.0
C      1  0.4349130000000  0.5227420000000  0.4286480000000 1.0
C      1  0.3826890000000  0.4863580000000  0.5207640000000 1.0
C      1  0.4916260000000  0.5852750000000  0.4334710000000 1.0
C      1  0.5022900000000  0.4075110000000  0.4183490000000 1.0
C      1  0.5013510000000  0.3870650000000  0.4797470000000 1.0
C      1  0.5600300000000  0.5723760000000  0.4953910000000 1.0
C      1  0.5135180000000  0.5226890000000  0.5689930000000 1.0
C      1  0.4762600000000  0.5714690000000  0.5827810000000 1.0
C      1  0.4362750000000  0.5103860000000  0.4843490000000 1.0
C      1  0.5155710000000  0.5999490000000  0.4618150000000 1.0
C      1  0.5063360000000  0.4284570000000  0.5807180000000 1.0
C      1  0.5585120000000  0.5548850000000  0.5705680000000 1.0
C      1  0.5195790000000  0.5761640000000  0.4386600000000 1.0
C      1  0.5253450000000  0.4449340000000  0.5666980000000 1.0
C      1  0.5586350000000  0.6040780000000  0.4927870000000 1.0
C      1  0.4395950000000  0.4499760000000  0.4455470000000 1.0
C      1  0.5461030000000  0.4864070000000  0.4214230000000 1.0
C      1  0.4209260000000  0.4873660000000  0.5535580000000 1.0
C      1  0.5434900000000  0.5151840000000  0.4935530000000 1.0
C      1  0.5999140000000  0.5023370000000  0.5258590000000 1.0
C      1  0.4446280000000  0.5084820000000  0.5534970000000 1.0
C      1  0.4137000000000  0.4724290000000  0.5238750000000 1.0
C      1  0.5502620000000  0.5331490000000  0.4672970000000 1.0
C      1  0.5260130000000  0.4459190000000  0.3986360000000 1.0
C      1  0.4553970000000  0.5901470000000  0.4821210000000 1.0
C      1  0.4143930000000  0.4670280000000  0.4521540000000 1.0
C      1  0.5000480000000  0.4368380000000  0.4074990000000 1.0
C      1  0.4631230000000  0.5492470000000  0.4979490000000 1.0
C      1  0.6003160000000  0.5206100000000  0.5476300000000 1.0
C      1  0.5596220000000  0.5137180000000  0.5592850000000 1.0
C      1  0.4513540000000  0.4286690000000  0.5193710000000 1.0
C      1  0.5064490000000  0.5247810000000  0.4559800000000 1.0
C      1  0.4847400000000  0.4581040000000  0.4283530000000 1.0
C      1  0.5750700000000  0.5256690000000  0.4336370000000 1.0
C      1  0.5091050000000  0.4932610000000  0.4582860000000 1.0
C      1  0.5312150000000  0.5421560000000  0.5987710000000 1.0
C      1  0.3912020000000  0.5488590000000  0.4915760000000 1.0
C      1  0.4538250000000  0.5566030000000  0.4164340000000 1.0
C      1  0.4771710000000  0.3968900000000  0.4976190000000 1.0
C      1  0.4767430000000  0.4426210000000  0.5883360000000 1.0
C      1  0.4474920000000  0.4923390000000  0.4245220000000 1.0
C      1  0.4572490000000  0.4487450000000  0.4746320000000 1.0
C      1  0.5284300000000  0.4215010000000  0.4308650000000 1.0
C      1  0.5030160000000  0.6182380000000  0.4869410000000 1.0
C      1  0.5195620000000  0.4798740000000  0.5942330000000 1.0
C      1  0.5672760000000  0.4813160000000  0.5533910000000 1.0
C      1  0.4330120000000  0.5712250000000  0.4700600000000 1.0
C      1  0.4152160000000  0.5180830000000  0.4629280000000 1.0
C      1  0.5316870000000  0.5422010000000  0.5550200000000 1.0
C      1  0.4198910000000  0.5592420000000  0.4969050000000 1.0
C      1  0.5095990000000  0.5869760000000  0.5002820000000 1.0
C      1  0.5968620000000  0.4745380000000  0.5153110000000 1.0
C      1  0.5497930000000  0.5199310000000  0.5910970000000 1.0
C      1  0.4885850000000  0.4779220000000  0.5551120000000 1.0
C      1  0.4292510000000  0.4295660000000  0.4952600000000 1.0
C      1  0.4936590000000  0.5682460000000  0.5377910000000 1.0
C      1  0.4685790000000  0.5399470000000  0.5505640000000 1.0
C      1  0.5647730000000  0.5397280000000  0.5038350000000 1.0
C      1  0.5483270000000  0.4829400000000  0.4993070000000 1.0
C      1  0.5319020000000  0.5690180000000  0.5842900000000 1.0
C      1  0.5502830000000  0.4347660000000  0.5566930000000 1.0
C      1  0.4666550000000  0.4169230000000  0.4526210000000 1.0
C      1  0.5267840000000  0.5428350000000  0.4366590000000 1.0
C      1  0.5426200000000  0.4119860000000  0.5403010000000 1.0
C      1  0.4710840000000  0.5564710000000  0.4673090000000 1.0
C      1  0.4577910000000  0.4156040000000  0.4822350000000 1.0
C      1  0.4218960000000  0.4424760000000  0.5263080000000 1.0
C      1  0.5312850000000  0.4786980000000  0.5235180000000 1.0
C      1  0.4179610000000  0.4952150000000  0.4406150000000 1.0
C      1  0.4381110000000  0.4404570000000  0.5550580000000 1.0
C      1  0.4830770000000  0.5952260000000  0.4715630000000 1.0
C      1  0.4573040000000  0.4705140000000  0.5853970000000 1.0
C      1  0.5048210000000  0.5769790000000  0.5690430000000 1.0
C      1  0.5438430000000  0.4949650000000  0.6056880000000 1.0
C      1  0.4739900000000  0.5445220000000  0.5932770000000 1.0
C      1  0.5922990000000  0.5295050000000  0.4508910000000 1.0
C      1  0.4832660000000  0.5149100000000  0.4980090000000 1.0
C      1  0.5292310000000  0.4698370000000  0.4536570000000 1.0
C      1  0.5922520000000  0.5369750000000  0.4830650000000 1.0
C      1  0.5654800000000  0.4637850000000  0.4380470000000 1.0
C      1  0.5250380000000  0.3820230000000  0.4922680000000 1.0
C      1  0.5135830000000  0.5025270000000  0.4968780000000 1.0
C      1  0.4631400000000  0.3755640000000  0.5099490000000 1.0
C      1  0.5145530000000  0.5955040000000  0.5427610000000 1.0
C      1  0.3890080000000  0.5282900000000  0.4767660000000 1.0
C      1  0.4649920000000  0.5065510000000  0.4707350000000 1.0
C      1  0.5705210000000  0.5577460000000  0.4686810000000 1.0
C      1  0.4968410000000  0.4670720000000  0.5838340000000 1.0
C      1  0.5440960000000  0.4615230000000  0.4784720000000 1.0
C      1  0.3977130000000  0.5063110000000  0.5371750000000 1.0
C      1  0.5778800000000  0.4464250000000  0.5185450000000 1.0
C      1  0.5129950000000  0.4233610000000  0.4676350000000 1.0
C      1  0.5159570000000  0.4635500000000  0.5484630000000 1.0
C      1  0.5907750000000  0.4558300000000  0.4890220000000 1.0
C      1  0.5221190000000  0.4488620000000  0.4383150000000 1.0
C      1  0.4539530000000  0.4612020000000  0.4231470000000 1.0
C      1  0.5483340000000  0.3945400000000  0.4940190000000 1.0
C      1  0.5389140000000  0.4051050000000  0.4564320000000 1.0
C      1  0.5435090000000  0.5872140000000  0.4688970000000 1.0
C      1  0.4727750000000  0.5508420000000  0.3920060000000 1.0
C      1  0.4895060000000  0.5323990000000  0.3910700000000 1.0
C      1  0.4902580000000  0.4323790000000  0.4469290000000 1.0
C      1  0.4788400000000  0.5936850000000  0.5251680000000 1.0
C      1  0.5636100000000  0.4166000000000  0.4730520000000 1.0
C      1  0.5166110000000  0.5007600000000  0.4259450000000 1.0
C      1  0.5215220000000  0.5437110000000  0.4762490000000 1.0
C      1  0.5752250000000  0.4923580000000  0.4851360000000 1.0
C      1  0.4679740000000  0.5266360000000  0.4242680000000 1.0
C      1  0.5004670000000  0.5333050000000  0.5974790000000 1.0
C      1  0.4681430000000  0.4970940000000  0.5835110000000 1.0
C      1  0.5483920000000  0.4566470000000  0.4093380000000 1.0
C      1  0.5702360000000  0.4468720000000  0.4673680000000 1.0
C      1  0.4978190000000  0.4112100000000  0.5180790000000 1.0
C      1  0.4365200000000  0.5328350000000  0.5061840000000 1.0
C      1  0.5282010000000  0.3923550000000  0.5557360000000 1.0
C      1  0.4990750000000  0.4908310000000  0.5254300000000 1.0
C      1  0.4767170000000  0.4444770000000  0.5174130000000 1.0
C      1  0.4741250000000  0.4862390000000  0.4449040000000 1.0
C      1  0.4637350000000  0.4289670000000  0.5620930000000 1.0
C      1  0.4668850000000  0.5741390000000  0.4416560000000 1.0
C      1  0.4888940000000  0.5429430000000  0.5166250000000 1.0
END
