TITL C-2778435-5768-236 0.00100629618096281 125000 -372.007072450722 0 0 66 (C1) n - 1
REM
REM in /home/nfs/bkarasulu/CARBON/AIRSS/Generating-Clusters/REBO/Only-C1/SD-CG/HFTN-CG
REM
REM
REM
REM
REM
REM ./C.cell (11c1c37f851c82e70ff6c80c92926a4b)
REM
REM compiler GCC version 9.2.1 20190827 (Red Hat 9.2.1-1)
REM options -cpp -mtune=generic -march=x86-64 -g -O0 -fpre-include=/usr/include/finclude/math-vector-fortran.h
REM seed -690110656 -1841718528 -747906720 -752311008 1859848107 757940203 1333850409 -180572381 468810191 77259274 -170222457 -32444509 -1104899153 -69250332 1197180510 767510398 693020634 261355439 -1890513882 -1979342022 -391091376 379918289 -124297519 -396923267 749202731 -103789215 -1814723646 -555627620 -609149743 -783296826 1505785598 1659684271 2018047907
REM
CELL 1.54180   50.00000   50.00000   50.00000   90.00000   90.00000   90.00000
LATT -1
SFAC C  
C      1  0.4699600000000  0.4466100000000  0.5207290000000 1.0
C      1  0.5026910000000  0.5694310000000  0.5540780000000 1.0
C      1  0.5962010000000  0.5064200000000  0.4600950000000 1.0
C      1  0.5367280000000  0.5415710000000  0.5292040000000 1.0
C      1  0.5502940000000  0.5348300000000  0.5757010000000 1.0
C      1  0.4314480000000  0.4845070000000  0.5069320000000 1.0
C      1  0.4636420000000  0.4396600000000  0.4896000000000 1.0
C      1  0.5360430000000  0.4737200000000  0.4535010000000 1.0
C      1  0.5149190000000  0.5381660000000  0.5050590000000 1.0
C      1  0.4757670000000  0.5054390000000  0.5220260000000 1.0
C      1  0.5440460000000  0.4153980000000  0.5431530000000 1.0
C      1  0.4774690000000  0.5366600000000  0.5296420000000 1.0
C      1  0.4834240000000  0.4899490000000  0.4132310000000 1.0
C      1  0.4443420000000  0.4810500000000  0.4581020000000 1.0
C      1  0.5492420000000  0.4929310000000  0.5440130000000 1.0
C      1  0.5677890000000  0.5105670000000  0.5005320000000 1.0
C      1  0.4970470000000  0.4340850000000  0.4944420000000 1.0
C      1  0.5481700000000  0.4288790000000  0.4920320000000 1.0
C      1  0.4267180000000  0.5033540000000  0.4593390000000 1.0
C      1  0.5253280000000  0.4759970000000  0.5534630000000 1.0
C      1  0.5084670000000  0.4853110000000  0.5118190000000 1.0
C      1  0.5077540000000  0.5773410000000  0.5074910000000 1.0
C      1  0.4693490000000  0.4933540000000  0.4394510000000 1.0
C      1  0.4501960000000  0.4950390000000  0.5402630000000 1.0
C      1  0.5008710000000  0.4427320000000  0.5226700000000 1.0
C      1  0.5116880000000  0.4922520000000  0.4659870000000 1.0
C      1  0.4565550000000  0.4751520000000  0.5576000000000 1.0
C      1  0.5261940000000  0.4263310000000  0.5606220000000 1.0
C      1  0.5090670000000  0.4510390000000  0.5522120000000 1.0
C      1  0.4378860000000  0.5156880000000  0.5160780000000 1.0
C      1  0.4792030000000  0.4867990000000  0.4964270000000 1.0
C      1  0.4789350000000  0.4505620000000  0.4628620000000 1.0
C      1  0.5205310000000  0.5689670000000  0.5320540000000 1.0
C      1  0.5526810000000  0.4173230000000  0.5174930000000 1.0
C      1  0.5212680000000  0.4271890000000  0.4819600000000 1.0
C      1  0.4529940000000  0.5678000000000  0.5085600000000 1.0
C      1  0.5470860000000  0.5223840000000  0.4559880000000 1.0
C      1  0.4101380000000  0.4716200000000  0.5157490000000 1.0
C      1  0.4427890000000  0.5271190000000  0.4624280000000 1.0
C      1  0.4861850000000  0.5060410000000  0.5536750000000 1.0
C      1  0.5603210000000  0.4732980000000  0.4676920000000 1.0
C      1  0.4429340000000  0.5613180000000  0.4803540000000 1.0
C      1  0.4701680000000  0.4789480000000  0.3916820000000 1.0
C      1  0.4791240000000  0.5793190000000  0.5090940000000 1.0
C      1  0.4521460000000  0.4715960000000  0.4866890000000 1.0
C      1  0.4800110000000  0.5543380000000  0.5501250000000 1.0
C      1  0.5135420000000  0.5033290000000  0.5575930000000 1.0
C      1  0.5121530000000  0.5085440000000  0.4913880000000 1.0
C      1  0.5546980000000  0.5351160000000  0.5035300000000 1.0
C      1  0.4751440000000  0.4549710000000  0.5499880000000 1.0
C      1  0.5163540000000  0.5365880000000  0.4522780000000 1.0
C      1  0.4673710000000  0.5102210000000  0.5734990000000 1.0
C      1  0.5275940000000  0.5013770000000  0.4376690000000 1.0
C      1  0.5669830000000  0.4926900000000  0.5222790000000 1.0
C      1  0.5093940000000  0.4985960000000  0.4134440000000 1.0
C      1  0.5444450000000  0.5453630000000  0.4791680000000 1.0
C      1  0.4905830000000  0.5336000000000  0.4597150000000 1.0
C      1  0.4855760000000  0.5302730000000  0.4910140000000 1.0
C      1  0.5649560000000  0.4494300000000  0.4816630000000 1.0
C      1  0.4394810000000  0.5480450000000  0.5254470000000 1.0
C      1  0.5209590000000  0.5638600000000  0.4832350000000 1.0
C      1  0.5388980000000  0.5235140000000  0.5528360000000 1.0
C      1  0.4545220000000  0.5313090000000  0.4924430000000 1.0
C      1  0.5703400000000  0.5024070000000  0.4707170000000 1.0
C      1  0.4838730000000  0.4790000000000  0.4635410000000 1.0
C      1  0.4673260000000  0.5236830000000  0.4466570000000 1.0
END
