TITL C-2778425-5191-1318 0.00310878467082319 125000 -791.625524135927 0 0 136 (C1) n - 1
REM
REM in /home/nfs/bkarasulu/CARBON/AIRSS/Generating-Clusters/REBO/Only-C1/SD-CG/HFTN-CG
REM
REM
REM
REM
REM
REM ./C.cell (11c1c37f851c82e70ff6c80c92926a4b)
REM
REM compiler GCC version 9.2.1 20190827 (Red Hat 9.2.1-1)
REM options -cpp -mtune=generic -march=x86-64 -g -O0 -fpre-include=/usr/include/finclude/math-vector-fortran.h
REM seed 1242373519 2076999317 -386220588 -1579766747 -1238878103 1067134088 454253835 -111233946 112065312 -1351373832 2056332265 301571653 -1696453388 -1925987920 1065662175 -1256359683 -635049824 -844297869 1548007109 -2112601627 508551535 982711516 -1889159380 -1770773973 -647152395 1946797968 -1806826637 -621294000 -282349035 -527956106 703402086 271706514 -1823831451
REM
CELL 1.54180   50.00000   50.00000   50.00000   90.00000   90.00000   90.00000
LATT -1
SFAC C  
C      1  0.4863260000000  0.4419310000000  0.5518060000000 1.0
C      1  0.4679780000000  0.3961600000000  0.5051920000000 1.0
C      1  0.5303010000000  0.5426520000000  0.5632840000000 1.0
C      1  0.5151820000000  0.5361710000000  0.4480980000000 1.0
C      1  0.4574740000000  0.4784100000000  0.5801900000000 1.0
C      1  0.5806720000000  0.5605880000000  0.4682910000000 1.0
C      1  0.5210920000000  0.4409180000000  0.4382830000000 1.0
C      1  0.5136630000000  0.4167980000000  0.5855350000000 1.0
C      1  0.4326220000000  0.4766250000000  0.4449500000000 1.0
C      1  0.4369790000000  0.5756000000000  0.5421430000000 1.0
C      1  0.4772380000000  0.4565690000000  0.5807950000000 1.0
C      1  0.4807560000000  0.5926560000000  0.5134630000000 1.0
C      1  0.4701280000000  0.4307250000000  0.4702010000000 1.0
C      1  0.5823390000000  0.5037550000000  0.4521570000000 1.0
C      1  0.4114640000000  0.4977940000000  0.5485200000000 1.0
C      1  0.4605920000000  0.4270470000000  0.5778880000000 1.0
C      1  0.4464590000000  0.5603820000000  0.4719520000000 1.0
C      1  0.4795470000000  0.5726820000000  0.5625510000000 1.0
C      1  0.5485360000000  0.5114410000000  0.5144740000000 1.0
C      1  0.5945310000000  0.5117710000000  0.5076750000000 1.0
C      1  0.4315570000000  0.5000590000000  0.5738120000000 1.0
C      1  0.4198670000000  0.5198290000000  0.5022410000000 1.0
C      1  0.4089460000000  0.4651680000000  0.5391620000000 1.0
C      1  0.4302990000000  0.5944340000000  0.4846230000000 1.0
C      1  0.3956290000000  0.5084850000000  0.4812360000000 1.0
C      1  0.4830130000000  0.5036410000000  0.5450970000000 1.0
C      1  0.4730380000000  0.4912060000000  0.4884290000000 1.0
C      1  0.5953640000000  0.5352720000000  0.4509090000000 1.0
C      1  0.4745170000000  0.5458090000000  0.5760890000000 1.0
C      1  0.5266820000000  0.4940760000000  0.5602910000000 1.0
C      1  0.4397510000000  0.5912760000000  0.4566940000000 1.0
C      1  0.5493300000000  0.4551590000000  0.4408130000000 1.0
C      1  0.5313910000000  0.4135280000000  0.4775250000000 1.0
C      1  0.4958260000000  0.4619010000000  0.4394490000000 1.0
C      1  0.5527770000000  0.5850490000000  0.4822340000000 1.0
C      1  0.4890580000000  0.4185350000000  0.4481570000000 1.0
C      1  0.5121980000000  0.4902450000000  0.5909860000000 1.0
C      1  0.4388240000000  0.4487380000000  0.5365900000000 1.0
C      1  0.5385150000000  0.4497700000000  0.5703950000000 1.0
C      1  0.5324370000000  0.5150960000000  0.4612730000000 1.0
C      1  0.5649230000000  0.5013270000000  0.4237280000000 1.0
C      1  0.5582650000000  0.5120700000000  0.4746870000000 1.0
C      1  0.4981410000000  0.5319160000000  0.5557360000000 1.0
C      1  0.5138140000000  0.5417050000000  0.5270020000000 1.0
C      1  0.5207950000000  0.5222660000000  0.5875710000000 1.0
C      1  0.5187880000000  0.5004420000000  0.5093800000000 1.0
C      1  0.4492780000000  0.5218500000000  0.4310900000000 1.0
C      1  0.4438340000000  0.5694540000000  0.5033270000000 1.0
C      1  0.4882110000000  0.5352790000000  0.4881520000000 1.0
C      1  0.4296680000000  0.4931700000000  0.5200850000000 1.0
C      1  0.5556060000000  0.5542670000000  0.4261370000000 1.0
C      1  0.4532740000000  0.5511020000000  0.4315670000000 1.0
C      1  0.4461460000000  0.5298390000000  0.5698750000000 1.0
C      1  0.5895980000000  0.4969480000000  0.5877660000000 1.0
C      1  0.5480110000000  0.4760040000000  0.5731290000000 1.0
C      1  0.4600360000000  0.4910410000000  0.5259830000000 1.0
C      1  0.5291210000000  0.4755480000000  0.4564960000000 1.0
C      1  0.5541760000000  0.4711670000000  0.4142370000000 1.0
C      1  0.4442920000000  0.5087340000000  0.4810140000000 1.0
C      1  0.5034700000000  0.4634680000000  0.5947650000000 1.0
C      1  0.5399760000000  0.4414040000000  0.4938140000000 1.0
C      1  0.5800120000000  0.4787620000000  0.4740980000000 1.0
C      1  0.5027340000000  0.4580950000000  0.5312250000000 1.0
C      1  0.4119660000000  0.5260650000000  0.5330050000000 1.0
C      1  0.5649760000000  0.4419140000000  0.5140170000000 1.0
C      1  0.5288150000000  0.5478570000000  0.4210300000000 1.0
C      1  0.5175350000000  0.4147880000000  0.4541620000000 1.0
C      1  0.5008930000000  0.4920980000000  0.4540140000000 1.0
C      1  0.4627390000000  0.5854260000000  0.5409160000000 1.0
C      1  0.4915470000000  0.5815600000000  0.4604600000000 1.0
C      1  0.5225240000000  0.5831170000000  0.4461330000000 1.0
C      1  0.5836670000000  0.4626220000000  0.5212150000000 1.0
C      1  0.4988000000000  0.5682540000000  0.5392970000000 1.0
C      1  0.4725470000000  0.4775370000000  0.3986730000000 1.0
C      1  0.4404150000000  0.4198030000000  0.5219620000000 1.0
C      1  0.4832320000000  0.4129370000000  0.5244520000000 1.0
C      1  0.5521710000000  0.5406230000000  0.5029800000000 1.0
C      1  0.4694310000000  0.5176900000000  0.5103370000000 1.0
C      1  0.4963810000000  0.4689580000000  0.4994110000000 1.0
C      1  0.5079250000000  0.5094670000000  0.4824020000000 1.0
C      1  0.5277170000000  0.4698410000000  0.3997350000000 1.0
C      1  0.4814400000000  0.4383620000000  0.5016390000000 1.0
C      1  0.5120330000000  0.4455340000000  0.4068690000000 1.0
C      1  0.4251060000000  0.4359540000000  0.4961090000000 1.0
C      1  0.5027610000000  0.4153930000000  0.5604980000000 1.0
C      1  0.4334360000000  0.5433850000000  0.5459250000000 1.0
C      1  0.5076080000000  0.4883260000000  0.5348500000000 1.0
C      1  0.5747900000000  0.5328570000000  0.4262080000000 1.0
C      1  0.4504560000000  0.4146500000000  0.4896080000000 1.0
C      1  0.5803460000000  0.5342870000000  0.5217420000000 1.0
C      1  0.5280830000000  0.4686230000000  0.4870780000000 1.0
C      1  0.5246990000000  0.5864400000000  0.5412960000000 1.0
C      1  0.5446240000000  0.5670930000000  0.5499820000000 1.0
C      1  0.4748980000000  0.4563240000000  0.4170350000000 1.0
C      1  0.5733830000000  0.5671110000000  0.5004260000000 1.0
C      1  0.5451400000000  0.4248320000000  0.5296770000000 1.0
C      1  0.4630230000000  0.4829520000000  0.4575520000000 1.0
C      1  0.4686930000000  0.5837970000000  0.4835680000000 1.0
C      1  0.4634560000000  0.5791930000000  0.4414390000000 1.0
C      1  0.5124830000000  0.5968350000000  0.5151110000000 1.0
C      1  0.5152960000000  0.4956680000000  0.4084950000000 1.0
C      1  0.5075250000000  0.5563320000000  0.4715110000000 1.0
C      1  0.5338250000000  0.4999320000000  0.4329170000000 1.0
C      1  0.4615670000000  0.5344600000000  0.4669390000000 1.0
C      1  0.5529240000000  0.4867600000000  0.4937120000000 1.0
C      1  0.4707590000000  0.5063700000000  0.5741360000000 1.0
C      1  0.5759870000000  0.4804920000000  0.5709840000000 1.0
C      1  0.5331570000000  0.5181180000000  0.5421910000000 1.0
C      1  0.5262770000000  0.5832580000000  0.4941630000000 1.0
C      1  0.4877140000000  0.4995400000000  0.4086600000000 1.0
C      1  0.5668930000000  0.5615670000000  0.5334390000000 1.0
C      1  0.5274810000000  0.4428970000000  0.5455990000000 1.0
C      1  0.5032680000000  0.5663480000000  0.4256060000000 1.0
C      1  0.4183950000000  0.4864950000000  0.4808300000000 1.0
C      1  0.5158020000000  0.4072290000000  0.5323930000000 1.0
C      1  0.4533600000000  0.4518920000000  0.4572680000000 1.0
C      1  0.5165490000000  0.4390890000000  0.6019440000000 1.0
C      1  0.4636610000000  0.4604210000000  0.5206250000000 1.0
C      1  0.4812170000000  0.5587080000000  0.5120270000000 1.0
C      1  0.4172250000000  0.4649800000000  0.5071370000000 1.0
C      1  0.4529330000000  0.5454030000000  0.5213750000000 1.0
C      1  0.4618610000000  0.4182890000000  0.5482020000000 1.0
C      1  0.4225840000000  0.4548200000000  0.4691990000000 1.0
C      1  0.4831740000000  0.5444890000000  0.4423350000000 1.0
C      1  0.5744150000000  0.4526250000000  0.4584860000000 1.0
C      1  0.5240220000000  0.5514180000000  0.4996090000000 1.0
C      1  0.4867090000000  0.4278040000000  0.4207920000000 1.0
C      1  0.4277030000000  0.5044470000000  0.4314470000000 1.0
C      1  0.5552750000000  0.5749630000000  0.4507300000000 1.0
C      1  0.4316120000000  0.4672350000000  0.5640090000000 1.0
C      1  0.5878560000000  0.4679150000000  0.5486880000000 1.0
C      1  0.4755810000000  0.5058280000000  0.4364980000000 1.0
C      1  0.5844750000000  0.5296780000000  0.4823300000000 1.0
C      1  0.5914790000000  0.4836560000000  0.5032410000000 1.0
C      1  0.5155430000000  0.4212730000000  0.5034110000000 1.0
C      1  0.4910860000000  0.5232890000000  0.5939480000000 1.0
END
