TITL C-2778432-5617-251 -0.00436863632674006 125000 -1038.76014300167 0 0 178 (C1) n - 1
REM
REM in /home/nfs/bkarasulu/CARBON/AIRSS/Generating-Clusters/REBO/Only-C1/SD-CG/HFTN-CG
REM
REM
REM
REM
REM
REM ./C.cell (11c1c37f851c82e70ff6c80c92926a4b)
REM
REM compiler GCC version 9.2.1 20190827 (Red Hat 9.2.1-1)
REM options -cpp -mtune=generic -march=x86-64 -g -O0 -fpre-include=/usr/include/finclude/math-vector-fortran.h
REM seed -1925547267 653544408 479761614 -106393988 329460649 1565878688 -1210245204 939907685 -211832029 51849305 -1337071672 -728641472 2068467673 83015382 817237825 -1142595625 -1068125286 -920945420 -775340257 -1018293416 -1302693615 1588862954 1337949320 -1361784685 1414241235 1704314182 -195029094 -514379982 1985664403 -1862164667 -24048574 -451771293 1765010426
REM
CELL 1.54180   50.00000   50.00000   50.00000   90.00000   90.00000   90.00000
LATT -1
SFAC C  
C      1  0.5096180000000  0.4885330000000  0.4493520000000 1.0
C      1  0.5512000000000  0.4701950000000  0.5907050000000 1.0
C      1  0.5667310000000  0.5206570000000  0.4637220000000 1.0
C      1  0.5816420000000  0.5483340000000  0.5337480000000 1.0
C      1  0.5302600000000  0.4919170000000  0.4039060000000 1.0
C      1  0.5832880000000  0.4802070000000  0.5837910000000 1.0
C      1  0.5222240000000  0.4629530000000  0.5047850000000 1.0
C      1  0.4753120000000  0.4599630000000  0.5826650000000 1.0
C      1  0.5878170000000  0.4477110000000  0.5268820000000 1.0
C      1  0.4210280000000  0.5228930000000  0.4518870000000 1.0
C      1  0.5528230000000  0.4101090000000  0.5234550000000 1.0
C      1  0.5678620000000  0.4997960000000  0.5272510000000 1.0
C      1  0.5534730000000  0.5571240000000  0.5409340000000 1.0
C      1  0.5969280000000  0.4911060000000  0.5568550000000 1.0
C      1  0.5025930000000  0.6048260000000  0.4888290000000 1.0
C      1  0.4358540000000  0.5050870000000  0.4762530000000 1.0
C      1  0.5031320000000  0.4991440000000  0.5844940000000 1.0
C      1  0.5151620000000  0.4470730000000  0.4082520000000 1.0
C      1  0.5649260000000  0.5185690000000  0.5536280000000 1.0
C      1  0.4428940000000  0.4914480000000  0.5179110000000 1.0
C      1  0.5021320000000  0.5814980000000  0.5069410000000 1.0
C      1  0.4297410000000  0.5781510000000  0.4440940000000 1.0
C      1  0.4896950000000  0.4224360000000  0.5284190000000 1.0
C      1  0.5412940000000  0.5612200000000  0.5797450000000 1.0
C      1  0.5150080000000  0.5655850000000  0.5343130000000 1.0
C      1  0.4303000000000  0.5844960000000  0.4777080000000 1.0
C      1  0.5119360000000  0.5469920000000  0.4557500000000 1.0
C      1  0.4075140000000  0.4649300000000  0.5002700000000 1.0
C      1  0.5538510000000  0.4255200000000  0.5601290000000 1.0
C      1  0.5291330000000  0.6028210000000  0.5305910000000 1.0
C      1  0.5025410000000  0.6030920000000  0.5404530000000 1.0
C      1  0.4994580000000  0.4227400000000  0.5605320000000 1.0
C      1  0.4693030000000  0.4500230000000  0.4069750000000 1.0
C      1  0.5397190000000  0.5692170000000  0.5121450000000 1.0
C      1  0.5346300000000  0.5326910000000  0.5510260000000 1.0
C      1  0.4744170000000  0.4908470000000  0.5824680000000 1.0
C      1  0.5900160000000  0.4766930000000  0.4427990000000 1.0
C      1  0.4526770000000  0.5950490000000  0.5214650000000 1.0
C      1  0.4423790000000  0.5583100000000  0.5740010000000 1.0
C      1  0.4629160000000  0.4122260000000  0.5099570000000 1.0
C      1  0.4608560000000  0.5362240000000  0.4188830000000 1.0
C      1  0.4776320000000  0.6126450000000  0.4806020000000 1.0
C      1  0.4425430000000  0.4794680000000  0.4109830000000 1.0
C      1  0.4592600000000  0.5260260000000  0.4622870000000 1.0
C      1  0.5785990000000  0.5437330000000  0.5027740000000 1.0
C      1  0.4246030000000  0.5062600000000  0.5618410000000 1.0
C      1  0.4509140000000  0.4434000000000  0.5863740000000 1.0
C      1  0.5743500000000  0.4308840000000  0.4781930000000 1.0
C      1  0.5371890000000  0.4168260000000  0.4500100000000 1.0
C      1  0.5346760000000  0.4658690000000  0.4173880000000 1.0
C      1  0.5335840000000  0.4666140000000  0.4726530000000 1.0
C      1  0.4861940000000  0.5440420000000  0.5705060000000 1.0
C      1  0.5281600000000  0.3891230000000  0.5197510000000 1.0
C      1  0.4176200000000  0.4399260000000  0.4578470000000 1.0
C      1  0.4679860000000  0.4872880000000  0.4264700000000 1.0
C      1  0.5026600000000  0.4613200000000  0.4562130000000 1.0
C      1  0.4762150000000  0.5620300000000  0.4655030000000 1.0
C      1  0.4842760000000  0.4534040000000  0.5527290000000 1.0
C      1  0.5245140000000  0.5492820000000  0.4934750000000 1.0
C      1  0.5650010000000  0.4175360000000  0.4489060000000 1.0
C      1  0.5209780000000  0.4830740000000  0.5414910000000 1.0
C      1  0.4754330000000  0.5416410000000  0.5086560000000 1.0
C      1  0.5972570000000  0.4736100000000  0.5336970000000 1.0
C      1  0.4962120000000  0.4450770000000  0.5063000000000 1.0
C      1  0.4976000000000  0.4953270000000  0.5237050000000 1.0
C      1  0.5631490000000  0.5906980000000  0.4766550000000 1.0
C      1  0.4613040000000  0.4113410000000  0.5439100000000 1.0
C      1  0.4033130000000  0.5281110000000  0.4987000000000 1.0
C      1  0.5006030000000  0.4912130000000  0.3928180000000 1.0
C      1  0.5601660000000  0.5385950000000  0.5807020000000 1.0
C      1  0.5406930000000  0.5984150000000  0.4988160000000 1.0
C      1  0.5943270000000  0.4915790000000  0.5070180000000 1.0
C      1  0.5558500000000  0.4069770000000  0.4920800000000 1.0
C      1  0.5087150000000  0.4195640000000  0.4140900000000 1.0
C      1  0.5640910000000  0.4979080000000  0.4454120000000 1.0
C      1  0.5073100000000  0.3851320000000  0.5073790000000 1.0
C      1  0.4606260000000  0.5915330000000  0.4655650000000 1.0
C      1  0.4600380000000  0.5370390000000  0.5861700000000 1.0
C      1  0.3985180000000  0.4963030000000  0.5408980000000 1.0
C      1  0.4448920000000  0.5539460000000  0.4718270000000 1.0
C      1  0.4282790000000  0.5802270000000  0.5116690000000 1.0
C      1  0.4334490000000  0.4752310000000  0.4904940000000 1.0
C      1  0.4320210000000  0.5238070000000  0.4256180000000 1.0
C      1  0.4413790000000  0.5624500000000  0.4286670000000 1.0
C      1  0.5510170000000  0.4682330000000  0.4434580000000 1.0
C      1  0.4247510000000  0.5372690000000  0.5472440000000 1.0
C      1  0.5276490000000  0.4244500000000  0.5413540000000 1.0
C      1  0.5266620000000  0.4332190000000  0.4703930000000 1.0
C      1  0.4225910000000  0.4712450000000  0.4523330000000 1.0
C      1  0.4707990000000  0.4869030000000  0.4828440000000 1.0
C      1  0.4983700000000  0.5018230000000  0.4929390000000 1.0
C      1  0.5236190000000  0.5019630000000  0.4725170000000 1.0
C      1  0.4266200000000  0.4572700000000  0.4230710000000 1.0
C      1  0.5100770000000  0.5216350000000  0.5686780000000 1.0
C      1  0.4973130000000  0.4287240000000  0.4784390000000 1.0
C      1  0.4926840000000  0.4627250000000  0.3977140000000 1.0
C      1  0.5021130000000  0.4546610000000  0.5977140000000 1.0
C      1  0.4680500000000  0.4578460000000  0.5003470000000 1.0
C      1  0.4849490000000  0.5917920000000  0.5663490000000 1.0
C      1  0.5486480000000  0.4541220000000  0.5225140000000 1.0
C      1  0.5131340000000  0.5728180000000  0.5641530000000 1.0
C      1  0.5648780000000  0.5561750000000  0.4301860000000 1.0
C      1  0.5142520000000  0.4543000000000  0.5427730000000 1.0
C      1  0.4555660000000  0.5161530000000  0.5339120000000 1.0
C      1  0.4930070000000  0.5010710000000  0.4306710000000 1.0
C      1  0.4472800000000  0.4130180000000  0.4278380000000 1.0
C      1  0.5247530000000  0.5996870000000  0.4688800000000 1.0
C      1  0.4576500000000  0.5838120000000  0.5621930000000 1.0
C      1  0.4778310000000  0.5527150000000  0.5408380000000 1.0
C      1  0.5624030000000  0.5141860000000  0.4962960000000 1.0
C      1  0.5110390000000  0.5336000000000  0.5294770000000 1.0
C      1  0.4035650000000  0.5391070000000  0.4665250000000 1.0
C      1  0.5383310000000  0.5620530000000  0.4268070000000 1.0
C      1  0.4905730000000  0.5235540000000  0.4676850000000 1.0
C      1  0.5977240000000  0.5190560000000  0.4783420000000 1.0
C      1  0.4940410000000  0.5852540000000  0.4260240000000 1.0
C      1  0.5506090000000  0.5101360000000  0.4099600000000 1.0
C      1  0.5364330000000  0.3912890000000  0.4806800000000 1.0
C      1  0.4014280000000  0.4883520000000  0.4646750000000 1.0
C      1  0.4263960000000  0.5502400000000  0.4973130000000 1.0
C      1  0.5728050000000  0.5320930000000  0.4175390000000 1.0
C      1  0.5465870000000  0.5881170000000  0.5468470000000 1.0
C      1  0.5305030000000  0.5207760000000  0.5070060000000 1.0
C      1  0.4417430000000  0.4369010000000  0.5066850000000 1.0
C      1  0.5366900000000  0.4914850000000  0.5164470000000 1.0
C      1  0.5139190000000  0.4028970000000  0.4368400000000 1.0
C      1  0.5034890000000  0.5248130000000  0.4139050000000 1.0
C      1  0.5790180000000  0.5641400000000  0.4829980000000 1.0
C      1  0.4789330000000  0.5817210000000  0.5284630000000 1.0
C      1  0.5550760000000  0.4637730000000  0.5486300000000 1.0
C      1  0.5365300000000  0.5298360000000  0.4687340000000 1.0
C      1  0.5105820000000  0.3927210000000  0.4673490000000 1.0
C      1  0.4400120000000  0.4274570000000  0.5584970000000 1.0
C      1  0.5615000000000  0.4804560000000  0.4872980000000 1.0
C      1  0.4174340000000  0.5140230000000  0.5233500000000 1.0
C      1  0.4524170000000  0.4534510000000  0.4720180000000 1.0
C      1  0.6025510000000  0.5227800000000  0.5119710000000 1.0
C      1  0.4020070000000  0.4652100000000  0.5297620000000 1.0
C      1  0.5724110000000  0.4518580000000  0.4996020000000 1.0
C      1  0.4689780000000  0.5923130000000  0.4346510000000 1.0
C      1  0.5905880000000  0.4873550000000  0.4734040000000 1.0
C      1  0.5754790000000  0.5707410000000  0.4522980000000 1.0
C      1  0.4555520000000  0.4798980000000  0.4531880000000 1.0
C      1  0.4708580000000  0.4787870000000  0.5337920000000 1.0
C      1  0.5400370000000  0.4898590000000  0.5653590000000 1.0
C      1  0.4845240000000  0.5186690000000  0.5396810000000 1.0
C      1  0.5186380000000  0.4781510000000  0.5968320000000 1.0
C      1  0.4525310000000  0.5084130000000  0.5775680000000 1.0
C      1  0.5439440000000  0.4382130000000  0.5836640000000 1.0
C      1  0.4308600000000  0.5710130000000  0.5445310000000 1.0
C      1  0.4218190000000  0.4511820000000  0.5753070000000 1.0
C      1  0.5768550000000  0.4475190000000  0.4482880000000 1.0
C      1  0.5106660000000  0.5534400000000  0.5922610000000 1.0
C      1  0.4827700000000  0.5488690000000  0.4377940000000 1.0
C      1  0.4617880000000  0.5176270000000  0.4945760000000 1.0
C      1  0.4265420000000  0.5029490000000  0.4070250000000 1.0
C      1  0.3919060000000  0.5038380000000  0.4810010000000 1.0
C      1  0.4691190000000  0.4311560000000  0.4285890000000 1.0
C      1  0.4212720000000  0.4314120000000  0.4834040000000 1.0
C      1  0.4448310000000  0.5428950000000  0.5204910000000 1.0
C      1  0.4283460000000  0.4463420000000  0.5334850000000 1.0
C      1  0.4935620000000  0.5565040000000  0.4899430000000 1.0
C      1  0.5189470000000  0.5792860000000  0.4477090000000 1.0
C      1  0.4857490000000  0.4006780000000  0.4893020000000 1.0
C      1  0.4777000000000  0.4412720000000  0.4560590000000 1.0
C      1  0.5089480000000  0.5559120000000  0.4170230000000 1.0
C      1  0.4777690000000  0.5161140000000  0.3970660000000 1.0
C      1  0.4626360000000  0.5394310000000  0.6141930000000 1.0
C      1  0.5767960000000  0.4252950000000  0.5400720000000 1.0
C      1  0.5240730000000  0.5258850000000  0.6056700000000 1.0
C      1  0.5826000000000  0.4995000000000  0.4183020000000 1.0
C      1  0.5780180000000  0.4568570000000  0.5644600000000 1.0
C      1  0.5156870000000  0.4326000000000  0.5869110000000 1.0
C      1  0.4227610000000  0.4271790000000  0.4304530000000 1.0
C      1  0.4110250000000  0.4746060000000  0.5618990000000 1.0
C      1  0.5438030000000  0.5138510000000  0.5885940000000 1.0
C      1  0.5975460000000  0.5212830000000  0.5455840000000 1.0
C      1  0.4470010000000  0.4652650000000  0.5476850000000 1.0
END
