TITL C-2778422-5617-717 -0.379931842367429 125000 -667.261291161016 0 0 116 (C1) n - 1
REM
REM in /home/nfs/bkarasulu/CARBON/AIRSS/Generating-Clusters/REBO/Only-C1/SD-CG/HFTN-CG
REM
REM
REM
REM
REM
REM ./C.cell (11c1c37f851c82e70ff6c80c92926a4b)
REM
REM compiler GCC version 9.2.1 20190827 (Red Hat 9.2.1-1)
REM options -cpp -mtune=generic -march=x86-64 -g -O0 -fpre-include=/usr/include/finclude/math-vector-fortran.h
REM seed -1497118787 -1778663693 -1683820076 1966501181 1880647289 -262655860 -265182188 -2036664987 -1486029112 2065693846 -1096522785 -391694182 -1800381618 -1853730668 300259594 2066439911 858655884 -613816883 -69872246 1713901234 905941551 582486806 -1292488447 1960438061 17194316 -1308327552 -444719573 -36008471 763593885 -1832075675 -1111104588 351975659 682017524
REM
CELL 1.54180   50.00000   50.00000   50.00000   90.00000   90.00000   90.00000
LATT -1
SFAC C  
C      1  0.5005580000000  0.5610040000000  0.5124370000000 1.0
C      1  0.4643250000000  0.5736580000000  0.5228560000000 1.0
C      1  0.4973650000000  0.4568310000000  0.4174610000000 1.0
C      1  0.5615240000000  0.5862610000000  0.4514230000000 1.0
C      1  0.4362110000000  0.4894620000000  0.5519000000000 1.0
C      1  0.5744500000000  0.4874570000000  0.5705450000000 1.0
C      1  0.4940360000000  0.5055960000000  0.5170560000000 1.0
C      1  0.5118140000000  0.4169410000000  0.5265990000000 1.0
C      1  0.5215450000000  0.5502390000000  0.5348570000000 1.0
C      1  0.4324210000000  0.5804270000000  0.4887030000000 1.0
C      1  0.4947270000000  0.4571570000000  0.4943370000000 1.0
C      1  0.4665670000000  0.4647520000000  0.5782090000000 1.0
C      1  0.5209960000000  0.5845480000000  0.5373730000000 1.0
C      1  0.5412070000000  0.4261760000000  0.4699340000000 1.0
C      1  0.4714160000000  0.5559080000000  0.4984490000000 1.0
C      1  0.5598080000000  0.5321160000000  0.5452180000000 1.0
C      1  0.4665920000000  0.4578070000000  0.4237260000000 1.0
C      1  0.4886160000000  0.4745500000000  0.4522060000000 1.0
C      1  0.5731090000000  0.5712400000000  0.5520750000000 1.0
C      1  0.4139420000000  0.5266470000000  0.4816730000000 1.0
C      1  0.5196610000000  0.5020670000000  0.4237810000000 1.0
C      1  0.5775230000000  0.5030650000000  0.5440080000000 1.0
C      1  0.4764180000000  0.4387440000000  0.5667740000000 1.0
C      1  0.5178680000000  0.5231790000000  0.5454580000000 1.0
C      1  0.5205550000000  0.4340170000000  0.5547090000000 1.0
C      1  0.4584010000000  0.4924760000000  0.5050430000000 1.0
C      1  0.5504010000000  0.5005270000000  0.5848980000000 1.0
C      1  0.4358230000000  0.4881830000000  0.4501460000000 1.0
C      1  0.4332670000000  0.5116810000000  0.4684240000000 1.0
C      1  0.5048680000000  0.4542900000000  0.5772630000000 1.0
C      1  0.4441090000000  0.5277940000000  0.5384190000000 1.0
C      1  0.5058670000000  0.4788410000000  0.5294330000000 1.0
C      1  0.5460270000000  0.5213170000000  0.4219940000000 1.0
C      1  0.5247990000000  0.4503020000000  0.5093180000000 1.0
C      1  0.4154850000000  0.4512120000000  0.4914740000000 1.0
C      1  0.4921480000000  0.4256080000000  0.4879020000000 1.0
C      1  0.4439200000000  0.4428700000000  0.5329660000000 1.0
C      1  0.5438760000000  0.5271980000000  0.5750160000000 1.0
C      1  0.4198670000000  0.5554890000000  0.4928850000000 1.0
C      1  0.4567920000000  0.5125510000000  0.4837420000000 1.0
C      1  0.4893650000000  0.4816820000000  0.5919830000000 1.0
C      1  0.4695660000000  0.4906980000000  0.5585630000000 1.0
C      1  0.5808080000000  0.5033010000000  0.4930600000000 1.0
C      1  0.5437750000000  0.5029510000000  0.5388130000000 1.0
C      1  0.5213860000000  0.5151070000000  0.4994730000000 1.0
C      1  0.4451890000000  0.5326890000000  0.5654970000000 1.0
C      1  0.5224150000000  0.5943120000000  0.4775190000000 1.0
C      1  0.5112210000000  0.5735900000000  0.4373230000000 1.0
C      1  0.5332830000000  0.5911240000000  0.4508350000000 1.0
C      1  0.4877380000000  0.5103760000000  0.5900050000000 1.0
C      1  0.5157440000000  0.4284830000000  0.4557560000000 1.0
C      1  0.5067740000000  0.6071900000000  0.5348510000000 1.0
C      1  0.5421260000000  0.5521120000000  0.4890610000000 1.0
C      1  0.5816850000000  0.4907770000000  0.4673930000000 1.0
C      1  0.4836480000000  0.5190980000000  0.4892650000000 1.0
C      1  0.5211870000000  0.5709920000000  0.4930270000000 1.0
C      1  0.4795260000000  0.5804370000000  0.4495460000000 1.0
C      1  0.5402930000000  0.4935390000000  0.4501540000000 1.0
C      1  0.5613910000000  0.5451030000000  0.5162390000000 1.0
C      1  0.4650430000000  0.4281370000000  0.5433930000000 1.0
C      1  0.4181060000000  0.4997060000000  0.5273890000000 1.0
C      1  0.4086820000000  0.4710720000000  0.5138600000000 1.0
C      1  0.4920390000000  0.5300570000000  0.4175450000000 1.0
C      1  0.4525230000000  0.4388360000000  0.4482730000000 1.0
C      1  0.5033800000000  0.4945900000000  0.5569030000000 1.0
C      1  0.4975060000000  0.5585860000000  0.4633180000000 1.0
C      1  0.4618530000000  0.5221890000000  0.5849760000000 1.0
C      1  0.4649060000000  0.4661030000000  0.4929820000000 1.0
C      1  0.4859550000000  0.5663060000000  0.5432530000000 1.0
C      1  0.5543050000000  0.4649770000000  0.5677920000000 1.0
C      1  0.4100290000000  0.4753190000000  0.4410380000000 1.0
C      1  0.4205350000000  0.5294410000000  0.5150340000000 1.0
C      1  0.5099740000000  0.5283340000000  0.5777970000000 1.0
C      1  0.4434460000000  0.5907250000000  0.5134240000000 1.0
C      1  0.5451960000000  0.4879130000000  0.4834430000000 1.0
C      1  0.4948220000000  0.4095710000000  0.4513680000000 1.0
C      1  0.5132970000000  0.4831480000000  0.4903850000000 1.0
C      1  0.5787110000000  0.5661840000000  0.4958840000000 1.0
C      1  0.4684160000000  0.4125850000000  0.4588900000000 1.0
C      1  0.5439270000000  0.4621340000000  0.4391030000000 1.0
C      1  0.5367780000000  0.4205200000000  0.5032150000000 1.0
C      1  0.5582740000000  0.5383930000000  0.4623230000000 1.0
C      1  0.4697730000000  0.5209870000000  0.4302410000000 1.0
C      1  0.5260180000000  0.4796290000000  0.5774040000000 1.0
C      1  0.4785900000000  0.4132740000000  0.5230000000000 1.0
C      1  0.5881070000000  0.4892480000000  0.5188760000000 1.0
C      1  0.5533620000000  0.5171990000000  0.4995700000000 1.0
C      1  0.4992740000000  0.4483320000000  0.5328490000000 1.0
C      1  0.4597550000000  0.4682930000000  0.4615620000000 1.0
C      1  0.5628540000000  0.4424390000000  0.5265730000000 1.0
C      1  0.5583280000000  0.4462920000000  0.4584410000000 1.0
C      1  0.4928000000000  0.4889810000000  0.4238580000000 1.0
C      1  0.4456030000000  0.4461270000000  0.5035210000000 1.0
C      1  0.5070390000000  0.5348450000000  0.4768220000000 1.0
C      1  0.5692200000000  0.5113200000000  0.4448740000000 1.0
C      1  0.4372480000000  0.4288800000000  0.4770970000000 1.0
C      1  0.5496220000000  0.4433740000000  0.5509580000000 1.0
C      1  0.5728420000000  0.5658220000000  0.4682360000000 1.0
C      1  0.5192170000000  0.5416910000000  0.4286070000000 1.0
C      1  0.4590880000000  0.4906440000000  0.4284770000000 1.0
C      1  0.4606440000000  0.5363260000000  0.4518830000000 1.0
C      1  0.5765310000000  0.4617720000000  0.4734130000000 1.0
C      1  0.5474340000000  0.5700130000000  0.5442220000000 1.0
C      1  0.5122680000000  0.4058280000000  0.4884060000000 1.0
C      1  0.4251330000000  0.4630380000000  0.5404630000000 1.0
C      1  0.4589760000000  0.5549560000000  0.4730330000000 1.0
C      1  0.5248180000000  0.4507090000000  0.4210010000000 1.0
C      1  0.5066710000000  0.4551280000000  0.4563170000000 1.0
C      1  0.4629550000000  0.4121440000000  0.4925830000000 1.0
C      1  0.5371280000000  0.4789770000000  0.5220960000000 1.0
C      1  0.4516990000000  0.5840100000000  0.4629130000000 1.0
C      1  0.4654110000000  0.5072070000000  0.5315320000000 1.0
C      1  0.5284720000000  0.5258170000000  0.4570930000000 1.0
C      1  0.4961150000000  0.5551760000000  0.5653070000000 1.0
C      1  0.5650260000000  0.4684870000000  0.5047790000000 1.0
C      1  0.3882530000000  0.4644590000000  0.4333490000000 1.0
END
