TITL C-2778423-5760-69 -0.000649514025931431 125000 -1166.20295198845 0 0 196 (C1) n - 1
REM
REM in /home/nfs/bkarasulu/CARBON/AIRSS/Generating-Clusters/REBO/Only-C1/SD-CG/HFTN-CG
REM
REM
REM
REM
REM
REM ./C.cell (11c1c37f851c82e70ff6c80c92926a4b)
REM
REM compiler GCC version 9.2.1 20190827 (Red Hat 9.2.1-1)
REM options -cpp -mtune=generic -march=x86-64 -g -O0 -fpre-include=/usr/include/finclude/math-vector-fortran.h
REM seed -1539325064 1289918535 36673279 590865353 1098817718 -651637042 -1498697020 1622849793 406701386 2036003214 -896977954 1415439196 1039491953 -309833607 474094144 -2027496082 1171070871 -1134050400 948141816 1293893429 -253976333 673064171 1278397205 936504765 220538894 -1931099409 2075947572 -2132140153 -194408046 -290937752 1282175898 -1682451032 451350184
REM
CELL 1.54180   50.00000   50.00000   50.00000   90.00000   90.00000   90.00000
LATT -1
SFAC C  
C      1  0.4385120000000  0.5710760000000  0.4919410000000 1.0
C      1  0.5510650000000  0.4543500000000  0.5234210000000 1.0
C      1  0.5831560000000  0.5158900000000  0.5132880000000 1.0
C      1  0.4019560000000  0.4858860000000  0.4773190000000 1.0
C      1  0.5077200000000  0.5090730000000  0.6243090000000 1.0
C      1  0.4528370000000  0.5002480000000  0.4880540000000 1.0
C      1  0.4748300000000  0.5883670000000  0.4681170000000 1.0
C      1  0.5433540000000  0.5102460000000  0.5008350000000 1.0
C      1  0.4089040000000  0.5134620000000  0.5533690000000 1.0
C      1  0.5890300000000  0.4507920000000  0.5370340000000 1.0
C      1  0.4995190000000  0.5922490000000  0.3868600000000 1.0
C      1  0.4719340000000  0.5093250000000  0.4488220000000 1.0
C      1  0.5917850000000  0.5359700000000  0.5585250000000 1.0
C      1  0.5113490000000  0.5157840000000  0.4475350000000 1.0
C      1  0.4791290000000  0.5875410000000  0.5198210000000 1.0
C      1  0.4451430000000  0.5840680000000  0.4679270000000 1.0
C      1  0.5641860000000  0.5508850000000  0.4242430000000 1.0
C      1  0.4792590000000  0.6126470000000  0.4887590000000 1.0
C      1  0.4695620000000  0.4497700000000  0.4945720000000 1.0
C      1  0.5368510000000  0.4733750000000  0.4087630000000 1.0
C      1  0.3950870000000  0.4571000000000  0.5127520000000 1.0
C      1  0.5969540000000  0.5522100000000  0.4565970000000 1.0
C      1  0.4905360000000  0.5456190000000  0.4274100000000 1.0
C      1  0.3932290000000  0.4892440000000  0.5493450000000 1.0
C      1  0.5399580000000  0.6023860000000  0.4791960000000 1.0
C      1  0.4640900000000  0.5655060000000  0.5381320000000 1.0
C      1  0.5184650000000  0.4822190000000  0.5556210000000 1.0
C      1  0.5197100000000  0.4384610000000  0.4168680000000 1.0
C      1  0.4824480000000  0.4595760000000  0.5521430000000 1.0
C      1  0.5770030000000  0.4701430000000  0.4867640000000 1.0
C      1  0.5612790000000  0.4971120000000  0.4141940000000 1.0
C      1  0.5603520000000  0.4206170000000  0.4799230000000 1.0
C      1  0.5129120000000  0.5673470000000  0.4025750000000 1.0
C      1  0.4715380000000  0.5547250000000  0.4734290000000 1.0
C      1  0.5696040000000  0.4682270000000  0.5559660000000 1.0
C      1  0.5591680000000  0.5574800000000  0.5146800000000 1.0
C      1  0.4445020000000  0.5530010000000  0.3986450000000 1.0
C      1  0.4768340000000  0.4051140000000  0.5215390000000 1.0
C      1  0.5541140000000  0.5346590000000  0.6135770000000 1.0
C      1  0.4145210000000  0.5559500000000  0.4522910000000 1.0
C      1  0.4467230000000  0.4685170000000  0.4128250000000 1.0
C      1  0.5439370000000  0.5232590000000  0.4718750000000 1.0
C      1  0.4957270000000  0.6009340000000  0.5589420000000 1.0
C      1  0.5112250000000  0.4871900000000  0.4996480000000 1.0
C      1  0.4084060000000  0.4526080000000  0.4815340000000 1.0
C      1  0.4245420000000  0.4358430000000  0.4593530000000 1.0
C      1  0.5000930000000  0.5073610000000  0.4207680000000 1.0
C      1  0.5075540000000  0.6086830000000  0.4781170000000 1.0
C      1  0.5078840000000  0.4048650000000  0.4555250000000 1.0
C      1  0.5248740000000  0.5650540000000  0.5426590000000 1.0
C      1  0.6129190000000  0.5269710000000  0.5010410000000 1.0
C      1  0.4878760000000  0.4757920000000  0.4826940000000 1.0
C      1  0.4604800000000  0.6098390000000  0.5126570000000 1.0
C      1  0.4106380000000  0.5542500000000  0.5270070000000 1.0
C      1  0.3891730000000  0.4962220000000  0.4492680000000 1.0
C      1  0.5046950000000  0.4810350000000  0.5273100000000 1.0
C      1  0.4884130000000  0.4386990000000  0.4033820000000 1.0
C      1  0.4773700000000  0.5401280000000  0.5265050000000 1.0
C      1  0.4978470000000  0.4174920000000  0.4295990000000 1.0
C      1  0.5118260000000  0.5747440000000  0.4737250000000 1.0
C      1  0.4193370000000  0.4711960000000  0.4418060000000 1.0
C      1  0.3853680000000  0.4849400000000  0.5222130000000 1.0
C      1  0.4339070000000  0.4861070000000  0.4689960000000 1.0
C      1  0.5191480000000  0.4161280000000  0.5541300000000 1.0
C      1  0.5676080000000  0.4718190000000  0.4314710000000 1.0
C      1  0.4344250000000  0.6024190000000  0.5263720000000 1.0
C      1  0.5125280000000  0.4375170000000  0.5027370000000 1.0
C      1  0.5271610000000  0.5473060000000  0.4663670000000 1.0
C      1  0.5682120000000  0.4803050000000  0.5840680000000 1.0
C      1  0.5233260000000  0.4872710000000  0.6033100000000 1.0
C      1  0.4284530000000  0.4433040000000  0.4264250000000 1.0
C      1  0.5187070000000  0.5055610000000  0.3942750000000 1.0
C      1  0.4779440000000  0.4545890000000  0.4618750000000 1.0
C      1  0.5049960000000  0.5772000000000  0.5068370000000 1.0
C      1  0.5480010000000  0.4230020000000  0.5371880000000 1.0
C      1  0.4862770000000  0.4136410000000  0.5473370000000 1.0
C      1  0.5106260000000  0.5206410000000  0.4972740000000 1.0
C      1  0.4571520000000  0.4771940000000  0.5081260000000 1.0
C      1  0.5863810000000  0.5388130000000  0.4350150000000 1.0
C      1  0.5564330000000  0.5815010000000  0.4678890000000 1.0
C      1  0.6200810000000  0.5019740000000  0.4793840000000 1.0
C      1  0.4628720000000  0.4255380000000  0.5587740000000 1.0
C      1  0.5502820000000  0.5533550000000  0.5625610000000 1.0
C      1  0.3978840000000  0.4858300000000  0.4219930000000 1.0
C      1  0.4368470000000  0.4942300000000  0.5902300000000 1.0
C      1  0.5978430000000  0.4570950000000  0.4640710000000 1.0
C      1  0.5493770000000  0.4445410000000  0.4222070000000 1.0
C      1  0.4906620000000  0.5538830000000  0.5951350000000 1.0
C      1  0.4761130000000  0.4873080000000  0.5710430000000 1.0
C      1  0.5577190000000  0.4853710000000  0.5099760000000 1.0
C      1  0.4397440000000  0.5927600000000  0.5536720000000 1.0
C      1  0.5080380000000  0.5466740000000  0.5191670000000 1.0
C      1  0.4846480000000  0.5082000000000  0.4787150000000 1.0
C      1  0.4582710000000  0.5469060000000  0.5012420000000 1.0
C      1  0.4721050000000  0.5195630000000  0.4154680000000 1.0
C      1  0.4740540000000  0.4609420000000  0.6059750000000 1.0
C      1  0.5574610000000  0.4189680000000  0.4403090000000 1.0
C      1  0.6041850000000  0.4416710000000  0.4929890000000 1.0
C      1  0.5032370000000  0.4747720000000  0.5826890000000 1.0
C      1  0.4422140000000  0.4254720000000  0.5387210000000 1.0
C      1  0.4600610000000  0.4919690000000  0.6082180000000 1.0
C      1  0.4729700000000  0.4801340000000  0.4313890000000 1.0
C      1  0.4565060000000  0.4254350000000  0.5077560000000 1.0
C      1  0.4337570000000  0.4654620000000  0.5765830000000 1.0
C      1  0.4698580000000  0.5923110000000  0.5584270000000 1.0
C      1  0.5145630000000  0.5407930000000  0.5978840000000 1.0
C      1  0.4878610000000  0.3852060000000  0.5054110000000 1.0
C      1  0.4310310000000  0.5206630000000  0.4334940000000 1.0
C      1  0.5797640000000  0.5630510000000  0.4830440000000 1.0
C      1  0.5982220000000  0.5527190000000  0.5097520000000 1.0
C      1  0.5211770000000  0.4294490000000  0.5820480000000 1.0
C      1  0.5992390000000  0.4896880000000  0.5027480000000 1.0
C      1  0.5264910000000  0.5174800000000  0.5903620000000 1.0
C      1  0.4774910000000  0.3831010000000  0.4777560000000 1.0
C      1  0.5846000000000  0.4212280000000  0.5007390000000 1.0
C      1  0.4359580000000  0.5714360000000  0.4452260000000 1.0
C      1  0.5694990000000  0.4440210000000  0.4574600000000 1.0
C      1  0.5429860000000  0.5648870000000  0.4440570000000 1.0
C      1  0.4969240000000  0.4495340000000  0.4406560000000 1.0
C      1  0.5232790000000  0.4122930000000  0.5201770000000 1.0
C      1  0.5421190000000  0.6097290000000  0.5537220000000 1.0
C      1  0.5779010000000  0.4253670000000  0.5286690000000 1.0
C      1  0.4286640000000  0.5160450000000  0.5291140000000 1.0
C      1  0.5916070000000  0.5137090000000  0.4656050000000 1.0
C      1  0.4110620000000  0.4626450000000  0.5553480000000 1.0
C      1  0.4285070000000  0.4654910000000  0.5134190000000 1.0
C      1  0.4637100000000  0.5415380000000  0.5897240000000 1.0
C      1  0.4604000000000  0.5612830000000  0.4238460000000 1.0
C      1  0.4617070000000  0.4386950000000  0.4205420000000 1.0
C      1  0.5514960000000  0.5868860000000  0.5223050000000 1.0
C      1  0.4821540000000  0.5155850000000  0.6025480000000 1.0
C      1  0.5529840000000  0.4496860000000  0.4931280000000 1.0
C      1  0.4865700000000  0.4845020000000  0.6270940000000 1.0
C      1  0.4973700000000  0.5886710000000  0.4461350000000 1.0
C      1  0.5256160000000  0.4627670000000  0.4838950000000 1.0
C      1  0.5970030000000  0.5106240000000  0.5504120000000 1.0
C      1  0.4311900000000  0.4839400000000  0.5383680000000 1.0
C      1  0.5264150000000  0.3789650000000  0.4793350000000 1.0
C      1  0.4484550000000  0.4980720000000  0.5588020000000 1.0
C      1  0.4704750000000  0.4109120000000  0.4683130000000 1.0
C      1  0.4281340000000  0.4951100000000  0.4110740000000 1.0
C      1  0.5382710000000  0.4585430000000  0.5521080000000 1.0
C      1  0.4688140000000  0.4832610000000  0.3829840000000 1.0
C      1  0.4612220000000  0.4508240000000  0.5774220000000 1.0
C      1  0.4139130000000  0.5353170000000  0.4794330000000 1.0
C      1  0.5670490000000  0.4232720000000  0.5972690000000 1.0
C      1  0.5099710000000  0.4494400000000  0.5346180000000 1.0
C      1  0.4507670000000  0.4648900000000  0.4518750000000 1.0
C      1  0.5737350000000  0.5296210000000  0.4836470000000 1.0
C      1  0.4558320000000  0.5035330000000  0.3964420000000 1.0
C      1  0.5452030000000  0.4393290000000  0.5943490000000 1.0
C      1  0.5411180000000  0.4018530000000  0.4622910000000 1.0
C      1  0.5052050000000  0.4752930000000  0.4213870000000 1.0
C      1  0.5692730000000  0.5391220000000  0.5839790000000 1.0
C      1  0.4113940000000  0.4372170000000  0.5355070000000 1.0
C      1  0.5477310000000  0.5330860000000  0.5195540000000 1.0
C      1  0.4535050000000  0.4250180000000  0.4506810000000 1.0
C      1  0.4903960000000  0.4646750000000  0.3847360000000 1.0
C      1  0.4957930000000  0.5412540000000  0.4591590000000 1.0
C      1  0.6041020000000  0.4611510000000  0.5147630000000 1.0
C      1  0.4727890000000  0.5161010000000  0.5437320000000 1.0
C      1  0.5405800000000  0.5289720000000  0.5456210000000 1.0
C      1  0.4388280000000  0.5425930000000  0.5768250000000 1.0
C      1  0.5161420000000  0.4771070000000  0.3830690000000 1.0
C      1  0.6057510000000  0.4855260000000  0.4530070000000 1.0
C      1  0.5414180000000  0.5021530000000  0.4484520000000 1.0
C      1  0.5380960000000  0.5188770000000  0.4183460000000 1.0
C      1  0.4251130000000  0.4329690000000  0.5040470000000 1.0
C      1  0.4741700000000  0.4855140000000  0.5312040000000 1.0
C      1  0.3928700000000  0.5041270000000  0.5025290000000 1.0
C      1  0.4922590000000  0.5164010000000  0.5699870000000 1.0
C      1  0.4984990000000  0.4443100000000  0.5896310000000 1.0
C      1  0.4214640000000  0.5794610000000  0.5128670000000 1.0
C      1  0.5681680000000  0.5742360000000  0.5455130000000 1.0
C      1  0.3999740000000  0.5338240000000  0.5084750000000 1.0
C      1  0.5740400000000  0.5065230000000  0.5870400000000 1.0
C      1  0.4333640000000  0.5600750000000  0.5517070000000 1.0
C      1  0.4570100000000  0.5376360000000  0.4476900000000 1.0
C      1  0.5767000000000  0.4909590000000  0.5357430000000 1.0
C      1  0.5167520000000  0.3865810000000  0.5054100000000 1.0
C      1  0.5244680000000  0.5464330000000  0.4227120000000 1.0
C      1  0.5209560000000  0.5928910000000  0.5497680000000 1.0
C      1  0.5309020000000  0.5958940000000  0.5073310000000 1.0
C      1  0.5012900000000  0.3720310000000  0.4616500000000 1.0
C      1  0.4378600000000  0.5239420000000  0.5004570000000 1.0
C      1  0.5358400000000  0.5258910000000  0.6282380000000 1.0
C      1  0.5873870000000  0.5062030000000  0.4327030000000 1.0
C      1  0.5472940000000  0.4702700000000  0.4589390000000 1.0
C      1  0.5475060000000  0.4680800000000  0.5991150000000 1.0
C      1  0.4964520000000  0.4241480000000  0.4798600000000 1.0
C      1  0.5234520000000  0.5118090000000  0.5606500000000 1.0
C      1  0.4091820000000  0.5176710000000  0.4543110000000 1.0
C      1  0.4984350000000  0.5903330000000  0.4193390000000 1.0
C      1  0.5917750000000  0.5558550000000  0.5377150000000 1.0
C      1  0.4281200000000  0.5340740000000  0.4034130000000 1.0
C      1  0.4218070000000  0.5200540000000  0.5784860000000 1.0
END
