TITL C-2778424-3986-962 0.215951795294328 125000 -367.084284387772 0 0 64 (C1) n - 1
REM
REM in /home/nfs/bkarasulu/CARBON/AIRSS/Generating-Clusters/REBO/Only-C1/SD-CG/HFTN-CG
REM
REM
REM
REM
REM
REM ./C.cell (11c1c37f851c82e70ff6c80c92926a4b)
REM
REM compiler GCC version 9.2.1 20190827 (Red Hat 9.2.1-1)
REM options -cpp -mtune=generic -march=x86-64 -g -O0 -fpre-include=/usr/include/finclude/math-vector-fortran.h
REM seed 1163629191 -1559652158 -145498807 1595392270 -448335605 -301384457 322516006 -1465530638 -988610581 1703568000 -259870491 -655393969 1280543146 -583342488 -201176314 -1094330487 708300641 43344515 2109833228 906240273 1185762759 1425508149 -730381574 1876030560 -1707359545 1527204262 -2146364855 -1181452768 485314189 -1418119445 2031698111 548138025 1735499095
REM
CELL 1.54180   50.00000   50.00000   50.00000   90.00000   90.00000   90.00000
LATT -1
SFAC C  
C      1  0.5404020000000  0.4692150000000  0.5553320000000 1.0
C      1  0.5393140000000  0.5437250000000  0.5202770000000 1.0
C      1  0.5177260000000  0.4453510000000  0.4588610000000 1.0
C      1  0.4881980000000  0.5722150000000  0.4530570000000 1.0
C      1  0.5484890000000  0.4208710000000  0.5570430000000 1.0
C      1  0.4930420000000  0.5465100000000  0.4863270000000 1.0
C      1  0.5105330000000  0.4993300000000  0.5085520000000 1.0
C      1  0.5056820000000  0.5242930000000  0.4193530000000 1.0
C      1  0.5123970000000  0.4639990000000  0.5564160000000 1.0
C      1  0.4781600000000  0.4386250000000  0.5373350000000 1.0
C      1  0.4928410000000  0.5632680000000  0.5368920000000 1.0
C      1  0.5293690000000  0.5139060000000  0.5255900000000 1.0
C      1  0.4650800000000  0.5043950000000  0.4371830000000 1.0
C      1  0.4851790000000  0.5323110000000  0.5449560000000 1.0
C      1  0.5245170000000  0.4723770000000  0.5007580000000 1.0
C      1  0.4696080000000  0.5761150000000  0.5171490000000 1.0
C      1  0.5073410000000  0.5270380000000  0.4521840000000 1.0
C      1  0.4994920000000  0.5121470000000  0.5587730000000 1.0
C      1  0.4296010000000  0.4595190000000  0.4844930000000 1.0
C      1  0.4442190000000  0.4874290000000  0.4475980000000 1.0
C      1  0.4600900000000  0.5658480000000  0.5454920000000 1.0
C      1  0.4783330000000  0.4935550000000  0.5178560000000 1.0
C      1  0.5027290000000  0.4371680000000  0.5508200000000 1.0
C      1  0.5907130000000  0.4487400000000  0.4337450000000 1.0
C      1  0.4999970000000  0.4641000000000  0.4678630000000 1.0
C      1  0.5533580000000  0.4814200000000  0.4518680000000 1.0
C      1  0.5480190000000  0.4487420000000  0.5023950000000 1.0
C      1  0.4740140000000  0.4557100000000  0.4758580000000 1.0
C      1  0.5081760000000  0.4910510000000  0.4695380000000 1.0
C      1  0.4759190000000  0.5239630000000  0.4581970000000 1.0
C      1  0.4135930000000  0.5102630000000  0.5098970000000 1.0
C      1  0.5721850000000  0.4649490000000  0.4427340000000 1.0
C      1  0.5473230000000  0.4970580000000  0.5488460000000 1.0
C      1  0.5214310000000  0.4160930000000  0.5540370000000 1.0
C      1  0.5575880000000  0.4469520000000  0.5574100000000 1.0
C      1  0.5337870000000  0.4985410000000  0.4613620000000 1.0
C      1  0.5172970000000  0.5660540000000  0.5197970000000 1.0
C      1  0.4464660000000  0.5419170000000  0.5450520000000 1.0
C      1  0.4727970000000  0.5643100000000  0.4918060000000 1.0
C      1  0.5268720000000  0.5180660000000  0.5651300000000 1.0
C      1  0.5479930000000  0.5366340000000  0.5521730000000 1.0
C      1  0.5732940000000  0.4411890000000  0.4973730000000 1.0
C      1  0.4125790000000  0.4778510000000  0.5058960000000 1.0
C      1  0.5189770000000  0.4420480000000  0.5146240000000 1.0
C      1  0.5680990000000  0.5193390000000  0.5335410000000 1.0
C      1  0.4676850000000  0.5538680000000  0.4536190000000 1.0
C      1  0.4828880000000  0.5088970000000  0.4141440000000 1.0
C      1  0.5397270000000  0.5296580000000  0.4622110000000 1.0
C      1  0.4650520000000  0.4699660000000  0.5376050000000 1.0
C      1  0.4291790000000  0.5245160000000  0.5259360000000 1.0
C      1  0.4670500000000  0.4456450000000  0.5060110000000 1.0
C      1  0.4192410000000  0.4997870000000  0.4547620000000 1.0
C      1  0.5283800000000  0.5454660000000  0.4339710000000 1.0
C      1  0.5147100000000  0.5659940000000  0.4570270000000 1.0
C      1  0.5233370000000  0.5589610000000  0.4870760000000 1.0
C      1  0.4915160000000  0.5140730000000  0.4861660000000 1.0
C      1  0.4082190000000  0.4999860000000  0.4803270000000 1.0
C      1  0.4930830000000  0.4636660000000  0.5100490000000 1.0
C      1  0.4495580000000  0.4649910000000  0.4649980000000 1.0
C      1  0.4915030000000  0.4840940000000  0.5542440000000 1.0
C      1  0.4628010000000  0.5182790000000  0.5268200000000 1.0
C      1  0.5729180000000  0.5262350000000  0.5077160000000 1.0
C      1  0.5510600000000  0.5409480000000  0.4885900000000 1.0
C      1  0.4392710000000  0.4607700000000  0.5172890000000 1.0
END
