TITL C-2778436-5916-89 -0.00024193308090537 125000 -434.951984665 0 0 75 (C1) n - 1
REM
REM in /home/nfs/bkarasulu/CARBON/AIRSS/Generating-Clusters/REBO/Only-C1/SD-CG/HFTN-CG
REM
REM
REM
REM
REM
REM ./C.cell (11c1c37f851c82e70ff6c80c92926a4b)
REM
REM compiler GCC version 9.2.1 20190827 (Red Hat 9.2.1-1)
REM options -cpp -mtune=generic -march=x86-64 -g -O0 -fpre-include=/usr/include/finclude/math-vector-fortran.h
REM seed 2127031860 1246727876 -1166367177 672575188 320426081 778552786 2051680644 -1549154706 -823140553 -1016802760 -1175943845 825136715 -1850804151 -1357195592 2004530114 963617485 1073037339 959933535 -2016448359 -1024474671 163222125 1803200856 1950622473 2118688201 -1290874949 637564950 -877753294 698750320 -1832761604 1646161608 -1156365707 -1410391638 803481316
REM
CELL 1.54180   50.00000   50.00000   50.00000   90.00000   90.00000   90.00000
LATT -1
SFAC C  
C      1  0.4672250000000  0.5477220000000  0.5528890000000 1.0
C      1  0.5082830000000  0.4387680000000  0.5370510000000 1.0
C      1  0.5021850000000  0.4072310000000  0.4836560000000 1.0
C      1  0.5049480000000  0.4477190000000  0.4251840000000 1.0
C      1  0.4711210000000  0.4966040000000  0.4508470000000 1.0
C      1  0.4578340000000  0.4601680000000  0.5225280000000 1.0
C      1  0.4849810000000  0.5677890000000  0.5368140000000 1.0
C      1  0.4939950000000  0.4969180000000  0.4711910000000 1.0
C      1  0.4785670000000  0.5345230000000  0.5768010000000 1.0
C      1  0.4255190000000  0.5043720000000  0.5055980000000 1.0
C      1  0.4757600000000  0.5624480000000  0.4672480000000 1.0
C      1  0.4231510000000  0.4752210000000  0.4930700000000 1.0
C      1  0.4835220000000  0.4918090000000  0.5506310000000 1.0
C      1  0.4954760000000  0.4620010000000  0.5011540000000 1.0
C      1  0.4755560000000  0.4844480000000  0.5117210000000 1.0
C      1  0.4821990000000  0.4931750000000  0.4201130000000 1.0
C      1  0.5663990000000  0.4930660000000  0.4787370000000 1.0
C      1  0.5008860000000  0.5399960000000  0.5387040000000 1.0
C      1  0.5394540000000  0.4804790000000  0.5212210000000 1.0
C      1  0.4687980000000  0.4667770000000  0.4377980000000 1.0
C      1  0.4436780000000  0.5519790000000  0.5042700000000 1.0
C      1  0.4543930000000  0.4860560000000  0.4851560000000 1.0
C      1  0.5699100000000  0.4834320000000  0.5114660000000 1.0
C      1  0.5201270000000  0.5110770000000  0.4611170000000 1.0
C      1  0.4591270000000  0.4330670000000  0.4821910000000 1.0
C      1  0.4975280000000  0.5433220000000  0.4822440000000 1.0
C      1  0.4969170000000  0.4619270000000  0.5592230000000 1.0
C      1  0.5158840000000  0.4237260000000  0.5083860000000 1.0
C      1  0.5742040000000  0.5236110000000  0.5418330000000 1.0
C      1  0.5119910000000  0.5894130000000  0.5022740000000 1.0
C      1  0.4953390000000  0.5108790000000  0.5744030000000 1.0
C      1  0.5694120000000  0.4954970000000  0.5426780000000 1.0
C      1  0.4269810000000  0.5305460000000  0.4837810000000 1.0
C      1  0.5333250000000  0.4585120000000  0.5447380000000 1.0
C      1  0.4563410000000  0.5201350000000  0.5058910000000 1.0
C      1  0.4853320000000  0.4218450000000  0.4673290000000 1.0
C      1  0.5573680000000  0.5441250000000  0.4522750000000 1.0
C      1  0.5449260000000  0.4339340000000  0.4986290000000 1.0
C      1  0.4629850000000  0.4595590000000  0.5610490000000 1.0
C      1  0.5043370000000  0.4663360000000  0.4698380000000 1.0
C      1  0.5267120000000  0.4617180000000  0.5021380000000 1.0
C      1  0.4695830000000  0.5361830000000  0.4506730000000 1.0
C      1  0.4895640000000  0.5120730000000  0.5259340000000 1.0
C      1  0.4948660000000  0.5224680000000  0.4322970000000 1.0
C      1  0.5560800000000  0.5490560000000  0.5010990000000 1.0
C      1  0.4829940000000  0.4335960000000  0.5065770000000 1.0
C      1  0.5555800000000  0.5422830000000  0.5311200000000 1.0
C      1  0.4468260000000  0.5367290000000  0.5346160000000 1.0
C      1  0.5169140000000  0.4840780000000  0.5712080000000 1.0
C      1  0.4495630000000  0.5145300000000  0.4668980000000 1.0
C      1  0.5491600000000  0.4826520000000  0.5597620000000 1.0
C      1  0.5371310000000  0.4672590000000  0.4701650000000 1.0
C      1  0.4509760000000  0.4871230000000  0.5511960000000 1.0
C      1  0.5060760000000  0.5469280000000  0.4506830000000 1.0
C      1  0.4643280000000  0.5718410000000  0.4933340000000 1.0
C      1  0.4596790000000  0.4612410000000  0.4655160000000 1.0
C      1  0.5203700000000  0.4996960000000  0.4295770000000 1.0
C      1  0.5344050000000  0.5279340000000  0.4806720000000 1.0
C      1  0.4857620000000  0.5177050000000  0.4925930000000 1.0
C      1  0.5162840000000  0.5560090000000  0.5022910000000 1.0
C      1  0.4973460000000  0.4427460000000  0.4519810000000 1.0
C      1  0.5343430000000  0.5520790000000  0.4463300000000 1.0
C      1  0.4742300000000  0.4367760000000  0.5385560000000 1.0
C      1  0.5448520000000  0.4917420000000  0.4521220000000 1.0
C      1  0.4357490000000  0.5060730000000  0.5368060000000 1.0
C      1  0.5076920000000  0.4730910000000  0.4155530000000 1.0
C      1  0.5674630000000  0.5263980000000  0.4782510000000 1.0
C      1  0.5290970000000  0.5071750000000  0.5277400000000 1.0
C      1  0.4841370000000  0.5816660000000  0.5121380000000 1.0
C      1  0.5251020000000  0.5257550000000  0.5103230000000 1.0
C      1  0.5641990000000  0.4600520000000  0.4885690000000 1.0
C      1  0.5312500000000  0.5427000000000  0.5458800000000 1.0
C      1  0.5236990000000  0.5134290000000  0.5579380000000 1.0
C      1  0.4401360000000  0.4515350000000  0.5013510000000 1.0
C      1  0.5418890000000  0.5774680000000  0.4963840000000 1.0
END
