TITL C-2778426-5645-131 -0.00144287760679862 125000 -1074.70044024329 0 0 188 (C1) n - 1
REM
REM in /home/nfs/bkarasulu/CARBON/AIRSS/Generating-Clusters/REBO/Only-C1/SD-CG/HFTN-CG
REM
REM
REM
REM
REM
REM ./C.cell (11c1c37f851c82e70ff6c80c92926a4b)
REM
REM compiler GCC version 9.2.1 20190827 (Red Hat 9.2.1-1)
REM options -cpp -mtune=generic -march=x86-64 -g -O0 -fpre-include=/usr/include/finclude/math-vector-fortran.h
REM seed -1703784975 -1257080203 1319278773 1291210395 -1119714877 232397525 -215824492 -1626213863 2088942230 1099161033 -2048758798 -330275675 1379909413 -2015218913 1681289084 -402443719 -455369516 2067467313 1355989698 -275226060 -1559976464 837250894 1635241357 1491477680 1696048307 1711627306 1354693826 118315368 669519132 -310028145 283502652 -1469153676 -1581359716
REM
CELL 1.54180   50.00000   50.00000   50.00000   90.00000   90.00000   90.00000
LATT -1
SFAC C  
C      1  0.4788090000000  0.5330160000000  0.5252030000000 1.0
C      1  0.5583010000000  0.5673320000000  0.5797170000000 1.0
C      1  0.5314270000000  0.5809180000000  0.5219780000000 1.0
C      1  0.4688250000000  0.5677090000000  0.4392810000000 1.0
C      1  0.5178720000000  0.5230550000000  0.4817940000000 1.0
C      1  0.5622320000000  0.5807510000000  0.4912940000000 1.0
C      1  0.5285000000000  0.5182100000000  0.5615390000000 1.0
C      1  0.4501380000000  0.4184320000000  0.5416520000000 1.0
C      1  0.4442600000000  0.5134800000000  0.5482960000000 1.0
C      1  0.4665290000000  0.5026390000000  0.5692150000000 1.0
C      1  0.5131040000000  0.3937770000000  0.5163820000000 1.0
C      1  0.5320870000000  0.5097780000000  0.4240770000000 1.0
C      1  0.5878060000000  0.5571280000000  0.5109310000000 1.0
C      1  0.3919490000000  0.5342030000000  0.4537500000000 1.0
C      1  0.4044470000000  0.5245520000000  0.5257830000000 1.0
C      1  0.3988410000000  0.4798890000000  0.4473270000000 1.0
C      1  0.5787850000000  0.4461290000000  0.4482470000000 1.0
C      1  0.6159400000000  0.5042190000000  0.4924310000000 1.0
C      1  0.5702590000000  0.5223980000000  0.4801740000000 1.0
C      1  0.5854740000000  0.5601480000000  0.4767290000000 1.0
C      1  0.5671470000000  0.4837240000000  0.4885170000000 1.0
C      1  0.5008580000000  0.4396750000000  0.4791040000000 1.0
C      1  0.4254670000000  0.5072500000000  0.4587910000000 1.0
C      1  0.4731960000000  0.4620120000000  0.5995180000000 1.0
C      1  0.5258430000000  0.5660640000000  0.5890960000000 1.0
C      1  0.4195160000000  0.5446680000000  0.5489300000000 1.0
C      1  0.5390150000000  0.4729480000000  0.4722420000000 1.0
C      1  0.4349630000000  0.5714000000000  0.5345520000000 1.0
C      1  0.5066270000000  0.5784460000000  0.5658860000000 1.0
C      1  0.4807860000000  0.4204630000000  0.5511430000000 1.0
C      1  0.4326080000000  0.5483610000000  0.5097370000000 1.0
C      1  0.5125890000000  0.4987660000000  0.5417280000000 1.0
C      1  0.4205790000000  0.4496350000000  0.4714640000000 1.0
C      1  0.5096890000000  0.5059120000000  0.4002310000000 1.0
C      1  0.5017580000000  0.4908210000000  0.5839530000000 1.0
C      1  0.4828310000000  0.6093380000000  0.4980880000000 1.0
C      1  0.4687620000000  0.4256920000000  0.4376630000000 1.0
C      1  0.5915580000000  0.5013500000000  0.4717530000000 1.0
C      1  0.5889980000000  0.4907370000000  0.5649910000000 1.0
C      1  0.5613110000000  0.4357020000000  0.5033340000000 1.0
C      1  0.5453590000000  0.4058880000000  0.4527410000000 1.0
C      1  0.5080480000000  0.6028870000000  0.4760570000000 1.0
C      1  0.4356300000000  0.5165720000000  0.5198670000000 1.0
C      1  0.4623080000000  0.4886440000000  0.4267760000000 1.0
C      1  0.4379870000000  0.5474070000000  0.5777230000000 1.0
C      1  0.4795370000000  0.5671080000000  0.5276360000000 1.0
C      1  0.4250990000000  0.5255980000000  0.5978660000000 1.0
C      1  0.5166720000000  0.4027730000000  0.4444360000000 1.0
C      1  0.4963480000000  0.4674130000000  0.5600600000000 1.0
C      1  0.6056840000000  0.5367650000000  0.4915990000000 1.0
C      1  0.5500170000000  0.5222950000000  0.4572620000000 1.0
C      1  0.4290170000000  0.4105020000000  0.4845170000000 1.0
C      1  0.4422740000000  0.4864470000000  0.4879710000000 1.0
C      1  0.4581120000000  0.4683910000000  0.4713720000000 1.0
C      1  0.4975600000000  0.4612980000000  0.5266080000000 1.0
C      1  0.5087660000000  0.5514180000000  0.4992650000000 1.0
C      1  0.4116290000000  0.5629380000000  0.4881400000000 1.0
C      1  0.5470770000000  0.4449130000000  0.4609210000000 1.0
C      1  0.5615780000000  0.5821870000000  0.5253010000000 1.0
C      1  0.4495770000000  0.4297190000000  0.5163110000000 1.0
C      1  0.4616200000000  0.4753550000000  0.3949090000000 1.0
C      1  0.4172550000000  0.5153590000000  0.5670990000000 1.0
C      1  0.5003960000000  0.5449500000000  0.5976220000000 1.0
C      1  0.4614630000000  0.5849000000000  0.5065640000000 1.0
C      1  0.4601760000000  0.5867810000000  0.5464790000000 1.0
C      1  0.6023160000000  0.4618600000000  0.4437470000000 1.0
C      1  0.5296560000000  0.4377010000000  0.5274620000000 1.0
C      1  0.4000770000000  0.4687020000000  0.4739700000000 1.0
C      1  0.4826840000000  0.5034180000000  0.5410320000000 1.0
C      1  0.5316690000000  0.4372280000000  0.4320160000000 1.0
C      1  0.5974150000000  0.4896230000000  0.4429870000000 1.0
C      1  0.5720000000000  0.4084400000000  0.4591670000000 1.0
C      1  0.5191350000000  0.4344830000000  0.5833480000000 1.0
C      1  0.4651510000000  0.5839060000000  0.4668400000000 1.0
C      1  0.4054810000000  0.4905580000000  0.5229140000000 1.0
C      1  0.4823420000000  0.6067110000000  0.5319230000000 1.0
C      1  0.5585920000000  0.4531570000000  0.4237190000000 1.0
C      1  0.4301940000000  0.4821630000000  0.4362880000000 1.0
C      1  0.5682690000000  0.4311740000000  0.5349270000000 1.0
C      1  0.5170500000000  0.4838920000000  0.5131700000000 1.0
C      1  0.5539710000000  0.5342080000000  0.4242640000000 1.0
C      1  0.4416680000000  0.5555310000000  0.4357670000000 1.0
C      1  0.5739080000000  0.5524630000000  0.4469180000000 1.0
C      1  0.5735970000000  0.4578360000000  0.5487310000000 1.0
C      1  0.5587750000000  0.4810410000000  0.6088560000000 1.0
C      1  0.5428460000000  0.5072670000000  0.4934810000000 1.0
C      1  0.4150190000000  0.4497170000000  0.5173920000000 1.0
C      1  0.4683220000000  0.4638540000000  0.4468800000000 1.0
C      1  0.5003750000000  0.5130590000000  0.5066080000000 1.0
C      1  0.5288290000000  0.4232230000000  0.4765420000000 1.0
C      1  0.5717240000000  0.4958960000000  0.4217350000000 1.0
C      1  0.4410190000000  0.4194210000000  0.4566900000000 1.0
C      1  0.4389540000000  0.5167590000000  0.4862270000000 1.0
C      1  0.5110570000000  0.5784490000000  0.4209830000000 1.0
C      1  0.5594680000000  0.5425190000000  0.5012890000000 1.0
C      1  0.5355000000000  0.5485740000000  0.4565600000000 1.0
C      1  0.4851960000000  0.5278070000000  0.4011650000000 1.0
C      1  0.4134880000000  0.4672220000000  0.5466250000000 1.0
C      1  0.4414320000000  0.5229210000000  0.4259350000000 1.0
C      1  0.5379910000000  0.5349120000000  0.5891760000000 1.0
C      1  0.5536620000000  0.5778670000000  0.4583920000000 1.0
C      1  0.5688320000000  0.4667620000000  0.5793200000000 1.0
C      1  0.5684700000000  0.5392370000000  0.5324420000000 1.0
C      1  0.5079130000000  0.4528030000000  0.4064890000000 1.0
C      1  0.5398250000000  0.4575040000000  0.5950370000000 1.0
C      1  0.5961800000000  0.4778530000000  0.5342790000000 1.0
C      1  0.4121470000000  0.4264950000000  0.5028840000000 1.0
C      1  0.4958040000000  0.4942250000000  0.4292400000000 1.0
C      1  0.5265940000000  0.4782940000000  0.3937680000000 1.0
C      1  0.4357140000000  0.4768430000000  0.5153140000000 1.0
C      1  0.5262290000000  0.4019120000000  0.5449840000000 1.0
C      1  0.4633580000000  0.5175770000000  0.4516840000000 1.0
C      1  0.5531740000000  0.4109460000000  0.5456830000000 1.0
C      1  0.4563620000000  0.4503820000000  0.4175660000000 1.0
C      1  0.5703680000000  0.5363750000000  0.5881790000000 1.0
C      1  0.4782240000000  0.4878260000000  0.5045680000000 1.0
C      1  0.5062220000000  0.3805070000000  0.4879690000000 1.0
C      1  0.5976740000000  0.5173030000000  0.5483720000000 1.0
C      1  0.5387080000000  0.5619820000000  0.4253460000000 1.0
C      1  0.4790030000000  0.4177440000000  0.4688080000000 1.0
C      1  0.5047500000000  0.4725010000000  0.4705210000000 1.0
C      1  0.4862530000000  0.5707120000000  0.4885770000000 1.0
C      1  0.5836010000000  0.5438410000000  0.5602940000000 1.0
C      1  0.4863550000000  0.5323300000000  0.4338950000000 1.0
C      1  0.4913560000000  0.5219760000000  0.5750680000000 1.0
C      1  0.4085420000000  0.5151120000000  0.4299160000000 1.0
C      1  0.5243330000000  0.4492020000000  0.5545310000000 1.0
C      1  0.5027300000000  0.4322350000000  0.5107010000000 1.0
C      1  0.4617670000000  0.4095150000000  0.4927280000000 1.0
C      1  0.5008950000000  0.4260490000000  0.4265830000000 1.0
C      1  0.4229430000000  0.5396760000000  0.4576910000000 1.0
C      1  0.5157540000000  0.5148090000000  0.6037630000000 1.0
C      1  0.5360130000000  0.5831880000000  0.4008360000000 1.0
C      1  0.5555980000000  0.4935540000000  0.4517880000000 1.0
C      1  0.4579280000000  0.5095900000000  0.3992710000000 1.0
C      1  0.5358420000000  0.4769680000000  0.4326300000000 1.0
C      1  0.4998000000000  0.3946720000000  0.4654970000000 1.0
C      1  0.5566520000000  0.4818270000000  0.5332210000000 1.0
C      1  0.4615130000000  0.5374830000000  0.4977750000000 1.0
C      1  0.4708110000000  0.4546810000000  0.5064390000000 1.0
C      1  0.5204560000000  0.5848850000000  0.4531760000000 1.0
C      1  0.5106120000000  0.5451100000000  0.5589580000000 1.0
C      1  0.5638490000000  0.5077570000000  0.5202900000000 1.0
C      1  0.4440360000000  0.4467870000000  0.4900280000000 1.0
C      1  0.5575610000000  0.4770160000000  0.3997310000000 1.0
C      1  0.4683670000000  0.4522540000000  0.5521790000000 1.0
C      1  0.5109580000000  0.5173950000000  0.4498020000000 1.0
C      1  0.5968140000000  0.5158110000000  0.5173590000000 1.0
C      1  0.5146910000000  0.6052410000000  0.5090430000000 1.0
C      1  0.5363540000000  0.5579390000000  0.4877990000000 1.0
C      1  0.4286030000000  0.5874580000000  0.5052410000000 1.0
C      1  0.5803760000000  0.4331690000000  0.4796420000000 1.0
C      1  0.4399270000000  0.5066070000000  0.6120790000000 1.0
C      1  0.5970660000000  0.4782560000000  0.5038140000000 1.0
C      1  0.5369910000000  0.4128780000000  0.5053430000000 1.0
C      1  0.5706510000000  0.5742520000000  0.5513340000000 1.0
C      1  0.4885180000000  0.5591530000000  0.4148800000000 1.0
C      1  0.4381860000000  0.4529340000000  0.5650110000000 1.0
C      1  0.4196190000000  0.5720560000000  0.4561760000000 1.0
C      1  0.4289960000000  0.4846890000000  0.5714160000000 1.0
C      1  0.4767210000000  0.5814810000000  0.5728440000000 1.0
C      1  0.5726450000000  0.5051340000000  0.5894990000000 1.0
C      1  0.5075710000000  0.4139910000000  0.5632190000000 1.0
C      1  0.4614960000000  0.4804190000000  0.5343430000000 1.0
C      1  0.4622630000000  0.5397020000000  0.5548770000000 1.0
C      1  0.4570970000000  0.4410110000000  0.5887570000000 1.0
C      1  0.5070780000000  0.4658760000000  0.4380560000000 1.0
C      1  0.6047290000000  0.4502090000000  0.4910310000000 1.0
C      1  0.4319310000000  0.4483900000000  0.4411390000000 1.0
C      1  0.4965430000000  0.5610670000000  0.4588560000000 1.0
C      1  0.4383380000000  0.5890890000000  0.4743220000000 1.0
C      1  0.4557380000000  0.4867330000000  0.5929760000000 1.0
C      1  0.5111080000000  0.5965090000000  0.5423240000000 1.0
C      1  0.5857150000000  0.5213670000000  0.4398200000000 1.0
C      1  0.3803440000000  0.5045420000000  0.4469400000000 1.0
C      1  0.4837840000000  0.4995960000000  0.4730250000000 1.0
C      1  0.4701490000000  0.5541100000000  0.5848630000000 1.0
C      1  0.3914160000000  0.4874340000000  0.4937730000000 1.0
C      1  0.5426810000000  0.4629390000000  0.5116940000000 1.0
C      1  0.4830710000000  0.4083690000000  0.5193480000000 1.0
C      1  0.5097910000000  0.5576280000000  0.5307940000000 1.0
C      1  0.4869270000000  0.4645150000000  0.3846730000000 1.0
C      1  0.5343860000000  0.4792130000000  0.5564840000000 1.0
C      1  0.3819250000000  0.5148910000000  0.4798350000000 1.0
C      1  0.5059300000000  0.4613770000000  0.5982910000000 1.0
C      1  0.3937260000000  0.5376610000000  0.4995340000000 1.0
C      1  0.4808770000000  0.5342110000000  0.4733100000000 1.0
C      1  0.5414450000000  0.4956080000000  0.5830660000000 1.0
END
