TITL C-2778428-5639-419 0.000753262941054359 125000 -932.87878487261 0 0 164 (C1) n - 1
REM
REM in /home/nfs/bkarasulu/CARBON/AIRSS/Generating-Clusters/REBO/Only-C1/SD-CG/HFTN-CG
REM
REM
REM
REM
REM
REM ./C.cell (11c1c37f851c82e70ff6c80c92926a4b)
REM
REM compiler GCC version 9.2.1 20190827 (Red Hat 9.2.1-1)
REM options -cpp -mtune=generic -march=x86-64 -g -O0 -fpre-include=/usr/include/finclude/math-vector-fortran.h
REM seed -2007343224 905018234 312534272 329565011 160523781 927489565 318229380 -1987129992 98775959 -250266406 -1754836179 -1540202253 940974468 556631583 1445000445 -997781707 1599956025 -303009234 -1129979069 503181268 1527906905 -898250500 1636429158 576241590 1294524755 -859282406 -2140150832 1467245868 -2061985250 2089529604 -731690133 108644660 1523098852
REM
CELL 1.54180   50.00000   50.00000   50.00000   90.00000   90.00000   90.00000
LATT -1
SFAC C  
C      1  0.5521020000000  0.5141360000000  0.5942600000000 1.0
C      1  0.4652200000000  0.5358070000000  0.5640490000000 1.0
C      1  0.5052560000000  0.4007030000000  0.4725990000000 1.0
C      1  0.5544570000000  0.5009730000000  0.5307400000000 1.0
C      1  0.5649450000000  0.5009040000000  0.4767020000000 1.0
C      1  0.4598180000000  0.5138430000000  0.4804700000000 1.0
C      1  0.4689450000000  0.4985560000000  0.5780450000000 1.0
C      1  0.5944630000000  0.5663780000000  0.5338330000000 1.0
C      1  0.5175380000000  0.4674240000000  0.5460360000000 1.0
C      1  0.5482890000000  0.4145470000000  0.5484900000000 1.0
C      1  0.4965470000000  0.5435220000000  0.4141520000000 1.0
C      1  0.5985690000000  0.4797070000000  0.5145140000000 1.0
C      1  0.4628160000000  0.5452180000000  0.5200700000000 1.0
C      1  0.5454620000000  0.4381470000000  0.4309400000000 1.0
C      1  0.4849320000000  0.5662030000000  0.5243660000000 1.0
C      1  0.4757390000000  0.5173280000000  0.4078780000000 1.0
C      1  0.4373550000000  0.5164300000000  0.5615370000000 1.0
C      1  0.4879370000000  0.5691810000000  0.5947570000000 1.0
C      1  0.4493640000000  0.4779490000000  0.5254680000000 1.0
C      1  0.5427450000000  0.4351430000000  0.5683990000000 1.0
C      1  0.5349970000000  0.5356870000000  0.4209280000000 1.0
C      1  0.4790430000000  0.4918180000000  0.4538690000000 1.0
C      1  0.4355080000000  0.4451060000000  0.4776490000000 1.0
C      1  0.5179770000000  0.4468400000000  0.4585250000000 1.0
C      1  0.4825440000000  0.4491620000000  0.5639520000000 1.0
C      1  0.4743870000000  0.4497010000000  0.4315840000000 1.0
C      1  0.5100850000000  0.4725750000000  0.5946030000000 1.0
C      1  0.5597320000000  0.4349700000000  0.4613320000000 1.0
C      1  0.4179480000000  0.4533560000000  0.5055970000000 1.0
C      1  0.4599080000000  0.4151660000000  0.5018210000000 1.0
C      1  0.4516140000000  0.5332560000000  0.6089400000000 1.0
C      1  0.5330550000000  0.4452970000000  0.4892500000000 1.0
C      1  0.4312760000000  0.4858430000000  0.4747730000000 1.0
C      1  0.5674100000000  0.4856070000000  0.5051600000000 1.0
C      1  0.4430040000000  0.5916890000000  0.4974820000000 1.0
C      1  0.5871620000000  0.5666190000000  0.5006190000000 1.0
C      1  0.4673480000000  0.5515520000000  0.5932340000000 1.0
C      1  0.5272600000000  0.6030160000000  0.4857330000000 1.0
C      1  0.4743180000000  0.5192770000000  0.5279080000000 1.0
C      1  0.4349490000000  0.5600550000000  0.4381650000000 1.0
C      1  0.5307140000000  0.4694400000000  0.5735850000000 1.0
C      1  0.4721640000000  0.6069540000000  0.5073160000000 1.0
C      1  0.4553880000000  0.5444170000000  0.4914670000000 1.0
C      1  0.5097680000000  0.5019980000000  0.5317900000000 1.0
C      1  0.5740690000000  0.5344060000000  0.5211640000000 1.0
C      1  0.4309740000000  0.4241410000000  0.5180330000000 1.0
C      1  0.5674960000000  0.4613730000000  0.4425910000000 1.0
C      1  0.5616130000000  0.4917190000000  0.5828950000000 1.0
C      1  0.5214230000000  0.5413810000000  0.5656390000000 1.0
C      1  0.4825380000000  0.4229650000000  0.5338340000000 1.0
C      1  0.5323440000000  0.3978020000000  0.4735460000000 1.0
C      1  0.4868480000000  0.4291360000000  0.4761290000000 1.0
C      1  0.5377180000000  0.4076490000000  0.5271870000000 1.0
C      1  0.4211860000000  0.5656260000000  0.4583030000000 1.0
C      1  0.4523960000000  0.4299200000000  0.5442680000000 1.0
C      1  0.5063560000000  0.5807160000000  0.4755390000000 1.0
C      1  0.4459260000000  0.5102460000000  0.5932910000000 1.0
C      1  0.5629450000000  0.4609080000000  0.5683800000000 1.0
C      1  0.3991480000000  0.5228040000000  0.4445830000000 1.0
C      1  0.4134600000000  0.5117690000000  0.4993750000000 1.0
C      1  0.4097790000000  0.4399360000000  0.4555810000000 1.0
C      1  0.5944910000000  0.4991130000000  0.4603200000000 1.0
C      1  0.5480630000000  0.5277200000000  0.4639950000000 1.0
C      1  0.5812010000000  0.4653360000000  0.5401770000000 1.0
C      1  0.4846210000000  0.5915130000000  0.4563880000000 1.0
C      1  0.5077840000000  0.5691110000000  0.5694410000000 1.0
C      1  0.5190080000000  0.4751850000000  0.4914520000000 1.0
C      1  0.5966560000000  0.5516860000000  0.4710430000000 1.0
C      1  0.4031810000000  0.4896990000000  0.4466700000000 1.0
C      1  0.5502160000000  0.4876480000000  0.4421550000000 1.0
C      1  0.4412670000000  0.5887500000000  0.5281440000000 1.0
C      1  0.5798490000000  0.5288170000000  0.4516940000000 1.0
C      1  0.4333010000000  0.4440340000000  0.4024760000000 1.0
C      1  0.4860340000000  0.5710440000000  0.4318140000000 1.0
C      1  0.4479580000000  0.5244130000000  0.4506790000000 1.0
C      1  0.5113060000000  0.4347160000000  0.5752080000000 1.0
C      1  0.3926770000000  0.4953560000000  0.5292130000000 1.0
C      1  0.5345060000000  0.4503920000000  0.5230210000000 1.0
C      1  0.5145720000000  0.5182750000000  0.3999320000000 1.0
C      1  0.5685770000000  0.4201110000000  0.5051150000000 1.0
C      1  0.4273820000000  0.5084010000000  0.4310510000000 1.0
C      1  0.5604630000000  0.5155720000000  0.4281920000000 1.0
C      1  0.5340660000000  0.4907780000000  0.4685250000000 1.0
C      1  0.5829630000000  0.4431830000000  0.5143090000000 1.0
C      1  0.5918920000000  0.5488720000000  0.5608940000000 1.0
C      1  0.4567070000000  0.4858360000000  0.4943690000000 1.0
C      1  0.4359390000000  0.5557250000000  0.5349460000000 1.0
C      1  0.6029760000000  0.5199890000000  0.4828320000000 1.0
C      1  0.5354400000000  0.4684740000000  0.4198100000000 1.0
C      1  0.5023600000000  0.4876840000000  0.4087320000000 1.0
C      1  0.4972390000000  0.5857140000000  0.5051330000000 1.0
C      1  0.5309850000000  0.5036170000000  0.5060690000000 1.0
C      1  0.4641730000000  0.4491790000000  0.5906400000000 1.0
C      1  0.5974360000000  0.5186830000000  0.5589650000000 1.0
C      1  0.5461700000000  0.5396410000000  0.5834530000000 1.0
C      1  0.4028180000000  0.4671730000000  0.4712670000000 1.0
C      1  0.5757940000000  0.4958500000000  0.5546740000000 1.0
C      1  0.5035370000000  0.5063950000000  0.4726880000000 1.0
C      1  0.4650460000000  0.5490500000000  0.4398310000000 1.0
C      1  0.4931620000000  0.4399280000000  0.5059650000000 1.0
C      1  0.5405130000000  0.4991100000000  0.4058600000000 1.0
C      1  0.5208230000000  0.5205440000000  0.4466630000000 1.0
C      1  0.4846060000000  0.4715540000000  0.5083290000000 1.0
C      1  0.4789210000000  0.4400950000000  0.3792230000000 1.0
C      1  0.4573680000000  0.4125620000000  0.4687940000000 1.0
C      1  0.5421480000000  0.5939520000000  0.5361380000000 1.0
C      1  0.4854790000000  0.4694810000000  0.5402860000000 1.0
C      1  0.6100770000000  0.5076810000000  0.5102230000000 1.0
C      1  0.5421670000000  0.5433050000000  0.5159520000000 1.0
C      1  0.4957140000000  0.5084930000000  0.4336860000000 1.0
C      1  0.4678840000000  0.5941790000000  0.5473000000000 1.0
C      1  0.4942760000000  0.4475510000000  0.6013660000000 1.0
C      1  0.4793590000000  0.5644250000000  0.5560370000000 1.0
C      1  0.4315040000000  0.5648140000000  0.4868370000000 1.0
C      1  0.4932370000000  0.4948800000000  0.5916040000000 1.0
C      1  0.4675670000000  0.4942490000000  0.5478160000000 1.0
C      1  0.5163490000000  0.5586580000000  0.4378170000000 1.0
C      1  0.4215260000000  0.5168750000000  0.4694920000000 1.0
C      1  0.4081820000000  0.5033060000000  0.5502080000000 1.0
C      1  0.5194890000000  0.4203990000000  0.4376300000000 1.0
C      1  0.4556440000000  0.4462650000000  0.5156390000000 1.0
C      1  0.4639920000000  0.6043270000000  0.4742770000000 1.0
C      1  0.4641250000000  0.4515140000000  0.4641900000000 1.0
C      1  0.4902230000000  0.3997630000000  0.5024640000000 1.0
C      1  0.4556210000000  0.4893310000000  0.4333770000000 1.0
C      1  0.4252320000000  0.4584160000000  0.5383100000000 1.0
C      1  0.5583770000000  0.5707870000000  0.5183160000000 1.0
C      1  0.5459250000000  0.6154050000000  0.4716030000000 1.0
C      1  0.4415570000000  0.5767610000000  0.5603680000000 1.0
C      1  0.5191520000000  0.4180060000000  0.5054350000000 1.0
C      1  0.5551290000000  0.4129720000000  0.4805690000000 1.0
C      1  0.5671690000000  0.5782680000000  0.5504920000000 1.0
C      1  0.5289390000000  0.5330900000000  0.4890630000000 1.0
C      1  0.5087960000000  0.5503660000000  0.4701140000000 1.0
C      1  0.4316590000000  0.4711790000000  0.4440890000000 1.0
C      1  0.4797610000000  0.5394830000000  0.4689850000000 1.0
C      1  0.5203780000000  0.6068720000000  0.5169950000000 1.0
C      1  0.5985710000000  0.5245740000000  0.5299610000000 1.0
C      1  0.5643930000000  0.6276640000000  0.4576230000000 1.0
C      1  0.4342690000000  0.5174880000000  0.5235030000000 1.0
C      1  0.4627800000000  0.4532260000000  0.4013710000000 1.0
C      1  0.4206550000000  0.4468850000000  0.4264280000000 1.0
C      1  0.4255850000000  0.4138820000000  0.4675780000000 1.0
C      1  0.5042570000000  0.4613180000000  0.4304800000000 1.0
C      1  0.5110890000000  0.4339850000000  0.5411890000000 1.0
C      1  0.6007430000000  0.4568840000000  0.4917580000000 1.0
C      1  0.5623650000000  0.4614350000000  0.4822490000000 1.0
C      1  0.4016540000000  0.4815320000000  0.5012670000000 1.0
C      1  0.4952610000000  0.5225710000000  0.5547600000000 1.0
C      1  0.4936350000000  0.4677880000000  0.4697070000000 1.0
C      1  0.4834270000000  0.3913960000000  0.5335110000000 1.0
C      1  0.4916680000000  0.6107810000000  0.5353760000000 1.0
C      1  0.4913930000000  0.5037480000000  0.5027520000000 1.0
C      1  0.4317600000000  0.4825540000000  0.5612400000000 1.0
C      1  0.5741940000000  0.5371400000000  0.4902600000000 1.0
C      1  0.4196750000000  0.5438230000000  0.5093280000000 1.0
C      1  0.5663150000000  0.5571990000000  0.5753600000000 1.0
C      1  0.5904950000000  0.4684240000000  0.4637670000000 1.0
C      1  0.5320600000000  0.5252660000000  0.5396320000000 1.0
C      1  0.4728130000000  0.4187280000000  0.4404030000000 1.0
C      1  0.4428460000000  0.4508610000000  0.5668710000000 1.0
C      1  0.4691070000000  0.4838450000000  0.4056130000000 1.0
C      1  0.5153440000000  0.5949800000000  0.5542380000000 1.0
C      1  0.4966800000000  0.4064470000000  0.4340240000000 1.0
END
