TITL C-2778432-5617-341 -0.00345284587635001 125000 -290.94326243361 0 0 52 (C1) n - 1
REM
REM in /home/nfs/bkarasulu/CARBON/AIRSS/Generating-Clusters/REBO/Only-C1/SD-CG/HFTN-CG
REM
REM
REM
REM
REM
REM ./C.cell (11c1c37f851c82e70ff6c80c92926a4b)
REM
REM compiler GCC version 9.2.1 20190827 (Red Hat 9.2.1-1)
REM options -cpp -mtune=generic -march=x86-64 -g -O0 -fpre-include=/usr/include/finclude/math-vector-fortran.h
REM seed 1196201136 1877554927 -1826725573 711325234 69340114 -183105945 755967593 -758108382 1340785077 -524999346 -1287712419 1192648054 523030640 6646227 -756526917 -1561935646 -1282087933 -214541356 255040233 -340285588 -496651210 -137073556 -1886129635 235689989 -1022505012 1686013615 928245937 1557932387 -1697188909 1409904621 -827475918 1129917509 1845808005
REM
CELL 1.54180   50.00000   50.00000   50.00000   90.00000   90.00000   90.00000
LATT -1
SFAC C  
C      1  0.4702930000000  0.4239400000000  0.4839260000000 1.0
C      1  0.5092700000000  0.4658170000000  0.4495650000000 1.0
C      1  0.5226350000000  0.4808360000000  0.5401280000000 1.0
C      1  0.4858610000000  0.4443040000000  0.4738260000000 1.0
C      1  0.5126280000000  0.5698020000000  0.4998270000000 1.0
C      1  0.4708160000000  0.5038310000000  0.4534070000000 1.0
C      1  0.4997390000000  0.4965890000000  0.5343740000000 1.0
C      1  0.4587310000000  0.5472680000000  0.4944830000000 1.0
C      1  0.5225710000000  0.4925800000000  0.5019710000000 1.0
C      1  0.4554020000000  0.4903580000000  0.4774220000000 1.0
C      1  0.5310080000000  0.4590660000000  0.4643990000000 1.0
C      1  0.4761670000000  0.4772890000000  0.5407600000000 1.0
C      1  0.4922820000000  0.4998630000000  0.4894650000000 1.0
C      1  0.4871980000000  0.5594240000000  0.4490860000000 1.0
C      1  0.4914250000000  0.5652040000000  0.4767910000000 1.0
C      1  0.5164680000000  0.4537640000000  0.5452660000000 1.0
C      1  0.5223640000000  0.4614840000000  0.5032250000000 1.0
C      1  0.4561430000000  0.4303250000000  0.5078890000000 1.0
C      1  0.5120310000000  0.5533380000000  0.4363600000000 1.0
C      1  0.5017340000000  0.5249370000000  0.5228610000000 1.0
C      1  0.4688850000000  0.5316320000000  0.5639500000000 1.0
C      1  0.5212990000000  0.5453960000000  0.5414590000000 1.0
C      1  0.5199770000000  0.5270290000000  0.4432270000000 1.0
C      1  0.5530990000000  0.4162560000000  0.4903490000000 1.0
C      1  0.5446280000000  0.5097450000000  0.4842690000000 1.0
C      1  0.5615130000000  0.4672650000000  0.5079760000000 1.0
C      1  0.5024910000000  0.5381580000000  0.4941050000000 1.0
C      1  0.4463330000000  0.4842060000000  0.5558900000000 1.0
C      1  0.5754450000000  0.5486490000000  0.4941190000000 1.0
C      1  0.5624630000000  0.5141900000000  0.5284560000000 1.0
C      1  0.5109560000000  0.5063210000000  0.4262820000000 1.0
C      1  0.5476030000000  0.5298370000000  0.5473600000000 1.0
C      1  0.5251460000000  0.5717910000000  0.5238730000000 1.0
C      1  0.4479860000000  0.4762580000000  0.5230030000000 1.0
C      1  0.4966970000000  0.4662910000000  0.4874430000000 1.0
C      1  0.4879470000000  0.4487480000000  0.5433720000000 1.0
C      1  0.5160350000000  0.5190570000000  0.4731170000000 1.0
C      1  0.4872800000000  0.5474620000000  0.5416370000000 1.0
C      1  0.4629530000000  0.5577410000000  0.5200500000000 1.0
C      1  0.5657560000000  0.4855530000000  0.5278810000000 1.0
C      1  0.4410410000000  0.4544230000000  0.5044030000000 1.0
C      1  0.4476720000000  0.5436370000000  0.5418210000000 1.0
C      1  0.4576400000000  0.5291050000000  0.4737300000000 1.0
C      1  0.4557460000000  0.5115750000000  0.5395230000000 1.0
C      1  0.5455680000000  0.4424140000000  0.4906950000000 1.0
C      1  0.4940080000000  0.4880270000000  0.4401510000000 1.0
C      1  0.4689610000000  0.5372120000000  0.4461540000000 1.0
C      1  0.5506080000000  0.4787800000000  0.4802930000000 1.0
C      1  0.5628930000000  0.5253980000000  0.5017640000000 1.0
C      1  0.4641480000000  0.5022930000000  0.5078570000000 1.0
C      1  0.4410420000000  0.4668520000000  0.4785530000000 1.0
C      1  0.4714130000000  0.4286820000000  0.5322090000000 1.0
END
