TITL C-2778428-5639-366 -0.0389121152741524 125000 -261.705894511334 0 0 47 (C1) n - 1
REM
REM in /home/nfs/bkarasulu/CARBON/AIRSS/Generating-Clusters/REBO/Only-C1/SD-CG/HFTN-CG
REM
REM
REM
REM
REM
REM ./C.cell (11c1c37f851c82e70ff6c80c92926a4b)
REM
REM compiler GCC version 9.2.1 20190827 (Red Hat 9.2.1-1)
REM options -cpp -mtune=generic -march=x86-64 -g -O0 -fpre-include=/usr/include/finclude/math-vector-fortran.h
REM seed 88611313 -1124248909 -134528497 976131866 -497118542 2097822405 -1030621992 -128468740 -1951055256 -499201304 -645517551 -622766324 1876807292 188231678 -829538929 -980532767 273571489 751793114 1902565369 257292257 -85560844 -825029392 -195926362 -248777311 -348269297 -1682501887 -1576155157 1797991044 -578921752 -257824493 1594440109 1463425872 962392338
REM
CELL 1.54180   50.00000   50.00000   50.00000   90.00000   90.00000   90.00000
LATT -1
SFAC C  
C      1  0.4515860000000  0.4908630000000  0.4620130000000 1.0
C      1  0.5416380000000  0.4922280000000  0.4353140000000 1.0
C      1  0.4840690000000  0.4497870000000  0.4752480000000 1.0
C      1  0.5447480000000  0.4653850000000  0.4388920000000 1.0
C      1  0.5447030000000  0.4804490000000  0.5311140000000 1.0
C      1  0.5217850000000  0.4528210000000  0.4880760000000 1.0
C      1  0.5076480000000  0.5425370000000  0.5493330000000 1.0
C      1  0.4426630000000  0.4738370000000  0.5183500000000 1.0
C      1  0.4411090000000  0.4906660000000  0.4906550000000 1.0
C      1  0.5233450000000  0.5457150000000  0.4574150000000 1.0
C      1  0.4774760000000  0.5252340000000  0.5106790000000 1.0
C      1  0.5058820000000  0.4934600000000  0.5622290000000 1.0
C      1  0.4805700000000  0.4356060000000  0.5002410000000 1.0
C      1  0.5317000000000  0.5026580000000  0.5434380000000 1.0
C      1  0.4574860000000  0.5154480000000  0.5560120000000 1.0
C      1  0.5008090000000  0.5027340000000  0.4594840000000 1.0
C      1  0.4393760000000  0.5233400000000  0.4988330000000 1.0
C      1  0.4569180000000  0.4838980000000  0.5471730000000 1.0
C      1  0.4604700000000  0.5477400000000  0.4933620000000 1.0
C      1  0.5326590000000  0.5351400000000  0.5062580000000 1.0
C      1  0.4897120000000  0.5192400000000  0.5665400000000 1.0
C      1  0.4781620000000  0.5333090000000  0.5381110000000 1.0
C      1  0.4417470000000  0.5071220000000  0.5267850000000 1.0
C      1  0.4844060000000  0.4457900000000  0.5325220000000 1.0
C      1  0.5295450000000  0.5304020000000  0.5349530000000 1.0
C      1  0.4922790000000  0.5283330000000  0.4803530000000 1.0
C      1  0.4493370000000  0.5210170000000  0.4662210000000 1.0
C      1  0.4897110000000  0.5875300000000  0.4837380000000 1.0
C      1  0.5606080000000  0.4811070000000  0.5073230000000 1.0
C      1  0.4827320000000  0.4699920000000  0.5529260000000 1.0
C      1  0.4837120000000  0.5615110000000  0.4770490000000 1.0
C      1  0.5639230000000  0.5172730000000  0.4718910000000 1.0
C      1  0.5303960000000  0.4557160000000  0.5379830000000 1.0
C      1  0.4673530000000  0.5368710000000  0.4503240000000 1.0
C      1  0.5007450000000  0.4746770000000  0.4782450000000 1.0
C      1  0.5435210000000  0.4497220000000  0.4619870000000 1.0
C      1  0.5328950000000  0.5139440000000  0.4581840000000 1.0
C      1  0.5133140000000  0.4429820000000  0.5160670000000 1.0
C      1  0.5313190000000  0.5555290000000  0.4847620000000 1.0
C      1  0.5263280000000  0.5108020000000  0.4917590000000 1.0
C      1  0.5536540000000  0.4606500000000  0.4896070000000 1.0
C      1  0.4546250000000  0.4459960000000  0.5169570000000 1.0
C      1  0.4954790000000  0.5508580000000  0.4480180000000 1.0
C      1  0.4967810000000  0.4997750000000  0.4989100000000 1.0
C      1  0.4759060000000  0.4848850000000  0.4487720000000 1.0
C      1  0.5140450000000  0.4610580000000  0.5609460000000 1.0
C      1  0.5711190000000  0.5043610000000  0.4949480000000 1.0
END
