TITL C-2778429-3646-1142 -0.00396941926461588 125000 -484.911658273483 0 0 85 (C1) n - 1
REM
REM in /home/nfs/bkarasulu/CARBON/AIRSS/Generating-Clusters/REBO/Only-C1/SD-CG/HFTN-CG
REM
REM
REM
REM
REM
REM ./C.cell (11c1c37f851c82e70ff6c80c92926a4b)
REM
REM compiler GCC version 9.2.1 20190827 (Red Hat 9.2.1-1)
REM options -cpp -mtune=generic -march=x86-64 -g -O0 -fpre-include=/usr/include/finclude/math-vector-fortran.h
REM seed 1835766805 1900287913 1222980414 -481322169 1012830909 -1896848154 -964419810 -579699386 -1388929171 -316657299 1847281938 -504376756 -1519134257 138078005 -1069832330 -196352372 -231370089 521398923 1043527852 482803396 1392474613 1781193656 879626260 -324694963 -2140604795 298657473 1123058201 -52629491 389934320 456728685 1289027434 1811528455 -2011717547
REM
CELL 1.54180   50.00000   50.00000   50.00000   90.00000   90.00000   90.00000
LATT -1
SFAC C  
C      1  0.5132660000000  0.4338910000000  0.5167510000000 1.0
C      1  0.5020660000000  0.4372500000000  0.5658020000000 1.0
C      1  0.4960130000000  0.5657870000000  0.5642320000000 1.0
C      1  0.5250620000000  0.4956630000000  0.5364420000000 1.0
C      1  0.4943590000000  0.4793060000000  0.4212990000000 1.0
C      1  0.4843080000000  0.4598530000000  0.5528270000000 1.0
C      1  0.5062030000000  0.5787220000000  0.4712890000000 1.0
C      1  0.4710310000000  0.5827020000000  0.5273320000000 1.0
C      1  0.5231810000000  0.5066680000000  0.5048230000000 1.0
C      1  0.4923680000000  0.5323650000000  0.4295710000000 1.0
C      1  0.5737330000000  0.4765270000000  0.5444400000000 1.0
C      1  0.5691990000000  0.4709790000000  0.4952390000000 1.0
C      1  0.5023120000000  0.5282680000000  0.4890100000000 1.0
C      1  0.5681790000000  0.5261240000000  0.5396480000000 1.0
C      1  0.4589620000000  0.5546180000000  0.4623210000000 1.0
C      1  0.4591270000000  0.4784750000000  0.4399160000000 1.0
C      1  0.5502930000000  0.5518440000000  0.5480700000000 1.0
C      1  0.4668810000000  0.5252390000000  0.4508770000000 1.0
C      1  0.4764140000000  0.5169900000000  0.5442260000000 1.0
C      1  0.5167940000000  0.5467820000000  0.5524980000000 1.0
C      1  0.4573860000000  0.4250230000000  0.5308470000000 1.0
C      1  0.5346380000000  0.5662560000000  0.5219910000000 1.0
C      1  0.4598510000000  0.5336930000000  0.5196050000000 1.0
C      1  0.5032630000000  0.4801770000000  0.4963970000000 1.0
C      1  0.4260390000000  0.5490160000000  0.5010470000000 1.0
C      1  0.5130680000000  0.4966270000000  0.4673970000000 1.0
C      1  0.5165750000000  0.4229000000000  0.5481480000000 1.0
C      1  0.5875730000000  0.4972110000000  0.4921710000000 1.0
C      1  0.5700020000000  0.5560200000000  0.4850840000000 1.0
C      1  0.4180080000000  0.5472600000000  0.5304640000000 1.0
C      1  0.4330160000000  0.4535700000000  0.5174390000000 1.0
C      1  0.5090040000000  0.4259760000000  0.4882220000000 1.0
C      1  0.4966890000000  0.5570180000000  0.4946910000000 1.0
C      1  0.4563250000000  0.4472390000000  0.5492550000000 1.0
C      1  0.4423060000000  0.4580640000000  0.4574000000000 1.0
C      1  0.5696740000000  0.5429400000000  0.5097300000000 1.0
C      1  0.5102820000000  0.5269630000000  0.4572570000000 1.0
C      1  0.4560670000000  0.5366220000000  0.5590880000000 1.0
C      1  0.5164430000000  0.4392420000000  0.4350200000000 1.0
C      1  0.5283030000000  0.5003560000000  0.5699590000000 1.0
C      1  0.5221270000000  0.5768160000000  0.5016050000000 1.0
C      1  0.5853480000000  0.5155900000000  0.5129840000000 1.0
C      1  0.4986490000000  0.4596680000000  0.4700050000000 1.0
C      1  0.5228490000000  0.4860820000000  0.4229480000000 1.0
C      1  0.5744700000000  0.5384570000000  0.4632230000000 1.0
C      1  0.4920610000000  0.5559050000000  0.4545820000000 1.0
C      1  0.4483060000000  0.5605240000000  0.4881550000000 1.0
C      1  0.5581620000000  0.5806850000000  0.4782680000000 1.0
C      1  0.5558800000000  0.5003470000000  0.5500400000000 1.0
C      1  0.4085040000000  0.4984740000000  0.5147320000000 1.0
C      1  0.4012940000000  0.4798330000000  0.4962920000000 1.0
C      1  0.4574820000000  0.5009790000000  0.4964930000000 1.0
C      1  0.4646660000000  0.4668270000000  0.5155650000000 1.0
C      1  0.4830550000000  0.4859920000000  0.4589750000000 1.0
C      1  0.4499840000000  0.4714010000000  0.4866920000000 1.0
C      1  0.4342360000000  0.4673490000000  0.5451080000000 1.0
C      1  0.4583570000000  0.4954280000000  0.5300280000000 1.0
C      1  0.4742530000000  0.5045000000000  0.4247350000000 1.0
C      1  0.4276890000000  0.4986590000000  0.5417830000000 1.0
C      1  0.4849860000000  0.4845740000000  0.5659790000000 1.0
C      1  0.5357010000000  0.5908420000000  0.4668060000000 1.0
C      1  0.4695370000000  0.5597270000000  0.5682550000000 1.0
C      1  0.4903300000000  0.4520580000000  0.4316350000000 1.0
C      1  0.4774810000000  0.5118990000000  0.4776260000000 1.0
C      1  0.5533440000000  0.5129930000000  0.4570300000000 1.0
C      1  0.5318870000000  0.5331190000000  0.5244020000000 1.0
C      1  0.4712620000000  0.5615020000000  0.5091430000000 1.0
C      1  0.5481180000000  0.4963260000000  0.4863220000000 1.0
C      1  0.5370860000000  0.4747920000000  0.4633640000000 1.0
C      1  0.4299860000000  0.5294700000000  0.5497020000000 1.0
C      1  0.5045470000000  0.5171320000000  0.5522500000000 1.0
C      1  0.4713250000000  0.4442020000000  0.4566490000000 1.0
C      1  0.4182180000000  0.4670210000000  0.4796920000000 1.0
C      1  0.4323040000000  0.5180340000000  0.5072550000000 1.0
C      1  0.4806580000000  0.4257260000000  0.4820260000000 1.0
C      1  0.5367000000000  0.4617390000000  0.4335890000000 1.0
C      1  0.5734270000000  0.4598680000000  0.5231680000000 1.0
C      1  0.5418940000000  0.4221970000000  0.5298540000000 1.0
C      1  0.5852360000000  0.5086590000000  0.4666280000000 1.0
C      1  0.4639450000000  0.4207930000000  0.5045040000000 1.0
C      1  0.5640800000000  0.4489500000000  0.4772640000000 1.0
C      1  0.5274490000000  0.4422130000000  0.4670520000000 1.0
C      1  0.4959290000000  0.4600670000000  0.5208450000000 1.0
C      1  0.5669780000000  0.4328320000000  0.5267240000000 1.0
C      1  0.5359570000000  0.5095270000000  0.4321970000000 1.0
END
