TITL C-2778427-5640-1345 0.00325514403312853 125000 -781.292531808496 0 0 136 (C1) n - 1
REM
REM in /home/nfs/bkarasulu/CARBON/AIRSS/Generating-Clusters/REBO/Only-C1/SD-CG/HFTN-CG
REM
REM
REM
REM
REM
REM ./C.cell (11c1c37f851c82e70ff6c80c92926a4b)
REM
REM compiler GCC version 9.2.1 20190827 (Red Hat 9.2.1-1)
REM options -cpp -mtune=generic -march=x86-64 -g -O0 -fpre-include=/usr/include/finclude/math-vector-fortran.h
REM seed -323213668 -542142940 1852864987 592319689 1965371786 -1983954240 340039766 -1851968937 -650988495 -973458783 -962555309 160745390 1486934886 -1109330916 914915252 485387507 -2011519891 301862700 -954338657 -921845885 -1241217613 1866578133 -1063169159 -200162466 925128974 -1823385362 1322770224 1353346627 1245271492 294166646 1098951801 -1578011795 1532549526
REM
CELL 1.54180   50.00000   50.00000   50.00000   90.00000   90.00000   90.00000
LATT -1
SFAC C  
C      1  0.5654870000000  0.4329620000000  0.4950890000000 1.0
C      1  0.4763160000000  0.5230700000000  0.5138840000000 1.0
C      1  0.5096530000000  0.4009550000000  0.4675370000000 1.0
C      1  0.5142550000000  0.5992990000000  0.4855410000000 1.0
C      1  0.5059320000000  0.4719790000000  0.5741350000000 1.0
C      1  0.5107580000000  0.5901840000000  0.5183130000000 1.0
C      1  0.4566440000000  0.5479110000000  0.4765500000000 1.0
C      1  0.4418620000000  0.4297550000000  0.5427070000000 1.0
C      1  0.4934380000000  0.5352120000000  0.4893710000000 1.0
C      1  0.5014820000000  0.5561130000000  0.4562860000000 1.0
C      1  0.4509430000000  0.5918360000000  0.5419070000000 1.0
C      1  0.4046020000000  0.5061010000000  0.4871830000000 1.0
C      1  0.5477220000000  0.4717220000000  0.5409430000000 1.0
C      1  0.5165120000000  0.5220770000000  0.5697790000000 1.0
C      1  0.5010110000000  0.4779440000000  0.5431250000000 1.0
C      1  0.5333470000000  0.5609980000000  0.4329770000000 1.0
C      1  0.5922640000000  0.4743460000000  0.4903390000000 1.0
C      1  0.5467500000000  0.4521610000000  0.4960600000000 1.0
C      1  0.5672790000000  0.4422440000000  0.5339030000000 1.0
C      1  0.5538140000000  0.4397700000000  0.5632880000000 1.0
C      1  0.5320550000000  0.5757210000000  0.5412340000000 1.0
C      1  0.4803150000000  0.4317470000000  0.5700740000000 1.0
C      1  0.3938660000000  0.4978350000000  0.5399030000000 1.0
C      1  0.5831630000000  0.4666000000000  0.4651830000000 1.0
C      1  0.4427830000000  0.5635760000000  0.5575680000000 1.0
C      1  0.5282630000000  0.4293710000000  0.5759940000000 1.0
C      1  0.4686020000000  0.4823260000000  0.5392190000000 1.0
C      1  0.5599110000000  0.4870150000000  0.5823670000000 1.0
C      1  0.4834280000000  0.5911830000000  0.5380220000000 1.0
C      1  0.4982830000000  0.4958130000000  0.4942850000000 1.0
C      1  0.5490740000000  0.4821050000000  0.5025520000000 1.0
C      1  0.4298180000000  0.5656210000000  0.4906990000000 1.0
C      1  0.4477610000000  0.4466470000000  0.4961050000000 1.0
C      1  0.4613370000000  0.5277640000000  0.5932310000000 1.0
C      1  0.4758240000000  0.4821310000000  0.4761740000000 1.0
C      1  0.4769400000000  0.5253520000000  0.4631170000000 1.0
C      1  0.4509360000000  0.4232050000000  0.5177150000000 1.0
C      1  0.4934480000000  0.5095790000000  0.4381820000000 1.0
C      1  0.5681150000000  0.4892600000000  0.4447990000000 1.0
C      1  0.4171600000000  0.5423320000000  0.4758140000000 1.0
C      1  0.5610420000000  0.4981280000000  0.4759150000000 1.0
C      1  0.4172590000000  0.4552900000000  0.4717430000000 1.0
C      1  0.4443700000000  0.5210750000000  0.4362480000000 1.0
C      1  0.5755850000000  0.5199890000000  0.5088740000000 1.0
C      1  0.4170800000000  0.5258140000000  0.5120880000000 1.0
C      1  0.4368260000000  0.5666440000000  0.5239790000000 1.0
C      1  0.4477320000000  0.4871620000000  0.5642550000000 1.0
C      1  0.5717480000000  0.4946410000000  0.5324990000000 1.0
C      1  0.5227630000000  0.5077080000000  0.4781790000000 1.0
C      1  0.4903190000000  0.5673880000000  0.4855230000000 1.0
C      1  0.5667220000000  0.5273330000000  0.4664080000000 1.0
C      1  0.4871460000000  0.5419010000000  0.4139380000000 1.0
C      1  0.4738580000000  0.4437560000000  0.4380280000000 1.0
C      1  0.5276450000000  0.5239390000000  0.4000600000000 1.0
C      1  0.5644850000000  0.4135400000000  0.5174350000000 1.0
C      1  0.5779330000000  0.4662850000000  0.5164160000000 1.0
C      1  0.4312650000000  0.4578680000000  0.5586540000000 1.0
C      1  0.5156220000000  0.4927280000000  0.3972190000000 1.0
C      1  0.4954010000000  0.4726030000000  0.4012380000000 1.0
C      1  0.5807540000000  0.5329100000000  0.5397930000000 1.0
C      1  0.4708250000000  0.4144410000000  0.4939540000000 1.0
C      1  0.5622880000000  0.5440150000000  0.4367470000000 1.0
C      1  0.5983990000000  0.5012200000000  0.4930780000000 1.0
C      1  0.4812570000000  0.6004370000000  0.4840490000000 1.0
C      1  0.4364590000000  0.5041320000000  0.4987290000000 1.0
C      1  0.4887840000000  0.4898150000000  0.5943790000000 1.0
C      1  0.4967690000000  0.4018250000000  0.4929520000000 1.0
C      1  0.4193870000000  0.4626700000000  0.5009070000000 1.0
C      1  0.4492540000000  0.4911020000000  0.4621680000000 1.0
C      1  0.5722020000000  0.5087140000000  0.5625000000000 1.0
C      1  0.4982350000000  0.4478820000000  0.4163620000000 1.0
C      1  0.4617090000000  0.4342600000000  0.4677870000000 1.0
C      1  0.5809350000000  0.5582680000000  0.4608280000000 1.0
C      1  0.4673460000000  0.5453750000000  0.4381490000000 1.0
C      1  0.4262310000000  0.5162230000000  0.4628580000000 1.0
C      1  0.5424700000000  0.5212340000000  0.5025010000000 1.0
C      1  0.4385510000000  0.5167820000000  0.5542270000000 1.0
C      1  0.5344750000000  0.4786800000000  0.4657020000000 1.0
C      1  0.4412520000000  0.4586630000000  0.4554150000000 1.0
C      1  0.5344150000000  0.4716990000000  0.4333740000000 1.0
C      1  0.5459410000000  0.4910360000000  0.4115640000000 1.0
C      1  0.5045820000000  0.4427530000000  0.5801850000000 1.0
C      1  0.3948140000000  0.4827000000000  0.5094080000000 1.0
C      1  0.5051960000000  0.4819620000000  0.4387680000000 1.0
C      1  0.4624180000000  0.4987130000000  0.5897440000000 1.0
C      1  0.5199480000000  0.4323460000000  0.4235970000000 1.0
C      1  0.5282000000000  0.4909290000000  0.5918730000000 1.0
C      1  0.4495890000000  0.4578360000000  0.4222820000000 1.0
C      1  0.5281450000000  0.5221210000000  0.5316150000000 1.0
C      1  0.5154390000000  0.5282190000000  0.4529010000000 1.0
C      1  0.4619000000000  0.4970730000000  0.5104890000000 1.0
C      1  0.5408420000000  0.5642760000000  0.5150860000000 1.0
C      1  0.4977900000000  0.5568820000000  0.5762940000000 1.0
C      1  0.4703940000000  0.4660540000000  0.5029700000000 1.0
C      1  0.5430880000000  0.3948910000000  0.5157710000000 1.0
C      1  0.5091500000000  0.4213690000000  0.5346230000000 1.0
C      1  0.5279510000000  0.5543790000000  0.5641540000000 1.0
C      1  0.5400170000000  0.5583930000000  0.4662490000000 1.0
C      1  0.4906910000000  0.4636180000000  0.4574740000000 1.0
C      1  0.4422000000000  0.5392800000000  0.5756270000000 1.0
C      1  0.5285260000000  0.4455140000000  0.5368270000000 1.0
C      1  0.4663270000000  0.5339400000000  0.5443000000000 1.0
C      1  0.5504860000000  0.5329610000000  0.5525870000000 1.0
C      1  0.5163830000000  0.4462630000000  0.5043560000000 1.0
C      1  0.5348500000000  0.4952400000000  0.5595890000000 1.0
C      1  0.5411100000000  0.5811120000000  0.4898170000000 1.0
C      1  0.5151910000000  0.4017380000000  0.5153610000000 1.0
C      1  0.5492570000000  0.4295590000000  0.4361950000000 1.0
C      1  0.5834400000000  0.5464490000000  0.4893330000000 1.0
C      1  0.5246040000000  0.5450640000000  0.4917810000000 1.0
C      1  0.5154640000000  0.4511000000000  0.4719840000000 1.0
C      1  0.4126600000000  0.5196240000000  0.5391220000000 1.0
C      1  0.5585640000000  0.5226160000000  0.4127680000000 1.0
C      1  0.5210650000000  0.5840020000000  0.4557080000000 1.0
C      1  0.4066730000000  0.4681410000000  0.5382700000000 1.0
C      1  0.4542790000000  0.5821510000000  0.4743080000000 1.0
C      1  0.5085420000000  0.5151310000000  0.6020600000000 1.0
C      1  0.5009670000000  0.5581390000000  0.5241090000000 1.0
C      1  0.5636700000000  0.4557520000000  0.4403360000000 1.0
C      1  0.5146110000000  0.5456410000000  0.4125830000000 1.0
C      1  0.5678350000000  0.4592280000000  0.5811530000000 1.0
C      1  0.4620120000000  0.5508670000000  0.5083800000000 1.0
C      1  0.5416070000000  0.5103100000000  0.4404260000000 1.0
C      1  0.4664470000000  0.4825120000000  0.4056630000000 1.0
C      1  0.4725910000000  0.5732650000000  0.4501910000000 1.0
C      1  0.4703920000000  0.5129560000000  0.4153970000000 1.0
C      1  0.4911990000000  0.4545600000000  0.5215470000000 1.0
C      1  0.4817600000000  0.4295750000000  0.5419280000000 1.0
C      1  0.4422220000000  0.4887670000000  0.4291950000000 1.0
C      1  0.4883040000000  0.5385080000000  0.5959120000000 1.0
C      1  0.4724330000000  0.5819400000000  0.5099040000000 1.0
C      1  0.5228790000000  0.4258210000000  0.4560890000000 1.0
C      1  0.4393490000000  0.4690750000000  0.5278940000000 1.0
C      1  0.5003420000000  0.5350200000000  0.5429390000000 1.0
C      1  0.4766700000000  0.5645680000000  0.5556740000000 1.0
C      1  0.5210420000000  0.4921020000000  0.5193260000000 1.0
END
