TITL C-2778430-5657-21 0.00707324347702882 125000 -1141.03903292971 0 0 197 (C1) n - 1
REM
REM in /home/nfs/bkarasulu/CARBON/AIRSS/Generating-Clusters/REBO/Only-C1/SD-CG/HFTN-CG
REM
REM
REM
REM
REM
REM ./C.cell (11c1c37f851c82e70ff6c80c92926a4b)
REM
REM compiler GCC version 9.2.1 20190827 (Red Hat 9.2.1-1)
REM options -cpp -mtune=generic -march=x86-64 -g -O0 -fpre-include=/usr/include/finclude/math-vector-fortran.h
REM seed 2123162072 -1652050561 -106873431 1192604859 149516030 877924753 28257435 1249079687 -419709588 344935971 820317347 1795255094 -1451427335 1706944317 884939679 -770502029 -1275759200 934806351 1506768931 -711880567 2076515375 61775724 388050519 -190978395 -659619533 -78393308 388697648 783262397 -1533262609 -1569817954 366898071 1959961461 1050086422
REM
CELL 1.54180   50.00000   50.00000   50.00000   90.00000   90.00000   90.00000
LATT -1
SFAC C  
C      1  0.4333410000000  0.5362550000000  0.4100550000000 1.0
C      1  0.5483210000000  0.5422940000000  0.4002400000000 1.0
C      1  0.4524210000000  0.4924190000000  0.5007940000000 1.0
C      1  0.5198810000000  0.3916240000000  0.5521330000000 1.0
C      1  0.5713120000000  0.4343360000000  0.4523610000000 1.0
C      1  0.5254770000000  0.4494530000000  0.5205420000000 1.0
C      1  0.6026460000000  0.4713120000000  0.4709490000000 1.0
C      1  0.5143320000000  0.4777190000000  0.5557280000000 1.0
C      1  0.6046980000000  0.5016360000000  0.4704060000000 1.0
C      1  0.4844790000000  0.4449580000000  0.5905290000000 1.0
C      1  0.3897180000000  0.4913120000000  0.4739040000000 1.0
C      1  0.5010880000000  0.5847480000000  0.4169170000000 1.0
C      1  0.5023740000000  0.4196390000000  0.4246010000000 1.0
C      1  0.5397150000000  0.4271060000000  0.4491720000000 1.0
C      1  0.4525380000000  0.5480140000000  0.4535490000000 1.0
C      1  0.5450410000000  0.5469820000000  0.5280670000000 1.0
C      1  0.4619930000000  0.5097430000000  0.5627240000000 1.0
C      1  0.4019600000000  0.4606450000000  0.4647230000000 1.0
C      1  0.4962290000000  0.3929520000000  0.5331560000000 1.0
C      1  0.5350070000000  0.4883950000000  0.5070480000000 1.0
C      1  0.5040480000000  0.4452180000000  0.5539410000000 1.0
C      1  0.5788670000000  0.5660150000000  0.4722070000000 1.0
C      1  0.5331680000000  0.5467780000000  0.4533060000000 1.0
C      1  0.6037640000000  0.4880810000000  0.5375120000000 1.0
C      1  0.4510590000000  0.5928660000000  0.4579420000000 1.0
C      1  0.3996410000000  0.4942860000000  0.5550510000000 1.0
C      1  0.4559880000000  0.4561470000000  0.4148600000000 1.0
C      1  0.5313470000000  0.4164530000000  0.5584890000000 1.0
C      1  0.5294040000000  0.5613250000000  0.5038810000000 1.0
C      1  0.5550920000000  0.4585270000000  0.5550160000000 1.0
C      1  0.4433300000000  0.5002520000000  0.4722620000000 1.0
C      1  0.5515170000000  0.5951380000000  0.5658600000000 1.0
C      1  0.5384020000000  0.4880860000000  0.3938970000000 1.0
C      1  0.4498930000000  0.4536570000000  0.5075120000000 1.0
C      1  0.4546910000000  0.5153530000000  0.4515080000000 1.0
C      1  0.5382810000000  0.5795710000000  0.5883880000000 1.0
C      1  0.5714560000000  0.5386580000000  0.4253960000000 1.0
C      1  0.4694790000000  0.5725960000000  0.5013700000000 1.0
C      1  0.5086380000000  0.4919410000000  0.6232640000000 1.0
C      1  0.4766940000000  0.5762760000000  0.4729890000000 1.0
C      1  0.5172360000000  0.4077290000000  0.4955650000000 1.0
C      1  0.4183300000000  0.4154570000000  0.5038750000000 1.0
C      1  0.4703600000000  0.5419150000000  0.5634180000000 1.0
C      1  0.5021270000000  0.3997460000000  0.4450770000000 1.0
C      1  0.6109420000000  0.5295020000000  0.4890860000000 1.0
C      1  0.4206720000000  0.4878780000000  0.4643920000000 1.0
C      1  0.4683890000000  0.5484180000000  0.5219610000000 1.0
C      1  0.4268190000000  0.4960960000000  0.5990100000000 1.0
C      1  0.4768480000000  0.4693490000000  0.5073230000000 1.0
C      1  0.4917250000000  0.5520450000000  0.4199300000000 1.0
C      1  0.5637130000000  0.4802160000000  0.3855770000000 1.0
C      1  0.5088790000000  0.4873760000000  0.4206090000000 1.0
C      1  0.4496300000000  0.4326470000000  0.4858960000000 1.0
C      1  0.3822960000000  0.4583780000000  0.5321830000000 1.0
C      1  0.4270810000000  0.5215590000000  0.5106670000000 1.0
C      1  0.5446000000000  0.4051080000000  0.5107440000000 1.0
C      1  0.3983460000000  0.5301050000000  0.4766280000000 1.0
C      1  0.4939230000000  0.5139270000000  0.5248040000000 1.0
C      1  0.4837840000000  0.3633370000000  0.4706470000000 1.0
C      1  0.5635800000000  0.5184790000000  0.4738080000000 1.0
C      1  0.5571850000000  0.5568070000000  0.5751370000000 1.0
C      1  0.5083720000000  0.4848310000000  0.4888570000000 1.0
C      1  0.5029910000000  0.5816220000000  0.5480080000000 1.0
C      1  0.4963430000000  0.4245520000000  0.4915050000000 1.0
C      1  0.5351110000000  0.5220290000000  0.4854820000000 1.0
C      1  0.5636680000000  0.5815710000000  0.4966850000000 1.0
C      1  0.4968800000000  0.4541870000000  0.4857510000000 1.0
C      1  0.5881840000000  0.5144410000000  0.4427910000000 1.0
C      1  0.4954830000000  0.5126940000000  0.6189250000000 1.0
C      1  0.5571100000000  0.5885560000000  0.4477550000000 1.0
C      1  0.4173680000000  0.5574810000000  0.4714470000000 1.0
C      1  0.6010680000000  0.4937270000000  0.5038320000000 1.0
C      1  0.4797930000000  0.5982190000000  0.4400150000000 1.0
C      1  0.4914750000000  0.5497810000000  0.4620010000000 1.0
C      1  0.4629320000000  0.5998090000000  0.5177410000000 1.0
C      1  0.4012380000000  0.4609630000000  0.5139260000000 1.0
C      1  0.4459730000000  0.4263280000000  0.4467560000000 1.0
C      1  0.5401160000000  0.5311770000000  0.5693800000000 1.0
C      1  0.4861890000000  0.4958660000000  0.3972940000000 1.0
C      1  0.4254960000000  0.4461300000000  0.5457080000000 1.0
C      1  0.4852950000000  0.4630810000000  0.3996860000000 1.0
C      1  0.4374880000000  0.5408770000000  0.5583560000000 1.0
C      1  0.5319370000000  0.4811380000000  0.6035560000000 1.0
C      1  0.4051420000000  0.4930260000000  0.4231200000000 1.0
C      1  0.5584270000000  0.5679440000000  0.4288580000000 1.0
C      1  0.4348710000000  0.4531010000000  0.5773130000000 1.0
C      1  0.4834040000000  0.4734290000000  0.5926170000000 1.0
C      1  0.4707910000000  0.5521630000000  0.5943020000000 1.0
C      1  0.6054610000000  0.5262460000000  0.5493300000000 1.0
C      1  0.5188650000000  0.5022110000000  0.4640720000000 1.0
C      1  0.4595630000000  0.4341410000000  0.5820780000000 1.0
C      1  0.5278480000000  0.4009580000000  0.4576300000000 1.0
C      1  0.5433680000000  0.5148920000000  0.4470830000000 1.0
C      1  0.5267530000000  0.5198500000000  0.5177820000000 1.0
C      1  0.4313660000000  0.5204620000000  0.6112980000000 1.0
C      1  0.4880410000000  0.5258760000000  0.3884660000000 1.0
C      1  0.5388270000000  0.4755370000000  0.4318060000000 1.0
C      1  0.4354320000000  0.4788370000000  0.5472170000000 1.0
C      1  0.5896730000000  0.4213210000000  0.4760240000000 1.0
C      1  0.5764540000000  0.5425380000000  0.5249940000000 1.0
C      1  0.4560810000000  0.5217890000000  0.3993910000000 1.0
C      1  0.4280330000000  0.4551930000000  0.4434270000000 1.0
C      1  0.4213200000000  0.5720240000000  0.5076460000000 1.0
C      1  0.4635870000000  0.4157520000000  0.5615950000000 1.0
C      1  0.5208900000000  0.5734150000000  0.4412150000000 1.0
C      1  0.4919200000000  0.6054340000000  0.5021390000000 1.0
C      1  0.5843740000000  0.4656720000000  0.5110840000000 1.0
C      1  0.4277450000000  0.4745570000000  0.4195510000000 1.0
C      1  0.5444290000000  0.4705100000000  0.4796600000000 1.0
C      1  0.4401830000000  0.5466810000000  0.4936610000000 1.0
C      1  0.5875400000000  0.5371790000000  0.4676170000000 1.0
C      1  0.4961620000000  0.4997480000000  0.4448380000000 1.0
C      1  0.4899960000000  0.4179800000000  0.5508710000000 1.0
C      1  0.5754730000000  0.4584090000000  0.4728170000000 1.0
C      1  0.4998120000000  0.4657840000000  0.5276170000000 1.0
C      1  0.4980150000000  0.5491040000000  0.5481350000000 1.0
C      1  0.4260030000000  0.5774280000000  0.4521630000000 1.0
C      1  0.5153010000000  0.5362000000000  0.3922850000000 1.0
C      1  0.5391330000000  0.5122270000000  0.4134400000000 1.0
C      1  0.5915230000000  0.4341730000000  0.5001730000000 1.0
C      1  0.3874040000000  0.4979460000000  0.5309390000000 1.0
C      1  0.5065570000000  0.5758280000000  0.5813460000000 1.0
C      1  0.4547440000000  0.4886370000000  0.4047720000000 1.0
C      1  0.5300430000000  0.4383470000000  0.4180310000000 1.0
C      1  0.5186210000000  0.5367120000000  0.4257400000000 1.0
C      1  0.5237440000000  0.5523230000000  0.6000690000000 1.0
C      1  0.6025080000000  0.5235180000000  0.5198900000000 1.0
C      1  0.4769810000000  0.4809380000000  0.4638260000000 1.0
C      1  0.5401130000000  0.3888230000000  0.4826160000000 1.0
C      1  0.4317260000000  0.5963330000000  0.5129110000000 1.0
C      1  0.5628620000000  0.5070620000000  0.5677950000000 1.0
C      1  0.5671310000000  0.6028900000000  0.5400170000000 1.0
C      1  0.5819030000000  0.5351930000000  0.5639280000000 1.0
C      1  0.4537190000000  0.3997610000000  0.4629700000000 1.0
C      1  0.5762070000000  0.5653800000000  0.5501860000000 1.0
C      1  0.5768930000000  0.4373780000000  0.5293980000000 1.0
C      1  0.5823430000000  0.5816790000000  0.5214150000000 1.0
C      1  0.4915470000000  0.5100350000000  0.5531440000000 1.0
C      1  0.4417930000000  0.5693300000000  0.5675110000000 1.0
C      1  0.5795470000000  0.4670580000000  0.5753920000000 1.0
C      1  0.5382650000000  0.4506860000000  0.5982820000000 1.0
C      1  0.4011910000000  0.4416140000000  0.4901400000000 1.0
C      1  0.5414030000000  0.5797650000000  0.5370550000000 1.0
C      1  0.4273770000000  0.4220520000000  0.5310360000000 1.0
C      1  0.4376860000000  0.3944780000000  0.4858130000000 1.0
C      1  0.5056650000000  0.5341260000000  0.4870670000000 1.0
C      1  0.4502160000000  0.4844230000000  0.5782700000000 1.0
C      1  0.5274160000000  0.4569040000000  0.4559640000000 1.0
C      1  0.5720920000000  0.4303930000000  0.5619040000000 1.0
C      1  0.5458620000000  0.4273900000000  0.5319120000000 1.0
C      1  0.4709870000000  0.4140310000000  0.4960260000000 1.0
C      1  0.5705770000000  0.4878770000000  0.4335800000000 1.0
C      1  0.4689650000000  0.3971360000000  0.5191310000000 1.0
C      1  0.4607650000000  0.5184640000000  0.5167170000000 1.0
C      1  0.4466800000000  0.5426820000000  0.6105280000000 1.0
C      1  0.4704400000000  0.5769590000000  0.5407810000000 1.0
C      1  0.4030380000000  0.5460340000000  0.5066390000000 1.0
C      1  0.4841920000000  0.5084050000000  0.4827880000000 1.0
C      1  0.4379770000000  0.5615160000000  0.4257340000000 1.0
C      1  0.4286440000000  0.4739020000000  0.5171950000000 1.0
C      1  0.5184900000000  0.4617230000000  0.4005610000000 1.0
C      1  0.5522260000000  0.5041350000000  0.5993180000000 1.0
C      1  0.5672550000000  0.4889900000000  0.4653800000000 1.0
C      1  0.5572390000000  0.4731470000000  0.5247600000000 1.0
C      1  0.5163220000000  0.4350510000000  0.5828570000000 1.0
C      1  0.5279170000000  0.5964610000000  0.4634710000000 1.0
C      1  0.4964870000000  0.5359020000000  0.5989370000000 1.0
C      1  0.5465840000000  0.5592010000000  0.4762910000000 1.0
C      1  0.4110640000000  0.5232280000000  0.4201700000000 1.0
C      1  0.5443920000000  0.5297180000000  0.6090950000000 1.0
C      1  0.5427100000000  0.4877900000000  0.5507000000000 1.0
C      1  0.4568650000000  0.4554170000000  0.4614300000000 1.0
C      1  0.4793240000000  0.3875400000000  0.4584990000000 1.0
C      1  0.4208910000000  0.4259470000000  0.4688430000000 1.0
C      1  0.3945230000000  0.5133390000000  0.4483940000000 1.0
C      1  0.4829300000000  0.5263710000000  0.4399050000000 1.0
C      1  0.5311850000000  0.5705450000000  0.4086640000000 1.0
C      1  0.4110260000000  0.4778090000000  0.5788350000000 1.0
C      1  0.3972180000000  0.5074090000000  0.5025170000000 1.0
C      1  0.4487810000000  0.4054480000000  0.5392260000000 1.0
C      1  0.5917620000000  0.4895480000000  0.5618450000000 1.0
C      1  0.4734260000000  0.5798570000000  0.5746350000000 1.0
C      1  0.5158660000000  0.5944470000000  0.5216510000000 1.0
C      1  0.5065760000000  0.4855870000000  0.5838930000000 1.0
C      1  0.5009640000000  0.5515520000000  0.5142440000000 1.0
C      1  0.5784110000000  0.4708370000000  0.4069540000000 1.0
C      1  0.5613520000000  0.4499570000000  0.4251530000000 1.0
C      1  0.4283570000000  0.5105250000000  0.5573450000000 1.0
C      1  0.4958730000000  0.4570470000000  0.4530040000000 1.0
C      1  0.4846570000000  0.4445110000000  0.4280250000000 1.0
C      1  0.5107290000000  0.5289260000000  0.5703870000000 1.0
C      1  0.5651090000000  0.4438060000000  0.5907180000000 1.0
C      1  0.4664780000000  0.5376140000000  0.4822130000000 1.0
C      1  0.5337730000000  0.5928370000000  0.4934980000000 1.0
C      1  0.4689200000000  0.5678300000000  0.4329030000000 1.0
C      1  0.4970780000000  0.6025630000000  0.4690280000000 1.0
C      1  0.5953040000000  0.5576880000000  0.5008390000000 1.0
END
