TITL C-2778435-5768-665 -0.00281860397287298 125000 -345.624298430751 0 0 59 (C1) n - 1
REM
REM in /home/nfs/bkarasulu/CARBON/AIRSS/Generating-Clusters/REBO/Only-C1/SD-CG/HFTN-CG
REM
REM
REM
REM
REM
REM ./C.cell (11c1c37f851c82e70ff6c80c92926a4b)
REM
REM compiler GCC version 9.2.1 20190827 (Red Hat 9.2.1-1)
REM options -cpp -mtune=generic -march=x86-64 -g -O0 -fpre-include=/usr/include/finclude/math-vector-fortran.h
REM seed -1379867885 66785010 1637065160 136852674 1719927586 177705913 -308922627 1692680809 1533115258 996065758 533510711 -862155810 -598325185 -833844772 -35156736 -359071236 -548503496 19499196 1690045686 1964497817 2088831518 -762227381 1153866234 444611859 1817394379 -1179048180 731915210 -340632129 -1977255396 893844485 -583358245 -1380230047 -285609305
REM
CELL 1.54180   50.00000   50.00000   50.00000   90.00000   90.00000   90.00000
LATT -1
SFAC C  
C      1  0.5113470000000  0.5587660000000  0.5390730000000 1.0
C      1  0.5475420000000  0.4589220000000  0.4925220000000 1.0
C      1  0.4740780000000  0.4795390000000  0.4911830000000 1.0
C      1  0.5511740000000  0.5216100000000  0.5270010000000 1.0
C      1  0.5607540000000  0.5757680000000  0.4872950000000 1.0
C      1  0.5012190000000  0.5335920000000  0.4722300000000 1.0
C      1  0.4976150000000  0.4443020000000  0.4618190000000 1.0
C      1  0.4747830000000  0.5403050000000  0.5666450000000 1.0
C      1  0.4813310000000  0.5673660000000  0.5016730000000 1.0
C      1  0.5360240000000  0.4367960000000  0.5322640000000 1.0
C      1  0.4341470000000  0.4739030000000  0.4822140000000 1.0
C      1  0.4647580000000  0.4800870000000  0.5390180000000 1.0
C      1  0.5492750000000  0.5526600000000  0.4936150000000 1.0
C      1  0.4828600000000  0.5344470000000  0.5013960000000 1.0
C      1  0.4186870000000  0.5461230000000  0.4948790000000 1.0
C      1  0.4933740000000  0.5767390000000  0.5256480000000 1.0
C      1  0.4994980000000  0.4678860000000  0.4940640000000 1.0
C      1  0.5757700000000  0.4558990000000  0.4528360000000 1.0
C      1  0.4732110000000  0.4365670000000  0.4842310000000 1.0
C      1  0.5213940000000  0.4819340000000  0.5607200000000 1.0
C      1  0.5010360000000  0.4492830000000  0.5176330000000 1.0
C      1  0.4967120000000  0.4665900000000  0.5678190000000 1.0
C      1  0.4314030000000  0.5224800000000  0.4985920000000 1.0
C      1  0.4514990000000  0.5162570000000  0.4275520000000 1.0
C      1  0.4683970000000  0.4295640000000  0.5480830000000 1.0
C      1  0.5647320000000  0.4702800000000  0.4730520000000 1.0
C      1  0.5167710000000  0.4698970000000  0.4695030000000 1.0
C      1  0.5386820000000  0.4782070000000  0.5133050000000 1.0
C      1  0.4598720000000  0.4786240000000  0.4632050000000 1.0
C      1  0.4594000000000  0.4929830000000  0.5644040000000 1.0
C      1  0.4206630000000  0.4969990000000  0.4907160000000 1.0
C      1  0.5503160000000  0.5258670000000  0.4757220000000 1.0
C      1  0.5696090000000  0.4978130000000  0.4769670000000 1.0
C      1  0.5151070000000  0.4892290000000  0.4257700000000 1.0
C      1  0.5418050000000  0.5060590000000  0.5475640000000 1.0
C      1  0.4770930000000  0.4592980000000  0.4430230000000 1.0
C      1  0.5639950000000  0.5137150000000  0.5038460000000 1.0
C      1  0.4634150000000  0.4886640000000  0.4319540000000 1.0
C      1  0.4635850000000  0.4922040000000  0.5139320000000 1.0
C      1  0.5347870000000  0.4337760000000  0.5028460000000 1.0
C      1  0.4579010000000  0.5195520000000  0.5083120000000 1.0
C      1  0.5159570000000  0.5156830000000  0.5617870000000 1.0
C      1  0.4537600000000  0.5421170000000  0.4344360000000 1.0
C      1  0.5720790000000  0.5985640000000  0.4810590000000 1.0
C      1  0.4905220000000  0.4844180000000  0.4152570000000 1.0
C      1  0.5020180000000  0.5399760000000  0.5587760000000 1.0
C      1  0.4494460000000  0.4483040000000  0.4870900000000 1.0
C      1  0.4556000000000  0.5208110000000  0.5674240000000 1.0
C      1  0.5323650000000  0.5468620000000  0.5198570000000 1.0
C      1  0.5361780000000  0.4651460000000  0.5387830000000 1.0
C      1  0.5056620000000  0.4285540000000  0.4909410000000 1.0
C      1  0.5228160000000  0.5001930000000  0.5076700000000 1.0
C      1  0.4657630000000  0.5609140000000  0.4499910000000 1.0
C      1  0.5119560000000  0.5243520000000  0.5095920000000 1.0
C      1  0.5234200000000  0.5186660000000  0.4644110000000 1.0
C      1  0.4831670000000  0.4527830000000  0.5418870000000 1.0
C      1  0.4844820000000  0.5601600000000  0.4711620000000 1.0
C      1  0.5218490000000  0.4921790000000  0.4530870000000 1.0
C      1  0.4773410000000  0.4797660000000  0.5826650000000 1.0
END
