TITL C-2778428-5639-850 -0.00131360383470579 125000 -297.904608867716 0 0 53 (C1) n - 1
REM
REM in /home/nfs/bkarasulu/CARBON/AIRSS/Generating-Clusters/REBO/Only-C1/SD-CG/HFTN-CG
REM
REM
REM
REM
REM
REM ./C.cell (11c1c37f851c82e70ff6c80c92926a4b)
REM
REM compiler GCC version 9.2.1 20190827 (Red Hat 9.2.1-1)
REM options -cpp -mtune=generic -march=x86-64 -g -O0 -fpre-include=/usr/include/finclude/math-vector-fortran.h
REM seed -414346365 -1420320571 -1736579250 592797852 808969745 -146408085 1767230822 -1568913581 -115240324 -622091338 1427631130 1031183207 -1010014866 -2006826283 1547459829 1973903615 473733667 184593077 -518872743 393017509 -297001647 -1768828946 -1570508376 470182183 -1805312011 582301388 237609984 -351460479 1703962730 1385634547 298454390 -765557490 -2137454878
REM
CELL 1.54180   50.00000   50.00000   50.00000   90.00000   90.00000   90.00000
LATT -1
SFAC C  
C      1  0.4781430000000  0.5648100000000  0.4866760000000 1.0
C      1  0.4805040000000  0.5769460000000  0.5186440000000 1.0
C      1  0.4523640000000  0.5236900000000  0.4699640000000 1.0
C      1  0.4424920000000  0.5067480000000  0.5318410000000 1.0
C      1  0.5278810000000  0.4666120000000  0.4359180000000 1.0
C      1  0.4689330000000  0.5499620000000  0.5583680000000 1.0
C      1  0.4567290000000  0.5312360000000  0.5217260000000 1.0
C      1  0.4670150000000  0.5214690000000  0.5597540000000 1.0
C      1  0.5006370000000  0.4688270000000  0.4344980000000 1.0
C      1  0.5361580000000  0.3797650000000  0.4870130000000 1.0
C      1  0.5398880000000  0.5566700000000  0.5376540000000 1.0
C      1  0.5318240000000  0.4569260000000  0.5045910000000 1.0
C      1  0.5248750000000  0.4026780000000  0.4811400000000 1.0
C      1  0.4837300000000  0.5017730000000  0.5457670000000 1.0
C      1  0.5695180000000  0.4994430000000  0.4898350000000 1.0
C      1  0.5616050000000  0.4772210000000  0.4732720000000 1.0
C      1  0.5288680000000  0.5024500000000  0.5638850000000 1.0
C      1  0.5134100000000  0.4259620000000  0.4751710000000 1.0
C      1  0.5682850000000  0.4296530000000  0.4855200000000 1.0
C      1  0.4604670000000  0.5676810000000  0.5375450000000 1.0
C      1  0.5092140000000  0.5454440000000  0.5021720000000 1.0
C      1  0.4394900000000  0.5087760000000  0.5658140000000 1.0
C      1  0.5098690000000  0.5428970000000  0.5418340000000 1.0
C      1  0.4971920000000  0.5273900000000  0.4582990000000 1.0
C      1  0.5083550000000  0.5778770000000  0.4955430000000 1.0
C      1  0.4890330000000  0.4985440000000  0.4478590000000 1.0
C      1  0.4379660000000  0.4986850000000  0.4832030000000 1.0
C      1  0.4849760000000  0.5352960000000  0.5196370000000 1.0
C      1  0.5174920000000  0.4820720000000  0.4987170000000 1.0
C      1  0.5305170000000  0.5329770000000  0.4890040000000 1.0
C      1  0.5035650000000  0.4803860000000  0.4736650000000 1.0
C      1  0.4411370000000  0.4877530000000  0.5083640000000 1.0
C      1  0.5544930000000  0.4529030000000  0.4876410000000 1.0
C      1  0.4664010000000  0.4531510000000  0.4863270000000 1.0
C      1  0.4838700000000  0.5077720000000  0.4184090000000 1.0
C      1  0.4750200000000  0.5411280000000  0.4707700000000 1.0
C      1  0.4735620000000  0.4624110000000  0.4545530000000 1.0
C      1  0.5248360000000  0.5036370000000  0.5154300000000 1.0
C      1  0.5125180000000  0.5111840000000  0.5423380000000 1.0
C      1  0.5418080000000  0.5116680000000  0.4465380000000 1.0
C      1  0.5157140000000  0.4225780000000  0.5430530000000 1.0
C      1  0.5251350000000  0.5282180000000  0.4622840000000 1.0
C      1  0.5126350000000  0.5745030000000  0.5292290000000 1.0
C      1  0.4614010000000  0.4662740000000  0.5105780000000 1.0
C      1  0.4575900000000  0.4920710000000  0.4575660000000 1.0
C      1  0.4378620000000  0.5555880000000  0.5218750000000 1.0
C      1  0.4424890000000  0.4792810000000  0.5550010000000 1.0
C      1  0.5599450000000  0.5404250000000  0.5276750000000 1.0
C      1  0.4685810000000  0.4772500000000  0.5384970000000 1.0
C      1  0.5468580000000  0.4836810000000  0.4492160000000 1.0
C      1  0.5235290000000  0.4392400000000  0.5243950000000 1.0
C      1  0.5518700000000  0.5187780000000  0.5066320000000 1.0
C      1  0.5017510000000  0.4496400000000  0.4691010000000 1.0
END
