TITL C-2778430-5657-1456 0.00567716411293165 125000 -864.335490261585 0 0 148 (C1) n - 1
REM
REM in /home/nfs/bkarasulu/CARBON/AIRSS/Generating-Clusters/REBO/Only-C1/SD-CG/HFTN-CG
REM
REM
REM
REM
REM
REM ./C.cell (11c1c37f851c82e70ff6c80c92926a4b)
REM
REM compiler GCC version 9.2.1 20190827 (Red Hat 9.2.1-1)
REM options -cpp -mtune=generic -march=x86-64 -g -O0 -fpre-include=/usr/include/finclude/math-vector-fortran.h
REM seed -1914171265 1060089589 -1826125814 -1375707946 -1630288832 -1485749712 -1829953869 -1905230943 1214384454 559951078 1787656838 -564389548 -728646021 1828793949 -249050981 -1052223068 631516361 -842515050 -439337823 681179624 -1043238336 -1152903202 1917857568 1324438721 -1882585197 -873044686 -208537849 -367545445 1673329162 708902758 -1898837169 -351527778 1507663777
REM
CELL 1.54180   50.00000   50.00000   50.00000   90.00000   90.00000   90.00000
LATT -1
SFAC C  
C      1  0.5085430000000  0.4803360000000  0.4086050000000 1.0
C      1  0.5490410000000  0.4741390000000  0.5167310000000 1.0
C      1  0.5958470000000  0.5104630000000  0.5755950000000 1.0
C      1  0.4531530000000  0.4487930000000  0.5701140000000 1.0
C      1  0.5306660000000  0.5841440000000  0.5799140000000 1.0
C      1  0.4434040000000  0.4729010000000  0.5178950000000 1.0
C      1  0.4681790000000  0.4073090000000  0.5161690000000 1.0
C      1  0.4932670000000  0.5556770000000  0.5211900000000 1.0
C      1  0.5172870000000  0.5162650000000  0.5101680000000 1.0
C      1  0.4870190000000  0.5770260000000  0.5648380000000 1.0
C      1  0.5232900000000  0.5492190000000  0.5064800000000 1.0
C      1  0.3948820000000  0.4916490000000  0.4404730000000 1.0
C      1  0.5150400000000  0.5348450000000  0.6032630000000 1.0
C      1  0.5165800000000  0.4176770000000  0.5288360000000 1.0
C      1  0.5231310000000  0.4454020000000  0.5354190000000 1.0
C      1  0.5627800000000  0.4077830000000  0.4391880000000 1.0
C      1  0.5767960000000  0.4605460000000  0.4752460000000 1.0
C      1  0.4523940000000  0.4736060000000  0.4218590000000 1.0
C      1  0.5469860000000  0.4820680000000  0.5725620000000 1.0
C      1  0.5311800000000  0.5087510000000  0.5374290000000 1.0
C      1  0.4164620000000  0.4459770000000  0.4719560000000 1.0
C      1  0.6013650000000  0.4598540000000  0.5156600000000 1.0
C      1  0.5699730000000  0.4938200000000  0.5851660000000 1.0
C      1  0.4900220000000  0.5339540000000  0.5454330000000 1.0
C      1  0.5602850000000  0.5504200000000  0.4311980000000 1.0
C      1  0.4342850000000  0.4888510000000  0.4912570000000 1.0
C      1  0.5979830000000  0.5266490000000  0.4882460000000 1.0
C      1  0.4928570000000  0.5183350000000  0.5954510000000 1.0
C      1  0.4069560000000  0.5243740000000  0.5290630000000 1.0
C      1  0.4980740000000  0.4185070000000  0.5067130000000 1.0
C      1  0.5373670000000  0.3952610000000  0.4894990000000 1.0
C      1  0.5704160000000  0.5484830000000  0.5539530000000 1.0
C      1  0.4696340000000  0.5343860000000  0.5903170000000 1.0
C      1  0.4929590000000  0.5353180000000  0.4067310000000 1.0
C      1  0.5321930000000  0.5905820000000  0.5528680000000 1.0
C      1  0.5149480000000  0.4258110000000  0.4572980000000 1.0
C      1  0.5397220000000  0.5372650000000  0.4790110000000 1.0
C      1  0.4368560000000  0.5316090000000  0.4142320000000 1.0
C      1  0.5388790000000  0.4277190000000  0.5601940000000 1.0
C      1  0.5675060000000  0.5223750000000  0.4256700000000 1.0
C      1  0.5496140000000  0.5276460000000  0.5456890000000 1.0
C      1  0.4732550000000  0.5613140000000  0.5873640000000 1.0
C      1  0.4031770000000  0.5574370000000  0.4542990000000 1.0
C      1  0.5270410000000  0.5790340000000  0.4601060000000 1.0
C      1  0.4137290000000  0.4508050000000  0.5032050000000 1.0
C      1  0.5585670000000  0.5767630000000  0.5390650000000 1.0
C      1  0.3911560000000  0.5096610000000  0.4663860000000 1.0
C      1  0.4568470000000  0.4220340000000  0.5408510000000 1.0
C      1  0.5678360000000  0.4338070000000  0.5446630000000 1.0
C      1  0.4667420000000  0.5291830000000  0.4184960000000 1.0
C      1  0.5868330000000  0.5090960000000  0.5122960000000 1.0
C      1  0.5478320000000  0.4112150000000  0.4647260000000 1.0
C      1  0.5542580000000  0.4713040000000  0.5451040000000 1.0
C      1  0.4823130000000  0.5291010000000  0.4932330000000 1.0
C      1  0.4575260000000  0.4308410000000  0.4196460000000 1.0
C      1  0.4142850000000  0.5130020000000  0.4219340000000 1.0
C      1  0.4373310000000  0.5093080000000  0.5501120000000 1.0
C      1  0.4215760000000  0.5456650000000  0.5384400000000 1.0
C      1  0.5586520000000  0.5677660000000  0.5080830000000 1.0
C      1  0.4839240000000  0.5872280000000  0.4835950000000 1.0
C      1  0.4750170000000  0.4554980000000  0.5377390000000 1.0
C      1  0.5320640000000  0.5792780000000  0.4926240000000 1.0
C      1  0.5115230000000  0.5554440000000  0.5567140000000 1.0
C      1  0.4738750000000  0.4599910000000  0.4570900000000 1.0
C      1  0.6054320000000  0.5110320000000  0.4659370000000 1.0
C      1  0.4964850000000  0.5702860000000  0.4610040000000 1.0
C      1  0.5109960000000  0.4681850000000  0.5270710000000 1.0
C      1  0.3999940000000  0.4801420000000  0.5097930000000 1.0
C      1  0.4927500000000  0.4699600000000  0.5624150000000 1.0
C      1  0.5181620000000  0.4857040000000  0.4626510000000 1.0
C      1  0.5976480000000  0.4783380000000  0.5686200000000 1.0
C      1  0.4087950000000  0.4636970000000  0.4519720000000 1.0
C      1  0.4534800000000  0.5759210000000  0.4369080000000 1.0
C      1  0.4540250000000  0.4771240000000  0.5668110000000 1.0
C      1  0.5366850000000  0.3988670000000  0.5416840000000 1.0
C      1  0.4456470000000  0.5343950000000  0.4654260000000 1.0
C      1  0.4145390000000  0.5810990000000  0.4623070000000 1.0
C      1  0.4816030000000  0.4320840000000  0.5620410000000 1.0
C      1  0.5994680000000  0.4792090000000  0.4634060000000 1.0
C      1  0.5311180000000  0.5040150000000  0.4827140000000 1.0
C      1  0.4856140000000  0.5110620000000  0.5215310000000 1.0
C      1  0.5047740000000  0.4457950000000  0.4947380000000 1.0
C      1  0.4514700000000  0.4172530000000  0.4888140000000 1.0
C      1  0.4707390000000  0.5788040000000  0.5284080000000 1.0
C      1  0.5133150000000  0.4902100000000  0.5466930000000 1.0
C      1  0.4962700000000  0.5371630000000  0.4646990000000 1.0
C      1  0.4518330000000  0.5032370000000  0.4680610000000 1.0
C      1  0.5816530000000  0.4457620000000  0.5000150000000 1.0
C      1  0.4674840000000  0.6006120000000  0.5503670000000 1.0
C      1  0.5502990000000  0.4022390000000  0.5139880000000 1.0
C      1  0.4562940000000  0.4387930000000  0.4459890000000 1.0
C      1  0.4440750000000  0.4388900000000  0.5139680000000 1.0
C      1  0.5238270000000  0.4724550000000  0.5862610000000 1.0
C      1  0.5803090000000  0.5530160000000  0.4864760000000 1.0
C      1  0.4654020000000  0.4762340000000  0.4847840000000 1.0
C      1  0.5609560000000  0.5581980000000  0.4623770000000 1.0
C      1  0.3998310000000  0.5306540000000  0.4467110000000 1.0
C      1  0.4597650000000  0.5983890000000  0.4787560000000 1.0
C      1  0.4831070000000  0.4661210000000  0.5076270000000 1.0
C      1  0.4623390000000  0.4914850000000  0.5367430000000 1.0
C      1  0.5837490000000  0.5016470000000  0.4426240000000 1.0
C      1  0.4699350000000  0.4896090000000  0.4456000000000 1.0
C      1  0.5073430000000  0.5116500000000  0.4141120000000 1.0
C      1  0.4992710000000  0.4923130000000  0.5873550000000 1.0
C      1  0.5116630000000  0.4433240000000  0.5734820000000 1.0
C      1  0.5348450000000  0.5540660000000  0.5370520000000 1.0
C      1  0.4719560000000  0.5298830000000  0.4466680000000 1.0
C      1  0.4587640000000  0.5324650000000  0.5435930000000 1.0
C      1  0.5037010000000  0.5840620000000  0.5065440000000 1.0
C      1  0.5924270000000  0.5371820000000  0.5673280000000 1.0
C      1  0.4804250000000  0.3993420000000  0.4853570000000 1.0
C      1  0.4411900000000  0.5911530000000  0.4585480000000 1.0
C      1  0.5391000000000  0.4484390000000  0.4349440000000 1.0
C      1  0.5253780000000  0.5279040000000  0.4513510000000 1.0
C      1  0.4182970000000  0.4588570000000  0.5366580000000 1.0
C      1  0.5442020000000  0.5060010000000  0.4402740000000 1.0
C      1  0.4117960000000  0.4923460000000  0.5380260000000 1.0
C      1  0.5106450000000  0.4000360000000  0.4738710000000 1.0
C      1  0.5366240000000  0.4558050000000  0.4980390000000 1.0
C      1  0.5586470000000  0.4274080000000  0.4231030000000 1.0
C      1  0.4251920000000  0.5455340000000  0.5657860000000 1.0
C      1  0.6033500000000  0.4860720000000  0.5221150000000 1.0
C      1  0.5606380000000  0.4819380000000  0.4582020000000 1.0
C      1  0.5307490000000  0.4786710000000  0.4319610000000 1.0
C      1  0.4486540000000  0.5546590000000  0.5220630000000 1.0
C      1  0.5679320000000  0.4256960000000  0.5165340000000 1.0
C      1  0.4382390000000  0.4290870000000  0.4653400000000 1.0
C      1  0.4983020000000  0.5002160000000  0.4416150000000 1.0
C      1  0.5545550000000  0.5021700000000  0.5056570000000 1.0
C      1  0.5031990000000  0.4557340000000  0.4644770000000 1.0
C      1  0.4801960000000  0.4646440000000  0.4160990000000 1.0
C      1  0.4298960000000  0.4374910000000  0.5540480000000 1.0
C      1  0.5025990000000  0.5600690000000  0.4182360000000 1.0
C      1  0.4039740000000  0.4996410000000  0.4882010000000 1.0
C      1  0.5559330000000  0.5914050000000  0.4630550000000 1.0
C      1  0.4426420000000  0.4927830000000  0.5860000000000 1.0
C      1  0.4241620000000  0.4807800000000  0.4268310000000 1.0
C      1  0.4818500000000  0.5745430000000  0.4336240000000 1.0
C      1  0.4436420000000  0.5237580000000  0.5806490000000 1.0
C      1  0.5828210000000  0.4593620000000  0.5519160000000 1.0
C      1  0.4544420000000  0.5439870000000  0.4941200000000 1.0
C      1  0.5039960000000  0.5900310000000  0.5383210000000 1.0
C      1  0.5219100000000  0.5567910000000  0.5875740000000 1.0
C      1  0.4392140000000  0.5507550000000  0.4376100000000 1.0
C      1  0.5651590000000  0.5343110000000  0.5095930000000 1.0
C      1  0.5085310000000  0.4481130000000  0.4202360000000 1.0
C      1  0.5277750000000  0.5572490000000  0.4358580000000 1.0
C      1  0.5411310000000  0.4440190000000  0.4686280000000 1.0
END
