TITL C-2778424-3986-513 -0.0321900105406922 125000 -152.408356233795 0 0 29 (C1) n - 1
REM
REM in /home/nfs/bkarasulu/CARBON/AIRSS/Generating-Clusters/REBO/Only-C1/SD-CG/HFTN-CG
REM
REM
REM
REM
REM
REM ./C.cell (11c1c37f851c82e70ff6c80c92926a4b)
REM
REM compiler GCC version 9.2.1 20190827 (Red Hat 9.2.1-1)
REM options -cpp -mtune=generic -march=x86-64 -g -O0 -fpre-include=/usr/include/finclude/math-vector-fortran.h
REM seed -627840588 214877063 270113868 607510030 -359379441 -404212399 1290883447 -2054191196 -663573601 862598114 -774696109 -2110519311 1574891637 -974535952 1799975532 -483620524 139887052 -1276654654 1588783476 -1518786014 -1419633023 -1084105584 -357214001 -2094543651 -1383361858 -1359185741 945306421 -48696185 -1862788553 -780813988 933579560 259262173 -1162897891
REM
CELL 1.54180   50.00000   50.00000   50.00000   90.00000   90.00000   90.00000
LATT -1
SFAC C  
C      1  0.4948300000000  0.5436200000000  0.5164390000000 1.0
C      1  0.4429820000000  0.4828720000000  0.5353190000000 1.0
C      1  0.4901120000000  0.4697280000000  0.4794790000000 1.0
C      1  0.5237660000000  0.4528050000000  0.5155740000000 1.0
C      1  0.4911230000000  0.4490570000000  0.5060730000000 1.0
C      1  0.4573830000000  0.5116880000000  0.5429090000000 1.0
C      1  0.5542450000000  0.5053910000000  0.4877620000000 1.0
C      1  0.5100950000000  0.4423520000000  0.5404790000000 1.0
C      1  0.4755040000000  0.4798840000000  0.5448080000000 1.0
C      1  0.5197110000000  0.5388900000000  0.4584040000000 1.0
C      1  0.5183990000000  0.5281690000000  0.5355890000000 1.0
C      1  0.4689450000000  0.4895700000000  0.4716180000000 1.0
C      1  0.5152200000000  0.4796890000000  0.4995550000000 1.0
C      1  0.4888710000000  0.5475520000000  0.4672280000000 1.0
C      1  0.5111860000000  0.5089240000000  0.5059300000000 1.0
C      1  0.4555630000000  0.4866890000000  0.4475650000000 1.0
C      1  0.5562560000000  0.4964140000000  0.5149090000000 1.0
C      1  0.4814180000000  0.4515150000000  0.5366920000000 1.0
C      1  0.4793390000000  0.5361410000000  0.4908110000000 1.0
C      1  0.5292590000000  0.5237620000000  0.4846300000000 1.0
C      1  0.4632110000000  0.5115540000000  0.4897750000000 1.0
C      1  0.4462800000000  0.5055350000000  0.5117010000000 1.0
C      1  0.5424750000000  0.4942610000000  0.4611070000000 1.0
C      1  0.5377800000000  0.5002410000000  0.5344120000000 1.0
C      1  0.5214610000000  0.4759390000000  0.4675580000000 1.0
C      1  0.5355230000000  0.5158280000000  0.4435490000000 1.0
C      1  0.4831330000000  0.5136540000000  0.5249370000000 1.0
C      1  0.5051800000000  0.4965670000000  0.5434560000000 1.0
C      1  0.5007530000000  0.5617080000000  0.4417340000000 1.0
END
