TITL C-2778436-5916-58 0.0623028195042653 125000 -357.274019753355 0 0 63 (C1) n - 1
REM
REM in /home/nfs/bkarasulu/CARBON/AIRSS/Generating-Clusters/REBO/Only-C1/SD-CG/HFTN-CG
REM
REM
REM
REM
REM
REM ./C.cell (11c1c37f851c82e70ff6c80c92926a4b)
REM
REM compiler GCC version 9.2.1 20190827 (Red Hat 9.2.1-1)
REM options -cpp -mtune=generic -march=x86-64 -g -O0 -fpre-include=/usr/include/finclude/math-vector-fortran.h
REM seed 1253771074 1305862815 -1002552676 -1899889203 637861787 -1021658130 534824887 1875550036 541395280 -497727726 -120878626 -1854195255 1986865653 92957731 1140717754 -1542434692 -1985994851 -1292038937 -1067084258 -935486715 1106590958 27306043 645052184 1903855982 175330877 -870449058 1894988870 -485237563 -1560868744 -1983066831 -1234935099 -1624090766 -1645956890
REM
CELL 1.54180   50.00000   50.00000   50.00000   90.00000   90.00000   90.00000
LATT -1
SFAC C  
C      1  0.4997360000000  0.5695600000000  0.5238920000000 1.0
C      1  0.5496760000000  0.5596800000000  0.5488780000000 1.0
C      1  0.5083100000000  0.5650690000000  0.4956400000000 1.0
C      1  0.5136360000000  0.5324170000000  0.5198630000000 1.0
C      1  0.4657400000000  0.5133530000000  0.4167010000000 1.0
C      1  0.4883480000000  0.4514270000000  0.5665430000000 1.0
C      1  0.5443000000000  0.4605900000000  0.5624220000000 1.0
C      1  0.4865910000000  0.4581160000000  0.4107400000000 1.0
C      1  0.5548800000000  0.5054670000000  0.4741760000000 1.0
C      1  0.4568980000000  0.4455750000000  0.4807930000000 1.0
C      1  0.5291950000000  0.4579830000000  0.5386800000000 1.0
C      1  0.4568710000000  0.4444250000000  0.5088650000000 1.0
C      1  0.5560430000000  0.5178830000000  0.4244280000000 1.0
C      1  0.5019440000000  0.4412660000000  0.5433440000000 1.0
C      1  0.4817170000000  0.5029030000000  0.5703140000000 1.0
C      1  0.4198000000000  0.5028490000000  0.4828530000000 1.0
C      1  0.5014540000000  0.4261850000000  0.4674990000000 1.0
C      1  0.4577510000000  0.5774340000000  0.4896030000000 1.0
C      1  0.5495700000000  0.4542410000000  0.4667190000000 1.0
C      1  0.5272970000000  0.4744770000000  0.4682430000000 1.0
C      1  0.4748180000000  0.4869120000000  0.4197910000000 1.0
C      1  0.5742960000000  0.5481350000000  0.5540290000000 1.0
C      1  0.5510150000000  0.4374490000000  0.4915460000000 1.0
C      1  0.4782090000000  0.5516760000000  0.4535500000000 1.0
C      1  0.4854070000000  0.4386890000000  0.5206320000000 1.0
C      1  0.5595390000000  0.4764260000000  0.4915910000000 1.0
C      1  0.4418950000000  0.4705910000000  0.5223450000000 1.0
C      1  0.5292400000000  0.5505960000000  0.4829950000000 1.0
C      1  0.4683960000000  0.5242680000000  0.5522900000000 1.0
C      1  0.5031320000000  0.5520130000000  0.4423780000000 1.0
C      1  0.4763890000000  0.4769600000000  0.5609380000000 1.0
C      1  0.4898500000000  0.4648720000000  0.4993700000000 1.0
C      1  0.4728460000000  0.4758110000000  0.5272160000000 1.0
C      1  0.5276830000000  0.5037920000000  0.5096300000000 1.0
C      1  0.4925200000000  0.5004800000000  0.4529700000000 1.0
C      1  0.5195270000000  0.4947320000000  0.4505960000000 1.0
C      1  0.4385290000000  0.5181510000000  0.5496670000000 1.0
C      1  0.5673770000000  0.5049660000000  0.5060160000000 1.0
C      1  0.5407500000000  0.5174080000000  0.4477970000000 1.0
C      1  0.5268780000000  0.5441610000000  0.4553710000000 1.0
C      1  0.4854810000000  0.4494620000000  0.4692290000000 1.0
C      1  0.4380200000000  0.4576490000000  0.4653590000000 1.0
C      1  0.5351070000000  0.4973330000000  0.5423070000000 1.0
C      1  0.4571040000000  0.5325110000000  0.4431590000000 1.0
C      1  0.5793890000000  0.5213180000000  0.5503770000000 1.0
C      1  0.5455880000000  0.5293820000000  0.4961060000000 1.0
C      1  0.5066020000000  0.5113120000000  0.5806860000000 1.0
C      1  0.4829260000000  0.5361060000000  0.5053710000000 1.0
C      1  0.5270070000000  0.5432340000000  0.5454690000000 1.0
C      1  0.4308440000000  0.5207040000000  0.4578690000000 1.0
C      1  0.5656080000000  0.5029260000000  0.5356730000000 1.0
C      1  0.4828210000000  0.4632270000000  0.4425140000000 1.0
C      1  0.5266200000000  0.5191940000000  0.5624810000000 1.0
C      1  0.4198070000000  0.4917110000000  0.5074140000000 1.0
C      1  0.4777650000000  0.5588670000000  0.4829310000000 1.0
C      1  0.4660670000000  0.5032570000000  0.4552150000000 1.0
C      1  0.4382690000000  0.4874100000000  0.4607950000000 1.0
C      1  0.4894310000000  0.5115910000000  0.5286190000000 1.0
C      1  0.4272210000000  0.4973920000000  0.5371550000000 1.0
C      1  0.5465350000000  0.4547960000000  0.5145890000000 1.0
C      1  0.5164080000000  0.4797810000000  0.4947260000000 1.0
C      1  0.4817730000000  0.5497340000000  0.5366840000000 1.0
C      1  0.5055560000000  0.4821150000000  0.5343590000000 1.0
END
