TITL C-2778437-8639-169 0.00456055274136632 125000 -833.887161658865 0 0 145 (C1) n - 1
REM
REM in /home/nfs/bkarasulu/CARBON/AIRSS/Generating-Clusters/REBO/Only-C1/SD-CG/HFTN-CG
REM
REM
REM
REM
REM
REM ./C.cell (11c1c37f851c82e70ff6c80c92926a4b)
REM
REM compiler GCC version 9.2.1 20190827 (Red Hat 9.2.1-1)
REM options -cpp -mtune=generic -march=x86-64 -g -O0 -fpre-include=/usr/include/finclude/math-vector-fortran.h
REM seed -320060539 1148083842 1034888786 1962329044 -1786919297 -1252384133 1504460196 -258855099 1578908737 -631906685 1727065571 1820312870 1317365483 712831300 -772051315 -1932218613 926040860 -1623058140 -2057092749 748414698 1142350421 -1282683704 -1006242520 -760755486 972977408 146259618 1677856236 1280258130 -541850873 -543891327 -419189216 1658214032 -1691093954
REM
CELL 1.54180   50.00000   50.00000   50.00000   90.00000   90.00000   90.00000
LATT -1
SFAC C  
C      1  0.4485550000000  0.4781590000000  0.5705970000000 1.0
C      1  0.5448710000000  0.5944220000000  0.4937250000000 1.0
C      1  0.5345770000000  0.4734760000000  0.4155020000000 1.0
C      1  0.5379030000000  0.5519830000000  0.5878440000000 1.0
C      1  0.5398120000000  0.4993320000000  0.4332360000000 1.0
C      1  0.4954410000000  0.4926090000000  0.5620700000000 1.0
C      1  0.4385700000000  0.4294230000000  0.4805400000000 1.0
C      1  0.4139570000000  0.5787480000000  0.4864890000000 1.0
C      1  0.5804620000000  0.4374220000000  0.4568810000000 1.0
C      1  0.5385090000000  0.5029790000000  0.6029680000000 1.0
C      1  0.5453200000000  0.4364850000000  0.4756180000000 1.0
C      1  0.4961820000000  0.5318800000000  0.4358850000000 1.0
C      1  0.5041200000000  0.4658440000000  0.4108690000000 1.0
C      1  0.4159550000000  0.4833230000000  0.5235100000000 1.0
C      1  0.4970690000000  0.4773260000000  0.5337600000000 1.0
C      1  0.5121590000000  0.4851210000000  0.5908840000000 1.0
C      1  0.5641870000000  0.4608740000000  0.4184640000000 1.0
C      1  0.4743220000000  0.4633080000000  0.3995770000000 1.0
C      1  0.4874100000000  0.4503270000000  0.5836460000000 1.0
C      1  0.5974680000000  0.5053710000000  0.4561740000000 1.0
C      1  0.4757790000000  0.4586510000000  0.4934350000000 1.0
C      1  0.4355150000000  0.5045340000000  0.5843970000000 1.0
C      1  0.4236770000000  0.5747030000000  0.5153540000000 1.0
C      1  0.4770400000000  0.4239300000000  0.5230780000000 1.0
C      1  0.4995620000000  0.5644130000000  0.4572840000000 1.0
C      1  0.5006760000000  0.4180290000000  0.4352450000000 1.0
C      1  0.4326050000000  0.5291140000000  0.5831050000000 1.0
C      1  0.5115780000000  0.3995310000000  0.4933320000000 1.0
C      1  0.5184530000000  0.4370810000000  0.4163020000000 1.0
C      1  0.5427840000000  0.5743380000000  0.6034680000000 1.0
C      1  0.5955070000000  0.5113070000000  0.5443520000000 1.0
C      1  0.5273400000000  0.5502750000000  0.4527590000000 1.0
C      1  0.4030920000000  0.5351540000000  0.5372540000000 1.0
C      1  0.4407390000000  0.5823820000000  0.4655950000000 1.0
C      1  0.4310650000000  0.4818590000000  0.4231370000000 1.0
C      1  0.5580390000000  0.5269120000000  0.5949890000000 1.0
C      1  0.5103740000000  0.5392820000000  0.4872190000000 1.0
C      1  0.4886740000000  0.5501340000000  0.5776740000000 1.0
C      1  0.4269530000000  0.5090480000000  0.4413040000000 1.0
C      1  0.4795170000000  0.5202250000000  0.5528770000000 1.0
C      1  0.4591590000000  0.4492150000000  0.4719260000000 1.0
C      1  0.5203250000000  0.5198180000000  0.4652410000000 1.0
C      1  0.4842970000000  0.4981070000000  0.5997520000000 1.0
C      1  0.4788070000000  0.5406740000000  0.4632290000000 1.0
C      1  0.5076910000000  0.4328770000000  0.4876080000000 1.0
C      1  0.5523290000000  0.5258150000000  0.5556380000000 1.0
C      1  0.4300150000000  0.4324420000000  0.5581370000000 1.0
C      1  0.4506100000000  0.4037010000000  0.4836960000000 1.0
C      1  0.5794410000000  0.4997920000000  0.5251530000000 1.0
C      1  0.4789160000000  0.4068140000000  0.4968170000000 1.0
C      1  0.5202710000000  0.5887320000000  0.4456200000000 1.0
C      1  0.5797790000000  0.4686700000000  0.4453450000000 1.0
C      1  0.4597180000000  0.5008090000000  0.4205940000000 1.0
C      1  0.5275720000000  0.4869830000000  0.5310640000000 1.0
C      1  0.4670600000000  0.5659210000000  0.5665750000000 1.0
C      1  0.5172660000000  0.5576030000000  0.5642000000000 1.0
C      1  0.5331250000000  0.4432990000000  0.5694450000000 1.0
C      1  0.4531230000000  0.5498830000000  0.5046620000000 1.0
C      1  0.4185090000000  0.4355590000000  0.4996670000000 1.0
C      1  0.5766260000000  0.4747080000000  0.5132670000000 1.0
C      1  0.5432220000000  0.5493630000000  0.4260090000000 1.0
C      1  0.4182440000000  0.5130720000000  0.5494570000000 1.0
C      1  0.4825240000000  0.5131270000000  0.4764900000000 1.0
C      1  0.5809640000000  0.5203950000000  0.5716250000000 1.0
C      1  0.5221560000000  0.5221770000000  0.5806920000000 1.0
C      1  0.5591940000000  0.4207150000000  0.5003950000000 1.0
C      1  0.5926470000000  0.4613830000000  0.4942500000000 1.0
C      1  0.5242610000000  0.5613460000000  0.5014900000000 1.0
C      1  0.5055010000000  0.4406200000000  0.5643310000000 1.0
C      1  0.5118430000000  0.5892370000000  0.4859970000000 1.0
C      1  0.4293090000000  0.5458720000000  0.4542280000000 1.0
C      1  0.4720240000000  0.4732380000000  0.5889020000000 1.0
C      1  0.4936910000000  0.5067970000000  0.5071770000000 1.0
C      1  0.5290300000000  0.5883230000000  0.5216840000000 1.0
C      1  0.6003770000000  0.4765440000000  0.4713400000000 1.0
C      1  0.5465900000000  0.4359420000000  0.4218140000000 1.0
C      1  0.4989730000000  0.4788540000000  0.4883300000000 1.0
C      1  0.4801270000000  0.5782530000000  0.5417280000000 1.0
C      1  0.5557800000000  0.4238750000000  0.4461460000000 1.0
C      1  0.5437420000000  0.5761560000000  0.4657600000000 1.0
C      1  0.5657110000000  0.4943700000000  0.4635960000000 1.0
C      1  0.5513840000000  0.5106880000000  0.5270430000000 1.0
C      1  0.5496550000000  0.5194710000000  0.4786180000000 1.0
C      1  0.4225180000000  0.4727720000000  0.4548150000000 1.0
C      1  0.3940440000000  0.4902920000000  0.4909030000000 1.0
C      1  0.5175320000000  0.4396800000000  0.4557820000000 1.0
C      1  0.5002970000000  0.4942610000000  0.4576820000000 1.0
C      1  0.5015080000000  0.5201920000000  0.3980740000000 1.0
C      1  0.5677870000000  0.5386560000000  0.4309840000000 1.0
C      1  0.5819320000000  0.4950830000000  0.5920280000000 1.0
C      1  0.5171910000000  0.4513820000000  0.5109810000000 1.0
C      1  0.4453980000000  0.5313930000000  0.4293280000000 1.0
C      1  0.4077580000000  0.5598360000000  0.4636350000000 1.0
C      1  0.5273770000000  0.5405340000000  0.5372470000000 1.0
C      1  0.4795800000000  0.5965010000000  0.4953810000000 1.0
C      1  0.4990610000000  0.4064170000000  0.5408470000000 1.0
C      1  0.4586200000000  0.4969670000000  0.4909040000000 1.0
C      1  0.5840060000000  0.4354910000000  0.4851160000000 1.0
C      1  0.4699680000000  0.5512900000000  0.4257340000000 1.0
C      1  0.4899530000000  0.4141790000000  0.4654270000000 1.0
C      1  0.5545700000000  0.4352560000000  0.5265270000000 1.0
C      1  0.5184580000000  0.5182420000000  0.4230310000000 1.0
C      1  0.4363670000000  0.5002780000000  0.4692880000000 1.0
C      1  0.4517670000000  0.5330230000000  0.5407620000000 1.0
C      1  0.4678920000000  0.4912900000000  0.5231800000000 1.0
C      1  0.4810960000000  0.5225830000000  0.5864560000000 1.0
C      1  0.4963220000000  0.5979980000000  0.5217700000000 1.0
C      1  0.4846640000000  0.4817370000000  0.4338710000000 1.0
C      1  0.6014620000000  0.5346200000000  0.4707450000000 1.0
C      1  0.4646500000000  0.4574820000000  0.4463520000000 1.0
C      1  0.4395830000000  0.4716070000000  0.5031490000000 1.0
C      1  0.5399810000000  0.4705380000000  0.5800450000000 1.0
C      1  0.5121420000000  0.5842110000000  0.5490570000000 1.0
C      1  0.5311450000000  0.4702900000000  0.4492660000000 1.0
C      1  0.4744750000000  0.5255010000000  0.4033470000000 1.0
C      1  0.4387130000000  0.5531530000000  0.5629350000000 1.0
C      1  0.4761490000000  0.5507170000000  0.5272990000000 1.0
C      1  0.4185370000000  0.5595850000000  0.5381000000000 1.0
C      1  0.5508890000000  0.4296890000000  0.5525450000000 1.0
C      1  0.4997190000000  0.5292530000000  0.5276330000000 1.0
C      1  0.4433280000000  0.4916180000000  0.5412590000000 1.0
C      1  0.4867490000000  0.5939020000000  0.4632180000000 1.0
C      1  0.4541630000000  0.5518560000000  0.4731880000000 1.0
C      1  0.5441380000000  0.5342250000000  0.5074710000000 1.0
C      1  0.4543140000000  0.4612730000000  0.4180000000000 1.0
C      1  0.5718510000000  0.5354520000000  0.4610180000000 1.0
C      1  0.4590310000000  0.4521510000000  0.5223760000000 1.0
C      1  0.5936260000000  0.5611470000000  0.4825170000000 1.0
C      1  0.4037760000000  0.5120750000000  0.5124110000000 1.0
C      1  0.4897600000000  0.3976330000000  0.4193950000000 1.0
C      1  0.4450760000000  0.4529060000000  0.5504700000000 1.0
C      1  0.5719150000000  0.5765130000000  0.4834360000000 1.0
C      1  0.5184180000000  0.3944950000000  0.5254860000000 1.0
C      1  0.5349460000000  0.4973990000000  0.5608230000000 1.0
C      1  0.5429470000000  0.3950810000000  0.5036150000000 1.0
C      1  0.5295640000000  0.4660150000000  0.4827820000000 1.0
C      1  0.5723080000000  0.5070590000000  0.4330280000000 1.0
C      1  0.4129640000000  0.4715020000000  0.4833240000000 1.0
C      1  0.4518370000000  0.5831970000000  0.4977640000000 1.0
C      1  0.5665120000000  0.4756500000000  0.5946170000000 1.0
C      1  0.4649380000000  0.5774260000000  0.4429000000000 1.0
C      1  0.5478810000000  0.4643660000000  0.5182880000000 1.0
C      1  0.4078660000000  0.4524370000000  0.5180600000000 1.0
C      1  0.4338350000000  0.5261100000000  0.5138490000000 1.0
C      1  0.4977400000000  0.4459800000000  0.5353400000000 1.0
END
