TITL C-2778426-5645-1469 -0.00200955128036821 125000 -674.595477341968 0 0 116 (C1) n - 1
REM
REM in /home/nfs/bkarasulu/CARBON/AIRSS/Generating-Clusters/REBO/Only-C1/SD-CG/HFTN-CG
REM
REM
REM
REM
REM
REM ./C.cell (11c1c37f851c82e70ff6c80c92926a4b)
REM
REM compiler GCC version 9.2.1 20190827 (Red Hat 9.2.1-1)
REM options -cpp -mtune=generic -march=x86-64 -g -O0 -fpre-include=/usr/include/finclude/math-vector-fortran.h
REM seed -1451229129 1335729492 732685214 -2136778648 -1025983014 1525697526 -1549420267 1288337098 -441423585 -1833740232 800158747 1744222247 492048269 -1047198719 1564922408 -1794266942 -2074703963 856275463 1331363814 -1657465071 -1266760874 -1243510158 703617713 1531788189 -1444892918 1714328695 -2034646207 409503269 524812949 1980572135 183943864 -1862322429 -1793512411
REM
CELL 1.54180   50.00000   50.00000   50.00000   90.00000   90.00000   90.00000
LATT -1
SFAC C  
C      1  0.4931990000000  0.5211100000000  0.5369280000000 1.0
C      1  0.5668060000000  0.5050950000000  0.4415920000000 1.0
C      1  0.5285890000000  0.5393810000000  0.5344140000000 1.0
C      1  0.4838740000000  0.4559910000000  0.4225460000000 1.0
C      1  0.4723390000000  0.4740400000000  0.5761930000000 1.0
C      1  0.5230610000000  0.4565610000000  0.4726230000000 1.0
C      1  0.4448810000000  0.4744040000000  0.5676150000000 1.0
C      1  0.4415150000000  0.3967810000000  0.4733060000000 1.0
C      1  0.4599600000000  0.5713710000000  0.4481470000000 1.0
C      1  0.5227340000000  0.4279240000000  0.5165180000000 1.0
C      1  0.4774250000000  0.5664530000000  0.4209720000000 1.0
C      1  0.4375210000000  0.4683800000000  0.4460220000000 1.0
C      1  0.5135170000000  0.4099630000000  0.4968960000000 1.0
C      1  0.5632890000000  0.5373500000000  0.5151400000000 1.0
C      1  0.4125500000000  0.5253840000000  0.5471680000000 1.0
C      1  0.4798400000000  0.4312840000000  0.4999860000000 1.0
C      1  0.5114210000000  0.6010780000000  0.5103170000000 1.0
C      1  0.5335670000000  0.4672440000000  0.4356470000000 1.0
C      1  0.6040100000000  0.5058240000000  0.4917210000000 1.0
C      1  0.4621090000000  0.4881520000000  0.5344430000000 1.0
C      1  0.5435140000000  0.5129120000000  0.5081900000000 1.0
C      1  0.5374570000000  0.5405150000000  0.4575480000000 1.0
C      1  0.5166460000000  0.5306950000000  0.4188500000000 1.0
C      1  0.5586630000000  0.5626860000000  0.4620170000000 1.0
C      1  0.5232660000000  0.5673670000000  0.4835130000000 1.0
C      1  0.4865140000000  0.5537920000000  0.5670740000000 1.0
C      1  0.4549180000000  0.4462870000000  0.4853900000000 1.0
C      1  0.5342370000000  0.4608400000000  0.5702140000000 1.0
C      1  0.5105470000000  0.5113870000000  0.4533070000000 1.0
C      1  0.4358070000000  0.5234490000000  0.4470820000000 1.0
C      1  0.5116600000000  0.5752320000000  0.5286470000000 1.0
C      1  0.4824070000000  0.5329490000000  0.4177060000000 1.0
C      1  0.4678340000000  0.5097690000000  0.5565860000000 1.0
C      1  0.4947980000000  0.4943860000000  0.4733790000000 1.0
C      1  0.5985490000000  0.4842060000000  0.5175230000000 1.0
C      1  0.4578870000000  0.5638240000000  0.5524680000000 1.0
C      1  0.4378590000000  0.4525160000000  0.5512180000000 1.0
C      1  0.5174520000000  0.4793660000000  0.5469560000000 1.0
C      1  0.4424930000000  0.5636520000000  0.5308790000000 1.0
C      1  0.4781270000000  0.5508550000000  0.4687430000000 1.0
C      1  0.5564780000000  0.4832720000000  0.4960860000000 1.0
C      1  0.4599820000000  0.4341410000000  0.5477100000000 1.0
C      1  0.4831530000000  0.4333110000000  0.4421070000000 1.0
C      1  0.4916300000000  0.5546080000000  0.5334390000000 1.0
C      1  0.4675220000000  0.5341350000000  0.5208470000000 1.0
C      1  0.4833790000000  0.5257760000000  0.5779420000000 1.0
C      1  0.5046920000000  0.5421550000000  0.4566890000000 1.0
C      1  0.4730490000000  0.4856970000000  0.4569920000000 1.0
C      1  0.4992590000000  0.4830800000000  0.5742710000000 1.0
C      1  0.5737890000000  0.5106040000000  0.5565570000000 1.0
C      1  0.4708270000000  0.5023770000000  0.4272500000000 1.0
C      1  0.5315840000000  0.5161180000000  0.5890400000000 1.0
C      1  0.5696110000000  0.4753500000000  0.4722940000000 1.0
C      1  0.5556570000000  0.4595780000000  0.5484760000000 1.0
C      1  0.4243870000000  0.5787520000000  0.5098230000000 1.0
C      1  0.5227510000000  0.4126780000000  0.4693930000000 1.0
C      1  0.4189600000000  0.4519410000000  0.5226160000000 1.0
C      1  0.4154250000000  0.5252210000000  0.4928890000000 1.0
C      1  0.5797560000000  0.4830240000000  0.5461870000000 1.0
C      1  0.5276850000000  0.4765580000000  0.5067550000000 1.0
C      1  0.5437240000000  0.4519450000000  0.5182760000000 1.0
C      1  0.4319030000000  0.4263450000000  0.5112590000000 1.0
C      1  0.5113070000000  0.4464730000000  0.5408490000000 1.0
C      1  0.4851100000000  0.3993190000000  0.4969680000000 1.0
C      1  0.4578880000000  0.4233940000000  0.5218400000000 1.0
C      1  0.5094200000000  0.4706950000000  0.4210970000000 1.0
C      1  0.4216360000000  0.4805870000000  0.4674200000000 1.0
C      1  0.5752720000000  0.5213510000000  0.4692230000000 1.0
C      1  0.3937110000000  0.5125860000000  0.5099320000000 1.0
C      1  0.5438360000000  0.5144180000000  0.4750590000000 1.0
C      1  0.5183650000000  0.5556480000000  0.5627440000000 1.0
C      1  0.5929790000000  0.4948320000000  0.4614960000000 1.0
C      1  0.6061680000000  0.5167580000000  0.5235550000000 1.0
C      1  0.5836990000000  0.5290020000000  0.5371630000000 1.0
C      1  0.4223630000000  0.5094310000000  0.4662270000000 1.0
C      1  0.5205360000000  0.5063740000000  0.5324040000000 1.0
C      1  0.4809190000000  0.4793110000000  0.5141350000000 1.0
C      1  0.4641560000000  0.5358630000000  0.4886880000000 1.0
C      1  0.5577890000000  0.4575200000000  0.4530580000000 1.0
C      1  0.5728910000000  0.5635070000000  0.4865100000000 1.0
C      1  0.5143780000000  0.4352740000000  0.5729490000000 1.0
C      1  0.5632880000000  0.5802370000000  0.5071540000000 1.0
C      1  0.4356930000000  0.5479600000000  0.5012140000000 1.0
C      1  0.5079280000000  0.5611130000000  0.4296930000000 1.0
C      1  0.5445960000000  0.5182810000000  0.4337230000000 1.0
C      1  0.5325850000000  0.4871270000000  0.4627890000000 1.0
C      1  0.4323210000000  0.4822930000000  0.5253580000000 1.0
C      1  0.4453220000000  0.5092400000000  0.4989540000000 1.0
C      1  0.4781940000000  0.5840140000000  0.4724290000000 1.0
C      1  0.5021150000000  0.5915090000000  0.4840760000000 1.0
C      1  0.5879200000000  0.5360380000000  0.4936200000000 1.0
C      1  0.5028550000000  0.4475850000000  0.4879360000000 1.0
C      1  0.5419660000000  0.4739190000000  0.5963590000000 1.0
C      1  0.4128100000000  0.4690130000000  0.4932750000000 1.0
C      1  0.4399350000000  0.5211060000000  0.5304620000000 1.0
C      1  0.4644130000000  0.4542600000000  0.4574370000000 1.0
C      1  0.5401280000000  0.5888280000000  0.5200990000000 1.0
C      1  0.4518870000000  0.4758040000000  0.4980950000000 1.0
C      1  0.5763940000000  0.4595680000000  0.5212940000000 1.0
C      1  0.5012250000000  0.4138250000000  0.4503610000000 1.0
C      1  0.4351290000000  0.5032900000000  0.5594590000000 1.0
C      1  0.4007730000000  0.4870310000000  0.5168090000000 1.0
C      1  0.4321570000000  0.4221930000000  0.4820640000000 1.0
C      1  0.5493690000000  0.5505400000000  0.5590960000000 1.0
C      1  0.4546080000000  0.5409220000000  0.4353090000000 1.0
C      1  0.4852100000000  0.4348440000000  0.5590710000000 1.0
C      1  0.5034590000000  0.4999930000000  0.4232600000000 1.0
C      1  0.5229000000000  0.5774920000000  0.4530080000000 1.0
C      1  0.5509920000000  0.5875200000000  0.4460920000000 1.0
C      1  0.5346350000000  0.5524850000000  0.5043990000000 1.0
C      1  0.5027860000000  0.4859930000000  0.4988760000000 1.0
C      1  0.5045980000000  0.5088280000000  0.5864070000000 1.0
C      1  0.4648060000000  0.3855590000000  0.4833410000000 1.0
C      1  0.4584240000000  0.4728320000000  0.4226070000000 1.0
C      1  0.5424750000000  0.4339870000000  0.4652430000000 1.0
C      1  0.5556340000000  0.5153060000000  0.5769340000000 1.0
END
