TITL C-2778432-5617-267 -0.00181234718248574 125000 -621.072497810282 0 0 107 (C1) n - 1
REM
REM in /home/nfs/bkarasulu/CARBON/AIRSS/Generating-Clusters/REBO/Only-C1/SD-CG/HFTN-CG
REM
REM
REM
REM
REM
REM ./C.cell (11c1c37f851c82e70ff6c80c92926a4b)
REM
REM compiler GCC version 9.2.1 20190827 (Red Hat 9.2.1-1)
REM options -cpp -mtune=generic -march=x86-64 -g -O0 -fpre-include=/usr/include/finclude/math-vector-fortran.h
REM seed -1933876259 510398712 479262415 1127654085 -1693238908 1392641516 -433544174 522526617 -496476274 1823222801 -1831824592 1664907436 -1437761650 135062756 -90683763 426888411 346208155 356177209 1432665305 1683609714 -1963609759 948797904 -918385732 -873149205 -165609848 -170240946 674609512 1847196937 -130884485 191873345 1058379462 193239046 -1502207334
REM
CELL 1.54180   50.00000   50.00000   50.00000   90.00000   90.00000   90.00000
LATT -1
SFAC C  
C      1  0.5566170000000  0.5160930000000  0.5834270000000 1.0
C      1  0.5735520000000  0.5596280000000  0.5012320000000 1.0
C      1  0.5217660000000  0.4644060000000  0.5809930000000 1.0
C      1  0.6131800000000  0.4929440000000  0.5282730000000 1.0
C      1  0.4564050000000  0.4718670000000  0.5772170000000 1.0
C      1  0.4646950000000  0.5853190000000  0.4869790000000 1.0
C      1  0.5952210000000  0.4476020000000  0.5180660000000 1.0
C      1  0.5138610000000  0.4961870000000  0.4647070000000 1.0
C      1  0.4912800000000  0.4577310000000  0.4914010000000 1.0
C      1  0.4998420000000  0.4912730000000  0.4129180000000 1.0
C      1  0.5097460000000  0.5396690000000  0.4366800000000 1.0
C      1  0.4673280000000  0.4459650000000  0.4281370000000 1.0
C      1  0.4103850000000  0.4781310000000  0.5454470000000 1.0
C      1  0.5753070000000  0.4291810000000  0.5160400000000 1.0
C      1  0.4285700000000  0.4498430000000  0.5462400000000 1.0
C      1  0.4921540000000  0.5722590000000  0.4714650000000 1.0
C      1  0.5503260000000  0.5640850000000  0.5485150000000 1.0
C      1  0.5490620000000  0.5426250000000  0.5730060000000 1.0
C      1  0.4369720000000  0.5176370000000  0.4724960000000 1.0
C      1  0.5299760000000  0.4755190000000  0.4180900000000 1.0
C      1  0.5141420000000  0.4402470000000  0.4829590000000 1.0
C      1  0.4893040000000  0.4493810000000  0.5404370000000 1.0
C      1  0.4566070000000  0.4995920000000  0.5487260000000 1.0
C      1  0.5502860000000  0.4355050000000  0.5051940000000 1.0
C      1  0.4120450000000  0.5176900000000  0.5650310000000 1.0
C      1  0.4748270000000  0.4714960000000  0.4067300000000 1.0
C      1  0.4446950000000  0.5637180000000  0.5340930000000 1.0
C      1  0.5309760000000  0.5015860000000  0.5440850000000 1.0
C      1  0.4872700000000  0.5581440000000  0.5125080000000 1.0
C      1  0.5093010000000  0.4907430000000  0.5679790000000 1.0
C      1  0.5309110000000  0.5435670000000  0.4856600000000 1.0
C      1  0.5199330000000  0.4458920000000  0.4156410000000 1.0
C      1  0.5962550000000  0.4751410000000  0.5141310000000 1.0
C      1  0.4640390000000  0.5299600000000  0.4313610000000 1.0
C      1  0.4803820000000  0.5372320000000  0.4866450000000 1.0
C      1  0.4828180000000  0.5504050000000  0.4470740000000 1.0
C      1  0.5401170000000  0.4930970000000  0.5820140000000 1.0
C      1  0.3996650000000  0.5193390000000  0.5082430000000 1.0
C      1  0.5073410000000  0.4247230000000  0.5297570000000 1.0
C      1  0.4988320000000  0.5285130000000  0.5207760000000 1.0
C      1  0.4669000000000  0.5118230000000  0.4815120000000 1.0
C      1  0.5138050000000  0.5762940000000  0.5162890000000 1.0
C      1  0.4831870000000  0.4680030000000  0.5166840000000 1.0
C      1  0.5250340000000  0.4727970000000  0.4763590000000 1.0
C      1  0.4076790000000  0.4902710000000  0.5138020000000 1.0
C      1  0.4900040000000  0.5532180000000  0.3949890000000 1.0
C      1  0.4681090000000  0.5202230000000  0.5205930000000 1.0
C      1  0.4527420000000  0.4765430000000  0.4324920000000 1.0
C      1  0.6056910000000  0.5216480000000  0.5249300000000 1.0
C      1  0.5687420000000  0.5061890000000  0.4469640000000 1.0
C      1  0.5273410000000  0.4283580000000  0.4372310000000 1.0
C      1  0.5815550000000  0.5135460000000  0.5944510000000 1.0
C      1  0.4930140000000  0.4438390000000  0.4059080000000 1.0
C      1  0.5311970000000  0.5273600000000  0.3948680000000 1.0
C      1  0.5712850000000  0.5564130000000  0.5298650000000 1.0
C      1  0.5268280000000  0.5009830000000  0.3971370000000 1.0
C      1  0.4535680000000  0.4515460000000  0.4651680000000 1.0
C      1  0.4624650000000  0.5762910000000  0.4557730000000 1.0
C      1  0.4699290000000  0.4460040000000  0.5680140000000 1.0
C      1  0.4643280000000  0.4917210000000  0.5075470000000 1.0
C      1  0.4875930000000  0.5243140000000  0.5692340000000 1.0
C      1  0.4366320000000  0.5282520000000  0.4458540000000 1.0
C      1  0.5623030000000  0.5115280000000  0.5419980000000 1.0
C      1  0.4534230000000  0.4208320000000  0.5709880000000 1.0
C      1  0.4762620000000  0.4656980000000  0.4691310000000 1.0
C      1  0.4809390000000  0.4271730000000  0.4492590000000 1.0
C      1  0.4381070000000  0.5227800000000  0.5589490000000 1.0
C      1  0.5165770000000  0.5682500000000  0.4875510000000 1.0
C      1  0.5236570000000  0.4242270000000  0.5080410000000 1.0
C      1  0.3940590000000  0.5482270000000  0.4960890000000 1.0
C      1  0.4830260000000  0.4942260000000  0.4615800000000 1.0
C      1  0.5530840000000  0.5271900000000  0.4567450000000 1.0
C      1  0.4486990000000  0.4716070000000  0.5378760000000 1.0
C      1  0.5035280000000  0.4423270000000  0.5708410000000 1.0
C      1  0.5010990000000  0.5710220000000  0.5651520000000 1.0
C      1  0.4629690000000  0.5770210000000  0.5145490000000 1.0
C      1  0.4496040000000  0.5501520000000  0.5595380000000 1.0
C      1  0.5602880000000  0.5462280000000  0.4797920000000 1.0
C      1  0.5231660000000  0.5217040000000  0.5021340000000 1.0
C      1  0.4365450000000  0.4754090000000  0.5085050000000 1.0
C      1  0.4254990000000  0.5351370000000  0.4950400000000 1.0
C      1  0.4785740000000  0.4947590000000  0.5721520000000 1.0
C      1  0.4394970000000  0.3995950000000  0.5734970000000 1.0
C      1  0.5542810000000  0.4293960000000  0.4462280000000 1.0
C      1  0.5717880000000  0.4813310000000  0.4670970000000 1.0
C      1  0.4757800000000  0.5015910000000  0.4325520000000 1.0
C      1  0.4282670000000  0.4620030000000  0.4803860000000 1.0
C      1  0.4467790000000  0.5405870000000  0.5147110000000 1.0
C      1  0.5202440000000  0.5464990000000  0.5679020000000 1.0
C      1  0.4155030000000  0.4936070000000  0.4802270000000 1.0
C      1  0.4655270000000  0.5432510000000  0.4028940000000 1.0
C      1  0.5976120000000  0.5127800000000  0.4972740000000 1.0
C      1  0.5071980000000  0.4259600000000  0.4572940000000 1.0
C      1  0.5130420000000  0.4141110000000  0.5762660000000 1.0
C      1  0.5468590000000  0.5009650000000  0.5135920000000 1.0
C      1  0.4298380000000  0.4800920000000  0.5720050000000 1.0
C      1  0.5244410000000  0.5210680000000  0.4533010000000 1.0
C      1  0.5536480000000  0.4790520000000  0.4358240000000 1.0
C      1  0.4301170000000  0.4808920000000  0.4518720000000 1.0
C      1  0.5655490000000  0.4530750000000  0.4516560000000 1.0
C      1  0.5735080000000  0.4902440000000  0.4956260000000 1.0
C      1  0.4768940000000  0.5511610000000  0.5692600000000 1.0
C      1  0.5104490000000  0.5247990000000  0.5476140000000 1.0
C      1  0.5137040000000  0.5448240000000  0.4087940000000 1.0
C      1  0.5480480000000  0.4598930000000  0.4906430000000 1.0
C      1  0.5239810000000  0.5770640000000  0.5426830000000 1.0
C      1  0.5824200000000  0.5310890000000  0.5388620000000 1.0
END
