TITL C-2778430-5657-717 -0.000456106366381852 125000 -652.580596921702 0 0 113 (C1) n - 1
REM
REM in /home/nfs/bkarasulu/CARBON/AIRSS/Generating-Clusters/REBO/Only-C1/SD-CG/HFTN-CG
REM
REM
REM
REM
REM
REM ./C.cell (11c1c37f851c82e70ff6c80c92926a4b)
REM
REM compiler GCC version 9.2.1 20190827 (Red Hat 9.2.1-1)
REM options -cpp -mtune=generic -march=x86-64 -g -O0 -fpre-include=/usr/include/finclude/math-vector-fortran.h
REM seed -791599765 -414744488 -1399150885 222658866 1221052639 -380547600 -714759860 2040115826 -1619374022 -705832905 534135353 -974142055 27038750 -1128898173 -877641365 793358161 -831419265 2103873410 865299059 689710775 1161742365 404872925 1062417223 550294240 -1465234026 650263036 -557523862 -929219276 463521161 128802383 674991059 -801335916 1377246402
REM
CELL 1.54180   50.00000   50.00000   50.00000   90.00000   90.00000   90.00000
LATT -1
SFAC C  
C      1  0.4365270000000  0.5370840000000  0.5428670000000 1.0
C      1  0.4607170000000  0.5270110000000  0.4233750000000 1.0
C      1  0.4782030000000  0.4849160000000  0.4521380000000 1.0
C      1  0.4850580000000  0.5513840000000  0.5764480000000 1.0
C      1  0.4824990000000  0.5638460000000  0.5472130000000 1.0
C      1  0.4545550000000  0.4239590000000  0.5318200000000 1.0
C      1  0.5141590000000  0.5448920000000  0.5824890000000 1.0
C      1  0.4631560000000  0.4718930000000  0.4734980000000 1.0
C      1  0.4792910000000  0.4558450000000  0.4965470000000 1.0
C      1  0.5223810000000  0.4456640000000  0.5720640000000 1.0
C      1  0.5368870000000  0.5991620000000  0.5050690000000 1.0
C      1  0.4847380000000  0.4600930000000  0.5797030000000 1.0
C      1  0.5392460000000  0.4421280000000  0.4758350000000 1.0
C      1  0.4893750000000  0.5369550000000  0.4211450000000 1.0
C      1  0.4349810000000  0.4503950000000  0.5279030000000 1.0
C      1  0.4292890000000  0.4641520000000  0.4994490000000 1.0
C      1  0.4776860000000  0.4577440000000  0.4207950000000 1.0
C      1  0.4128440000000  0.5097370000000  0.4416060000000 1.0
C      1  0.4362030000000  0.4607990000000  0.4602380000000 1.0
C      1  0.5329280000000  0.5834060000000  0.5286010000000 1.0
C      1  0.5204560000000  0.5295580000000  0.4188400000000 1.0
C      1  0.4731160000000  0.5000090000000  0.5135220000000 1.0
C      1  0.4640620000000  0.4351420000000  0.4741510000000 1.0
C      1  0.4397250000000  0.4371530000000  0.5577580000000 1.0
C      1  0.5703310000000  0.5036580000000  0.5667160000000 1.0
C      1  0.5075250000000  0.5644340000000  0.4863970000000 1.0
C      1  0.4345900000000  0.4957290000000  0.4914000000000 1.0
C      1  0.5780170000000  0.5553750000000  0.4866440000000 1.0
C      1  0.5809920000000  0.5064090000000  0.5406450000000 1.0
C      1  0.4831100000000  0.5959140000000  0.4833530000000 1.0
C      1  0.4579150000000  0.5112030000000  0.4783550000000 1.0
C      1  0.4616870000000  0.5299400000000  0.5521860000000 1.0
C      1  0.5499090000000  0.5542280000000  0.5287520000000 1.0
C      1  0.5102770000000  0.4784930000000  0.4857100000000 1.0
C      1  0.5367880000000  0.4885580000000  0.5134580000000 1.0
C      1  0.4780780000000  0.5736920000000  0.4620020000000 1.0
C      1  0.5677120000000  0.5258360000000  0.5211750000000 1.0
C      1  0.5468820000000  0.4767760000000  0.4320160000000 1.0
C      1  0.4246530000000  0.4398660000000  0.4796380000000 1.0
C      1  0.4389370000000  0.4673530000000  0.5638560000000 1.0
C      1  0.5101720000000  0.4465710000000  0.4854850000000 1.0
C      1  0.4513040000000  0.5295300000000  0.4550530000000 1.0
C      1  0.4156450000000  0.5215970000000  0.5005610000000 1.0
C      1  0.5858720000000  0.4818360000000  0.5280760000000 1.0
C      1  0.5869140000000  0.5083300000000  0.4641870000000 1.0
C      1  0.5476980000000  0.5481820000000  0.4950770000000 1.0
C      1  0.4960840000000  0.4483700000000  0.5506320000000 1.0
C      1  0.5132280000000  0.5480640000000  0.5430280000000 1.0
C      1  0.5359640000000  0.5206170000000  0.5126980000000 1.0
C      1  0.4674270000000  0.5318130000000  0.5026960000000 1.0
C      1  0.5764840000000  0.5331290000000  0.4454930000000 1.0
C      1  0.5818260000000  0.5577120000000  0.4577650000000 1.0
C      1  0.5027140000000  0.5172350000000  0.5661570000000 1.0
C      1  0.4539300000000  0.4758130000000  0.5200840000000 1.0
C      1  0.5185580000000  0.5004310000000  0.4535050000000 1.0
C      1  0.5400130000000  0.4131030000000  0.4642090000000 1.0
C      1  0.4618420000000  0.5020660000000  0.5917970000000 1.0
C      1  0.5400440000000  0.5475770000000  0.5602040000000 1.0
C      1  0.5527370000000  0.4662180000000  0.4576540000000 1.0
C      1  0.4907640000000  0.5048310000000  0.4846250000000 1.0
C      1  0.4887740000000  0.5258580000000  0.5369140000000 1.0
C      1  0.5926630000000  0.4691260000000  0.5015410000000 1.0
C      1  0.4505560000000  0.4587220000000  0.4295290000000 1.0
C      1  0.5163560000000  0.5951590000000  0.4877920000000 1.0
C      1  0.4707500000000  0.6204990000000  0.4790470000000 1.0
C      1  0.4314530000000  0.5439540000000  0.5151970000000 1.0
C      1  0.4622830000000  0.5577820000000  0.5204840000000 1.0
C      1  0.5927260000000  0.5293460000000  0.4904990000000 1.0
C      1  0.5047590000000  0.5857780000000  0.5343750000000 1.0
C      1  0.4836720000000  0.4642960000000  0.5279640000000 1.0
C      1  0.5071920000000  0.5014410000000  0.4210430000000 1.0
C      1  0.5395840000000  0.4945530000000  0.4793660000000 1.0
C      1  0.4605420000000  0.4970570000000  0.4338130000000 1.0
C      1  0.4273490000000  0.5336830000000  0.4242780000000 1.0
C      1  0.5199730000000  0.4176580000000  0.5112860000000 1.0
C      1  0.5401220000000  0.4065810000000  0.4940710000000 1.0
C      1  0.4817710000000  0.5834790000000  0.5128370000000 1.0
C      1  0.5039590000000  0.5442030000000  0.5122240000000 1.0
C      1  0.5220310000000  0.4340670000000  0.5339170000000 1.0
C      1  0.5573660000000  0.4668470000000  0.5198850000000 1.0
C      1  0.5809570000000  0.4768990000000  0.4709850000000 1.0
C      1  0.5042720000000  0.4714640000000  0.4470200000000 1.0
C      1  0.5503000000000  0.4554340000000  0.5684490000000 1.0
C      1  0.5042350000000  0.4866660000000  0.5174430000000 1.0
C      1  0.4243160000000  0.5448180000000  0.4556540000000 1.0
C      1  0.5326410000000  0.5417550000000  0.4652560000000 1.0
C      1  0.5077590000000  0.5597640000000  0.4522970000000 1.0
C      1  0.4059300000000  0.5251340000000  0.4709970000000 1.0
C      1  0.5469270000000  0.5008060000000  0.4249520000000 1.0
C      1  0.4927120000000  0.4183760000000  0.4960130000000 1.0
C      1  0.5669860000000  0.5077920000000  0.4918280000000 1.0
C      1  0.4608100000000  0.4760330000000  0.5801520000000 1.0
C      1  0.5464390000000  0.4475900000000  0.5401000000000 1.0
C      1  0.4817960000000  0.5431280000000  0.4768300000000 1.0
C      1  0.4193050000000  0.4955470000000  0.5221080000000 1.0
C      1  0.4638920000000  0.4135990000000  0.5077430000000 1.0
C      1  0.5156320000000  0.5254050000000  0.4879970000000 1.0
C      1  0.4245610000000  0.4845510000000  0.5457810000000 1.0
C      1  0.4419880000000  0.4160160000000  0.4857490000000 1.0
C      1  0.4983500000000  0.5265940000000  0.4520040000000 1.0
C      1  0.4305010000000  0.4853100000000  0.4378850000000 1.0
C      1  0.4660170000000  0.5280140000000  0.5817670000000 1.0
C      1  0.4895570000000  0.4212290000000  0.4622010000000 1.0
C      1  0.5492560000000  0.5206810000000  0.5738180000000 1.0
C      1  0.5464170000000  0.5302450000000  0.4389180000000 1.0
C      1  0.4998170000000  0.4408350000000  0.4377370000000 1.0
C      1  0.5172600000000  0.4129310000000  0.4464070000000 1.0
C      1  0.5216790000000  0.4855440000000  0.6000980000000 1.0
C      1  0.4898330000000  0.4818990000000  0.4112270000000 1.0
C      1  0.5260140000000  0.5068160000000  0.5824720000000 1.0
C      1  0.5649230000000  0.4533120000000  0.4913480000000 1.0
C      1  0.5672900000000  0.4766220000000  0.5757940000000 1.0
C      1  0.5030450000000  0.4656810000000  0.6005450000000 1.0
END
