TITL C-2778432-5617-1351 0.000432516315470368 125000 -586.515455279891 0 0 101 (C1) n - 1
REM
REM in /home/nfs/bkarasulu/CARBON/AIRSS/Generating-Clusters/REBO/Only-C1/SD-CG/HFTN-CG
REM
REM
REM
REM
REM
REM ./C.cell (11c1c37f851c82e70ff6c80c92926a4b)
REM
REM compiler GCC version 9.2.1 20190827 (Red Hat 9.2.1-1)
REM options -cpp -mtune=generic -march=x86-64 -g -O0 -fpre-include=/usr/include/finclude/math-vector-fortran.h
REM seed 1992731241 -414449771 -1306515654 1830265023 -1624895392 -745985765 -1683654780 -852651235 -1282032232 -622021269 1429559811 -69927394 2057583894 1633198547 330075752 -593594024 2043158724 -1183712422 -1931056358 -1067907318 175387918 -596829708 -1227408773 -1006794863 -934660222 2060963549 563546194 -319226450 -965157493 1283029190 -1594147528 141867315 -1410129077
REM
CELL 1.54180   50.00000   50.00000   50.00000   90.00000   90.00000   90.00000
LATT -1
SFAC C  
C      1  0.4926180000000  0.5280920000000  0.4290620000000 1.0
C      1  0.4280320000000  0.5435630000000  0.5044640000000 1.0
C      1  0.5584460000000  0.5544230000000  0.5129120000000 1.0
C      1  0.5400940000000  0.5331530000000  0.4265000000000 1.0
C      1  0.5528020000000  0.5084150000000  0.5801340000000 1.0
C      1  0.5126180000000  0.4413400000000  0.5516700000000 1.0
C      1  0.4928670000000  0.5494280000000  0.4898600000000 1.0
C      1  0.5695190000000  0.5108810000000  0.4944170000000 1.0
C      1  0.5038700000000  0.5215630000000  0.5044970000000 1.0
C      1  0.4201980000000  0.4508340000000  0.5502210000000 1.0
C      1  0.5132900000000  0.5523440000000  0.4360810000000 1.0
C      1  0.5326380000000  0.5205810000000  0.4636720000000 1.0
C      1  0.5723100000000  0.4604750000000  0.4638530000000 1.0
C      1  0.4297080000000  0.4805750000000  0.5387010000000 1.0
C      1  0.4564540000000  0.4919210000000  0.4262170000000 1.0
C      1  0.4782970000000  0.5070170000000  0.5955660000000 1.0
C      1  0.4859380000000  0.4692810000000  0.5418580000000 1.0
C      1  0.4551270000000  0.5293940000000  0.4650780000000 1.0
C      1  0.4715710000000  0.4870880000000  0.4487200000000 1.0
C      1  0.4671410000000  0.5357430000000  0.5074430000000 1.0
C      1  0.5304980000000  0.5543090000000  0.5821290000000 1.0
C      1  0.4683650000000  0.5330810000000  0.5774260000000 1.0
C      1  0.5384410000000  0.4812760000000  0.4622340000000 1.0
C      1  0.5067330000000  0.4405920000000  0.5220590000000 1.0
C      1  0.5444220000000  0.4358610000000  0.4940090000000 1.0
C      1  0.4333910000000  0.5124470000000  0.5432310000000 1.0
C      1  0.4807690000000  0.4384520000000  0.5522410000000 1.0
C      1  0.5289050000000  0.5743220000000  0.4801790000000 1.0
C      1  0.4836120000000  0.4261100000000  0.4815840000000 1.0
C      1  0.4108350000000  0.4933920000000  0.4768300000000 1.0
C      1  0.4659640000000  0.5753700000000  0.4761420000000 1.0
C      1  0.4916420000000  0.4803210000000  0.5129670000000 1.0
C      1  0.4959950000000  0.4526010000000  0.4327630000000 1.0
C      1  0.4603730000000  0.4717420000000  0.4747050000000 1.0
C      1  0.5665880000000  0.5387400000000  0.4900050000000 1.0
C      1  0.4863040000000  0.5558430000000  0.4568660000000 1.0
C      1  0.5882540000000  0.4929150000000  0.4802180000000 1.0
C      1  0.5259850000000  0.5424150000000  0.5514260000000 1.0
C      1  0.4993700000000  0.5609200000000  0.5742280000000 1.0
C      1  0.5172730000000  0.4375490000000  0.4467700000000 1.0
C      1  0.5461770000000  0.4882130000000  0.4925190000000 1.0
C      1  0.4403300000000  0.5160420000000  0.4304000000000 1.0
C      1  0.5063160000000  0.4767830000000  0.4212980000000 1.0
C      1  0.5210580000000  0.4534200000000  0.5017640000000 1.0
C      1  0.6016010000000  0.4660010000000  0.5253200000000 1.0
C      1  0.5343930000000  0.4620960000000  0.5607420000000 1.0
C      1  0.4463970000000  0.4902170000000  0.4944320000000 1.0
C      1  0.4119430000000  0.4509400000000  0.5187060000000 1.0
C      1  0.5113680000000  0.4740670000000  0.4788430000000 1.0
C      1  0.5598820000000  0.4613060000000  0.5040080000000 1.0
C      1  0.4452720000000  0.5493140000000  0.5603370000000 1.0
C      1  0.4839110000000  0.4584200000000  0.4880380000000 1.0
C      1  0.5452160000000  0.5645540000000  0.4355370000000 1.0
C      1  0.5898760000000  0.4635500000000  0.4935670000000 1.0
C      1  0.5549820000000  0.4662920000000  0.5340030000000 1.0
C      1  0.5098860000000  0.4187020000000  0.4670320000000 1.0
C      1  0.5836460000000  0.4703420000000  0.5463430000000 1.0
C      1  0.5336420000000  0.5495440000000  0.4701760000000 1.0
C      1  0.5600130000000  0.5127870000000  0.4450740000000 1.0
C      1  0.5166700000000  0.5105200000000  0.5522500000000 1.0
C      1  0.4182560000000  0.4793370000000  0.5065510000000 1.0
C      1  0.5213760000000  0.4950540000000  0.5109480000000 1.0
C      1  0.5328780000000  0.5246480000000  0.5930760000000 1.0
C      1  0.5434970000000  0.4501310000000  0.4528050000000 1.0
C      1  0.4805930000000  0.4825700000000  0.5789170000000 1.0
C      1  0.4188680000000  0.4739520000000  0.4501170000000 1.0
C      1  0.4687850000000  0.5038700000000  0.5111010000000 1.0
C      1  0.5079660000000  0.5068080000000  0.4752360000000 1.0
C      1  0.4841380000000  0.5133650000000  0.4574430000000 1.0
C      1  0.4938950000000  0.5251620000000  0.5351520000000 1.0
C      1  0.4965910000000  0.5570800000000  0.5418650000000 1.0
C      1  0.5617190000000  0.4798750000000  0.5705500000000 1.0
C      1  0.4389920000000  0.4358510000000  0.5269230000000 1.0
C      1  0.4486430000000  0.5538410000000  0.5294960000000 1.0
C      1  0.4449860000000  0.5555970000000  0.4798710000000 1.0
C      1  0.5413790000000  0.5769890000000  0.5084120000000 1.0
C      1  0.4633120000000  0.4237350000000  0.5330630000000 1.0
C      1  0.5315020000000  0.5067430000000  0.4138280000000 1.0
C      1  0.5635210000000  0.5447550000000  0.4566640000000 1.0
C      1  0.4164320000000  0.5303700000000  0.5310120000000 1.0
C      1  0.4846060000000  0.4258660000000  0.5128130000000 1.0
C      1  0.5773040000000  0.4900260000000  0.4523670000000 1.0
C      1  0.4635280000000  0.5399280000000  0.4359550000000 1.0
C      1  0.5076450000000  0.5765540000000  0.5043250000000 1.0
C      1  0.4329630000000  0.5179600000000  0.4836860000000 1.0
C      1  0.4672060000000  0.4495560000000  0.4355980000000 1.0
C      1  0.5543130000000  0.5412040000000  0.5371110000000 1.0
C      1  0.4747080000000  0.5707460000000  0.5261460000000 1.0
C      1  0.4604520000000  0.4156070000000  0.4699050000000 1.0
C      1  0.4183790000000  0.5064320000000  0.4460230000000 1.0
C      1  0.4659950000000  0.5174530000000  0.5485680000000 1.0
C      1  0.4432860000000  0.4591920000000  0.4507200000000 1.0
C      1  0.4775560000000  0.5849680000000  0.4999100000000 1.0
C      1  0.4602760000000  0.4848160000000  0.5516790000000 1.0
C      1  0.5090190000000  0.4810810000000  0.5612010000000 1.0
C      1  0.5014490000000  0.5064050000000  0.4095160000000 1.0
C      1  0.4995440000000  0.5317690000000  0.5918790000000 1.0
C      1  0.5332960000000  0.4125080000000  0.4825250000000 1.0
C      1  0.5356770000000  0.4829020000000  0.4313210000000 1.0
C      1  0.5562930000000  0.5149430000000  0.5505290000000 1.0
C      1  0.5393420000000  0.4928740000000  0.5358660000000 1.0
END
