TITL C-2778422-5617-1207 0.00407022156940634 125000 -709.296108750093 0 0 122 (C1) n - 1
REM
REM in /home/nfs/bkarasulu/CARBON/AIRSS/Generating-Clusters/REBO/Only-C1/SD-CG/HFTN-CG
REM
REM
REM
REM
REM
REM ./C.cell (11c1c37f851c82e70ff6c80c92926a4b)
REM
REM compiler GCC version 9.2.1 20190827 (Red Hat 9.2.1-1)
REM options -cpp -mtune=generic -march=x86-64 -g -O0 -fpre-include=/usr/include/finclude/math-vector-fortran.h
REM seed 892900826 662096034 2008844307 1168694566 -1958684366 392588856 1827967623 1918500458 -1280970976 574036277 -1795689271 -667065307 -1454541808 -194816794 -139898425 -1893836879 -1673955632 -533311311 1345284003 -1768446714 564031653 987937341 -2108878995 -1116530047 1987509171 -874285647 1426615813 1195089698 1967722128 -1595477006 -957402318 333521494 -41811992
REM
CELL 1.54180   50.00000   50.00000   50.00000   90.00000   90.00000   90.00000
LATT -1
SFAC C  
C      1  0.4494390000000  0.5081720000000  0.4675720000000 1.0
C      1  0.4280630000000  0.4914680000000  0.4470150000000 1.0
C      1  0.4399480000000  0.5128550000000  0.5101340000000 1.0
C      1  0.5440630000000  0.4285590000000  0.4513120000000 1.0
C      1  0.5171960000000  0.5135100000000  0.6001980000000 1.0
C      1  0.4488930000000  0.4563830000000  0.4901220000000 1.0
C      1  0.5032040000000  0.4107660000000  0.4729890000000 1.0
C      1  0.5262990000000  0.4250590000000  0.5418410000000 1.0
C      1  0.4434610000000  0.4172250000000  0.4959330000000 1.0
C      1  0.4733570000000  0.5464620000000  0.5821220000000 1.0
C      1  0.4871410000000  0.4379220000000  0.4370770000000 1.0
C      1  0.5132990000000  0.4805100000000  0.4863050000000 1.0
C      1  0.4835380000000  0.5916390000000  0.5365110000000 1.0
C      1  0.5781480000000  0.4396770000000  0.5179110000000 1.0
C      1  0.4846250000000  0.5334780000000  0.3939230000000 1.0
C      1  0.5545050000000  0.4723230000000  0.5507830000000 1.0
C      1  0.5843770000000  0.4631040000000  0.4709180000000 1.0
C      1  0.4903360000000  0.4580730000000  0.4176440000000 1.0
C      1  0.4714170000000  0.4456850000000  0.5298410000000 1.0
C      1  0.4955550000000  0.5339020000000  0.5967430000000 1.0
C      1  0.5009270000000  0.5609820000000  0.4475360000000 1.0
C      1  0.6080970000000  0.5357530000000  0.4995660000000 1.0
C      1  0.5862840000000  0.4474950000000  0.4932550000000 1.0
C      1  0.5278360000000  0.5821660000000  0.5155560000000 1.0
C      1  0.5348570000000  0.5433580000000  0.5213480000000 1.0
C      1  0.5285290000000  0.4515100000000  0.5256960000000 1.0
C      1  0.4800470000000  0.5505430000000  0.4717570000000 1.0
C      1  0.4690880000000  0.4973970000000  0.4878050000000 1.0
C      1  0.4958440000000  0.6060900000000  0.5175330000000 1.0
C      1  0.5517100000000  0.5625090000000  0.4757720000000 1.0
C      1  0.5493670000000  0.5113450000000  0.5026890000000 1.0
C      1  0.5922470000000  0.4943740000000  0.4742130000000 1.0
C      1  0.4214620000000  0.5191510000000  0.4292280000000 1.0
C      1  0.5048660000000  0.5573930000000  0.5153190000000 1.0
C      1  0.5190600000000  0.3928750000000  0.5336990000000 1.0
C      1  0.5914420000000  0.4987550000000  0.5261610000000 1.0
C      1  0.5559530000000  0.5457370000000  0.5488020000000 1.0
C      1  0.5393490000000  0.4447910000000  0.5635990000000 1.0
C      1  0.4210170000000  0.4493720000000  0.4887280000000 1.0
C      1  0.4452980000000  0.5565360000000  0.5195900000000 1.0
C      1  0.4150860000000  0.5104320000000  0.5312420000000 1.0
C      1  0.4513820000000  0.4813010000000  0.5087190000000 1.0
C      1  0.4414170000000  0.4729210000000  0.5619460000000 1.0
C      1  0.4369260000000  0.5682490000000  0.4928340000000 1.0
C      1  0.6079170000000  0.5039010000000  0.5018920000000 1.0
C      1  0.4784700000000  0.4292930000000  0.5655080000000 1.0
C      1  0.4924180000000  0.4414230000000  0.4964290000000 1.0
C      1  0.5632390000000  0.5196660000000  0.5604240000000 1.0
C      1  0.4788950000000  0.4162580000000  0.4575480000000 1.0
C      1  0.5745420000000  0.4947680000000  0.5502300000000 1.0
C      1  0.5274250000000  0.5193370000000  0.5429590000000 1.0
C      1  0.5645830000000  0.4428510000000  0.5404820000000 1.0
C      1  0.5303570000000  0.4525370000000  0.4959790000000 1.0
C      1  0.4485420000000  0.4440970000000  0.4455620000000 1.0
C      1  0.4651200000000  0.5326470000000  0.5538960000000 1.0
C      1  0.4341730000000  0.5413120000000  0.4516670000000 1.0
C      1  0.5239340000000  0.5024300000000  0.5174350000000 1.0
C      1  0.4191710000000  0.5411880000000  0.5291010000000 1.0
C      1  0.4733590000000  0.5614190000000  0.5275460000000 1.0
C      1  0.5717990000000  0.5217860000000  0.5210060000000 1.0
C      1  0.5383820000000  0.5367810000000  0.4878570000000 1.0
C      1  0.5614530000000  0.4579090000000  0.4526900000000 1.0
C      1  0.4025450000000  0.4846010000000  0.4643790000000 1.0
C      1  0.5951860000000  0.5282330000000  0.4730550000000 1.0
C      1  0.4545310000000  0.4892890000000  0.5863570000000 1.0
C      1  0.5446170000000  0.5178280000000  0.4370260000000 1.0
C      1  0.4581640000000  0.5884360000000  0.4516290000000 1.0
C      1  0.5207110000000  0.5797220000000  0.5448160000000 1.0
C      1  0.5138980000000  0.5220860000000  0.4028560000000 1.0
C      1  0.5196240000000  0.4727800000000  0.4187010000000 1.0
C      1  0.4517590000000  0.4443430000000  0.5538440000000 1.0
C      1  0.4659730000000  0.4527040000000  0.4688670000000 1.0
C      1  0.5093590000000  0.5000240000000  0.4614120000000 1.0
C      1  0.4342820000000  0.4328100000000  0.5239560000000 1.0
C      1  0.5274060000000  0.5557710000000  0.5585250000000 1.0
C      1  0.4751790000000  0.5676990000000  0.5592360000000 1.0
C      1  0.5872570000000  0.5470340000000  0.5178180000000 1.0
C      1  0.4972000000000  0.4933840000000  0.4343810000000 1.0
C      1  0.4026790000000  0.4715590000000  0.4897810000000 1.0
C      1  0.5400810000000  0.4521070000000  0.4270690000000 1.0
C      1  0.4506930000000  0.5625710000000  0.4672900000000 1.0
C      1  0.5298720000000  0.5744180000000  0.4586820000000 1.0
C      1  0.4444850000000  0.4698540000000  0.4319920000000 1.0
C      1  0.5018960000000  0.4129880000000  0.5125700000000 1.0
C      1  0.4871240000000  0.4666360000000  0.5188560000000 1.0
C      1  0.4945090000000  0.4136210000000  0.5461830000000 1.0
C      1  0.3998900000000  0.4846930000000  0.5148490000000 1.0
C      1  0.5374400000000  0.5074310000000  0.5736110000000 1.0
C      1  0.5307710000000  0.5042030000000  0.4156230000000 1.0
C      1  0.5600230000000  0.4923130000000  0.4813370000000 1.0
C      1  0.4547530000000  0.5191240000000  0.4361660000000 1.0
C      1  0.5526410000000  0.5783690000000  0.5025060000000 1.0
C      1  0.4300630000000  0.5300210000000  0.4833310000000 1.0
C      1  0.5757790000000  0.5453040000000  0.4608640000000 1.0
C      1  0.5058990000000  0.5301540000000  0.5656880000000 1.0
C      1  0.4849710000000  0.5909330000000  0.4484330000000 1.0
C      1  0.4685290000000  0.5203300000000  0.5223370000000 1.0
C      1  0.4616650000000  0.5001020000000  0.5563070000000 1.0
C      1  0.4144420000000  0.4806360000000  0.5456380000000 1.0
C      1  0.4989460000000  0.5456010000000  0.4228950000000 1.0
C      1  0.5230690000000  0.4798280000000  0.5404530000000 1.0
C      1  0.4975850000000  0.5061830000000  0.4988680000000 1.0
C      1  0.4688820000000  0.4790000000000  0.4206570000000 1.0
C      1  0.4699610000000  0.4204070000000  0.5111200000000 1.0
C      1  0.5011740000000  0.4964150000000  0.5610710000000 1.0
C      1  0.4984940000000  0.4498710000000  0.4661900000000 1.0
C      1  0.5758110000000  0.5726810000000  0.5175640000000 1.0
C      1  0.5177010000000  0.4826420000000  0.5861600000000 1.0
C      1  0.5054810000000  0.6062230000000  0.4920680000000 1.0
C      1  0.5185560000000  0.4535340000000  0.5838990000000 1.0
C      1  0.4311360000000  0.4623020000000  0.5250920000000 1.0
C      1  0.5091580000000  0.5953340000000  0.4661440000000 1.0
C      1  0.4111930000000  0.5509710000000  0.5001740000000 1.0
C      1  0.4868930000000  0.5370750000000  0.4990420000000 1.0
C      1  0.5297490000000  0.5196520000000  0.4612580000000 1.0
C      1  0.4801410000000  0.5172460000000  0.4236220000000 1.0
C      1  0.4483570000000  0.4171060000000  0.4667670000000 1.0
C      1  0.4944410000000  0.4405240000000  0.5847500000000 1.0
C      1  0.5297090000000  0.4633520000000  0.4636540000000 1.0
C      1  0.5666840000000  0.5352360000000  0.4358440000000 1.0
C      1  0.5283750000000  0.4252320000000  0.4755320000000 1.0
C      1  0.4838740000000  0.4920710000000  0.5335060000000 1.0
END
