TITL C-2778435-5768-623 0.00120880135585047 125000 -828.359208718819 0 0 143 (C1) n - 1
REM
REM in /home/nfs/bkarasulu/CARBON/AIRSS/Generating-Clusters/REBO/Only-C1/SD-CG/HFTN-CG
REM
REM
REM
REM
REM
REM ./C.cell (11c1c37f851c82e70ff6c80c92926a4b)
REM
REM compiler GCC version 9.2.1 20190827 (Red Hat 9.2.1-1)
REM options -cpp -mtune=generic -march=x86-64 -g -O0 -fpre-include=/usr/include/finclude/math-vector-fortran.h
REM seed -573663158 -2036770416 -1390969878 1086842561 -1853182638 1007877724 1202494568 77609184 -597599641 -2100366962 -201697816 114632577 1126465230 375604645 -1399437565 -678028919 -804150281 70083212 -1267265160 497684219 1137234493 73013883 1173332087 -1616542339 724993732 1083852 107129817 285967337 1440275618 163716748 1780227582 611193676 824364284
REM
CELL 1.54180   50.00000   50.00000   50.00000   90.00000   90.00000   90.00000
LATT -1
SFAC C  
C      1  0.4455970000000  0.5117270000000  0.3883220000000 1.0
C      1  0.6056150000000  0.5213730000000  0.5359870000000 1.0
C      1  0.5139020000000  0.5085150000000  0.4265580000000 1.0
C      1  0.4625620000000  0.5543710000000  0.5576170000000 1.0
C      1  0.5331680000000  0.5324480000000  0.5395190000000 1.0
C      1  0.4855000000000  0.4442800000000  0.5955670000000 1.0
C      1  0.4774910000000  0.4905330000000  0.4612760000000 1.0
C      1  0.5141280000000  0.5682280000000  0.5762440000000 1.0
C      1  0.4077120000000  0.5348560000000  0.4490890000000 1.0
C      1  0.4303370000000  0.4659440000000  0.4288230000000 1.0
C      1  0.5509880000000  0.5419750000000  0.5778680000000 1.0
C      1  0.5279120000000  0.4534950000000  0.5627170000000 1.0
C      1  0.4938640000000  0.4749380000000  0.5946760000000 1.0
C      1  0.5235410000000  0.4767100000000  0.5821470000000 1.0
C      1  0.5034660000000  0.4453100000000  0.5470190000000 1.0
C      1  0.5771600000000  0.4924670000000  0.5728040000000 1.0
C      1  0.4831380000000  0.5117500000000  0.4872660000000 1.0
C      1  0.5637230000000  0.5119730000000  0.4314640000000 1.0
C      1  0.5481690000000  0.4590880000000  0.5450930000000 1.0
C      1  0.5201800000000  0.5291670000000  0.5808450000000 1.0
C      1  0.4824070000000  0.4665370000000  0.5566710000000 1.0
C      1  0.5636680000000  0.4755310000000  0.4912060000000 1.0
C      1  0.4734390000000  0.4343560000000  0.5232320000000 1.0
C      1  0.4964590000000  0.4823290000000  0.4376490000000 1.0
C      1  0.4683430000000  0.5069360000000  0.4037120000000 1.0
C      1  0.4757400000000  0.5595180000000  0.4209980000000 1.0
C      1  0.4315740000000  0.4395780000000  0.5052150000000 1.0
C      1  0.5102670000000  0.4406090000000  0.4797640000000 1.0
C      1  0.5140370000000  0.4154830000000  0.4581570000000 1.0
C      1  0.5615740000000  0.4234610000000  0.5330510000000 1.0
C      1  0.4564400000000  0.5731640000000  0.5328510000000 1.0
C      1  0.5042280000000  0.4900130000000  0.3994270000000 1.0
C      1  0.5310160000000  0.4642670000000  0.4716280000000 1.0
C      1  0.4435210000000  0.5765630000000  0.4542720000000 1.0
C      1  0.5154220000000  0.4094660000000  0.5042260000000 1.0
C      1  0.4433730000000  0.4678940000000  0.5311890000000 1.0
C      1  0.4069600000000  0.5101020000000  0.4376010000000 1.0
C      1  0.4394590000000  0.5319430000000  0.5639290000000 1.0
C      1  0.5526720000000  0.5368400000000  0.4216610000000 1.0
C      1  0.5409110000000  0.4536640000000  0.5015530000000 1.0
C      1  0.4951220000000  0.5217290000000  0.3939660000000 1.0
C      1  0.4776270000000  0.5701190000000  0.4526220000000 1.0
C      1  0.4760580000000  0.4761430000000  0.4113450000000 1.0
C      1  0.4864540000000  0.4279490000000  0.5693910000000 1.0
C      1  0.4036360000000  0.5182300000000  0.5233180000000 1.0
C      1  0.5166060000000  0.4933640000000  0.4765710000000 1.0
C      1  0.5313240000000  0.5642590000000  0.5485890000000 1.0
C      1  0.6108900000000  0.4863150000000  0.4985970000000 1.0
C      1  0.5231770000000  0.5598880000000  0.4632440000000 1.0
C      1  0.4544070000000  0.4675330000000  0.4681750000000 1.0
C      1  0.4704210000000  0.4935990000000  0.5938250000000 1.0
C      1  0.4642520000000  0.5807200000000  0.4809150000000 1.0
C      1  0.5766750000000  0.4487030000000  0.5414470000000 1.0
C      1  0.4801360000000  0.4528090000000  0.4740970000000 1.0
C      1  0.4482350000000  0.5509940000000  0.4341990000000 1.0
C      1  0.4965500000000  0.5442540000000  0.4618370000000 1.0
C      1  0.5795470000000  0.4828210000000  0.5404600000000 1.0
C      1  0.5156320000000  0.5044910000000  0.5307210000000 1.0
C      1  0.5979870000000  0.5461500000000  0.5140550000000 1.0
C      1  0.4541080000000  0.5094770000000  0.4996710000000 1.0
C      1  0.5467450000000  0.5401590000000  0.4715770000000 1.0
C      1  0.4274830000000  0.4499700000000  0.4730860000000 1.0
C      1  0.5625790000000  0.4265510000000  0.4797080000000 1.0
C      1  0.4617390000000  0.4579090000000  0.5782010000000 1.0
C      1  0.5035160000000  0.4466020000000  0.5129100000000 1.0
C      1  0.5563590000000  0.5562710000000  0.4421090000000 1.0
C      1  0.5249420000000  0.5340210000000  0.4123270000000 1.0
C      1  0.5429580000000  0.5298090000000  0.5002370000000 1.0
C      1  0.4963420000000  0.4747670000000  0.4943690000000 1.0
C      1  0.5712250000000  0.4556930000000  0.4360610000000 1.0
C      1  0.5553840000000  0.4849670000000  0.4596060000000 1.0
C      1  0.5594570000000  0.5438990000000  0.5243100000000 1.0
C      1  0.5252510000000  0.5021570000000  0.5635240000000 1.0
C      1  0.4761720000000  0.5414740000000  0.5143640000000 1.0
C      1  0.4424410000000  0.4803930000000  0.5928030000000 1.0
C      1  0.4802250000000  0.4385410000000  0.4240910000000 1.0
C      1  0.5392510000000  0.4804630000000  0.5224280000000 1.0
C      1  0.5592110000000  0.5771500000000  0.4637290000000 1.0
C      1  0.5386720000000  0.4275600000000  0.5162420000000 1.0
C      1  0.4405730000000  0.5571100000000  0.4888080000000 1.0
C      1  0.4805870000000  0.4923000000000  0.5451640000000 1.0
C      1  0.4203460000000  0.5536720000000  0.4630760000000 1.0
C      1  0.5880380000000  0.5178460000000  0.5578060000000 1.0
C      1  0.5535280000000  0.4914950000000  0.5895270000000 1.0
C      1  0.4831380000000  0.5721060000000  0.5031570000000 1.0
C      1  0.5836760000000  0.5338770000000  0.4854830000000 1.0
C      1  0.4972430000000  0.5504910000000  0.4064060000000 1.0
C      1  0.4025180000000  0.4730950000000  0.4723590000000 1.0
C      1  0.4144980000000  0.4696860000000  0.5044580000000 1.0
C      1  0.5320780000000  0.4754070000000  0.4092960000000 1.0
C      1  0.5309890000000  0.5906730000000  0.4688350000000 1.0
C      1  0.4346120000000  0.5585330000000  0.5190170000000 1.0
C      1  0.5703810000000  0.5646270000000  0.4920410000000 1.0
C      1  0.4564600000000  0.4142030000000  0.4654460000000 1.0
C      1  0.5462210000000  0.5178590000000  0.5984170000000 1.0
C      1  0.5875990000000  0.4710710000000  0.5102540000000 1.0
C      1  0.4916110000000  0.5678230000000  0.5536680000000 1.0
C      1  0.6061260000000  0.5150630000000  0.5030260000000 1.0
C      1  0.5701410000000  0.4358500000000  0.4539080000000 1.0
C      1  0.5091140000000  0.4563590000000  0.4214190000000 1.0
C      1  0.4640820000000  0.4235260000000  0.5506900000000 1.0
C      1  0.3976040000000  0.4844000000000  0.5567570000000 1.0
C      1  0.4682880000000  0.4642120000000  0.5104090000000 1.0
C      1  0.4045400000000  0.5066890000000  0.4773050000000 1.0
C      1  0.4041230000000  0.4897510000000  0.5296800000000 1.0
C      1  0.4860540000000  0.5899170000000  0.5299170000000 1.0
C      1  0.4357620000000  0.4566160000000  0.5616400000000 1.0
C      1  0.4196630000000  0.5387210000000  0.5365810000000 1.0
C      1  0.4884900000000  0.5162760000000  0.5575430000000 1.0
C      1  0.4465130000000  0.5257350000000  0.4462400000000 1.0
C      1  0.5375010000000  0.4115240000000  0.4800300000000 1.0
C      1  0.5412090000000  0.4996030000000  0.4945700000000 1.0
C      1  0.4546140000000  0.4174000000000  0.4929840000000 1.0
C      1  0.5380340000000  0.5740250000000  0.4973510000000 1.0
C      1  0.5085680000000  0.5151980000000  0.4567980000000 1.0
C      1  0.4117670000000  0.4825740000000  0.4424950000000 1.0
C      1  0.5531610000000  0.5045260000000  0.5435330000000 1.0
C      1  0.4696360000000  0.5413790000000  0.4815270000000 1.0
C      1  0.4677470000000  0.5230130000000  0.5814130000000 1.0
C      1  0.4160270000000  0.4761390000000  0.5761250000000 1.0
C      1  0.6316470000000  0.4755510000000  0.4866460000000 1.0
C      1  0.5110950000000  0.4240330000000  0.4274040000000 1.0
C      1  0.5606210000000  0.5768930000000  0.5468520000000 1.0
C      1  0.5558310000000  0.4815650000000  0.4258810000000 1.0
C      1  0.4572700000000  0.5272990000000  0.5353370000000 1.0
C      1  0.4344340000000  0.5165110000000  0.4725240000000 1.0
C      1  0.4359260000000  0.4350720000000  0.5369150000000 1.0
C      1  0.4547460000000  0.4968990000000  0.5285630000000 1.0
C      1  0.4862010000000  0.4117300000000  0.5042900000000 1.0
C      1  0.3927020000000  0.5213480000000  0.4971380000000 1.0
C      1  0.4649610000000  0.5067540000000  0.4359620000000 1.0
C      1  0.5783140000000  0.4396920000000  0.5006510000000 1.0
C      1  0.5093510000000  0.5220340000000  0.5034760000000 1.0
C      1  0.4930040000000  0.5434820000000  0.5862420000000 1.0
C      1  0.5169100000000  0.5768530000000  0.5240450000000 1.0
C      1  0.5795450000000  0.5708620000000  0.5238530000000 1.0
C      1  0.4372030000000  0.4859160000000  0.4868350000000 1.0
C      1  0.4824240000000  0.4275030000000  0.4542510000000 1.0
C      1  0.5685800000000  0.5389640000000  0.5566090000000 1.0
C      1  0.5679050000000  0.5163940000000  0.4631440000000 1.0
C      1  0.4536460000000  0.4563250000000  0.4194270000000 1.0
C      1  0.5113630000000  0.5539310000000  0.5007140000000 1.0
C      1  0.4950040000000  0.5387160000000  0.5404730000000 1.0
END
