TITL C-2778430-5657-1301 -0.000652836874439388 125000 -253.141335400902 0 0 43 (C1) n - 1
REM
REM in /home/nfs/bkarasulu/CARBON/AIRSS/Generating-Clusters/REBO/Only-C1/SD-CG/HFTN-CG
REM
REM
REM
REM
REM
REM ./C.cell (11c1c37f851c82e70ff6c80c92926a4b)
REM
REM compiler GCC version 9.2.1 20190827 (Red Hat 9.2.1-1)
REM options -cpp -mtune=generic -march=x86-64 -g -O0 -fpre-include=/usr/include/finclude/math-vector-fortran.h
REM seed 94739932 -822566085 -765941064 -654720766 1644551456 1202111842 -1198864393 570715024 536952260 608081401 -1648241589 -1918673079 1073409662 1074087643 1410462081 -1807417246 1188870676 155375479 -1185899531 799529190 -823433667 -604676527 1379749142 1654536652 -404587966 -1707744433 94118272 -2052092077 1958169497 -1098751387 -402175591 -2096678100 1561869970
REM
CELL 1.54180   50.00000   50.00000   50.00000   90.00000   90.00000   90.00000
LATT -1
SFAC C  
C      1  0.4489550000000  0.4466970000000  0.4981990000000 1.0
C      1  0.5065040000000  0.4560690000000  0.5203160000000 1.0
C      1  0.4910630000000  0.4939190000000  0.4817600000000 1.0
C      1  0.4721910000000  0.5345220000000  0.4572670000000 1.0
C      1  0.5720510000000  0.4850110000000  0.4959270000000 1.0
C      1  0.5507420000000  0.5007270000000  0.4858380000000 1.0
C      1  0.5230610000000  0.4926200000000  0.4936340000000 1.0
C      1  0.4938030000000  0.5172510000000  0.4472160000000 1.0
C      1  0.4822740000000  0.4685880000000  0.5255860000000 1.0
C      1  0.4520580000000  0.5109170000000  0.5314050000000 1.0
C      1  0.5526320000000  0.5293130000000  0.4856540000000 1.0
C      1  0.4421490000000  0.5324330000000  0.5173000000000 1.0
C      1  0.4750240000000  0.4845910000000  0.5647360000000 1.0
C      1  0.5353720000000  0.5640210000000  0.5157510000000 1.0
C      1  0.5401610000000  0.5401100000000  0.4624950000000 1.0
C      1  0.5785420000000  0.4813810000000  0.5225510000000 1.0
C      1  0.5187700000000  0.4342450000000  0.4288170000000 1.0
C      1  0.5075480000000  0.5598350000000  0.5204310000000 1.0
C      1  0.5089150000000  0.4340700000000  0.5028820000000 1.0
C      1  0.4953130000000  0.5425930000000  0.5008670000000 1.0
C      1  0.4989480000000  0.5134020000000  0.5057620000000 1.0
C      1  0.4649350000000  0.4865000000000  0.4749940000000 1.0
C      1  0.4420140000000  0.5003110000000  0.4651270000000 1.0
C      1  0.4837900000000  0.5001490000000  0.5290900000000 1.0
C      1  0.4884870000000  0.4885430000000  0.4423500000000 1.0
C      1  0.5000970000000  0.5553430000000  0.5475730000000 1.0
C      1  0.4617890000000  0.4564230000000  0.4743970000000 1.0
C      1  0.5042280000000  0.4399880000000  0.4510320000000 1.0
C      1  0.4841540000000  0.4606980000000  0.4514550000000 1.0
C      1  0.5296170000000  0.4962310000000  0.5441270000000 1.0
C      1  0.5498700000000  0.5219170000000  0.5340710000000 1.0
C      1  0.5000980000000  0.5337510000000  0.5641660000000 1.0
C      1  0.5509750000000  0.5404260000000  0.5124890000000 1.0
C      1  0.5092110000000  0.4283430000000  0.4763540000000 1.0
C      1  0.4516670000000  0.4835720000000  0.5460120000000 1.0
C      1  0.4736620000000  0.5481820000000  0.4830060000000 1.0
C      1  0.5261360000000  0.4762480000000  0.5196600000000 1.0
C      1  0.4487520000000  0.5499560000000  0.4972210000000 1.0
C      1  0.5634820000000  0.4945180000000  0.5424210000000 1.0
C      1  0.4461680000000  0.5241950000000  0.4522460000000 1.0
C      1  0.5016160000000  0.5039060000000  0.5557610000000 1.0
C      1  0.4537450000000  0.4592410000000  0.5236960000000 1.0
C      1  0.5194320000000  0.5292430000000  0.4483580000000 1.0
END
