TITL C-2778429-3646-1310 -0.00785715229936387 125000 -955.23994826063 0 0 165 (C1) n - 1
REM
REM in /home/nfs/bkarasulu/CARBON/AIRSS/Generating-Clusters/REBO/Only-C1/SD-CG/HFTN-CG
REM
REM
REM
REM
REM
REM ./C.cell (11c1c37f851c82e70ff6c80c92926a4b)
REM
REM compiler GCC version 9.2.1 20190827 (Red Hat 9.2.1-1)
REM options -cpp -mtune=generic -march=x86-64 -g -O0 -fpre-include=/usr/include/finclude/math-vector-fortran.h
REM seed -289670899 -151812827 641939942 1216501870 -1717502386 -2004380553 501275828 244933815 571336307 -1939353297 1360957822 1414555770 1956143311 2022082883 -1803601488 683724454 -888217579 93002872 -834644772 1687573866 1559927075 298801861 2008241832 1339364893 1525452294 1845084577 801407757 -1972501518 795722719 -1119240475 1913362080 380796801 -731753287
REM
CELL 1.54180   50.00000   50.00000   50.00000   90.00000   90.00000   90.00000
LATT -1
SFAC C  
C      1  0.4224710000000  0.4548570000000  0.5671960000000 1.0
C      1  0.5027680000000  0.4532400000000  0.4636360000000 1.0
C      1  0.4276840000000  0.4486250000000  0.5375510000000 1.0
C      1  0.5200880000000  0.5836330000000  0.4527650000000 1.0
C      1  0.5141800000000  0.5273650000000  0.4980760000000 1.0
C      1  0.5916930000000  0.4279050000000  0.5122620000000 1.0
C      1  0.5169160000000  0.5013780000000  0.3982990000000 1.0
C      1  0.5521260000000  0.4492730000000  0.4423470000000 1.0
C      1  0.5019560000000  0.5201200000000  0.5333290000000 1.0
C      1  0.5117250000000  0.3974370000000  0.5476260000000 1.0
C      1  0.4254550000000  0.4855780000000  0.5697080000000 1.0
C      1  0.4733990000000  0.5205930000000  0.5249370000000 1.0
C      1  0.5171210000000  0.5996580000000  0.5055800000000 1.0
C      1  0.4820010000000  0.5762060000000  0.4237730000000 1.0
C      1  0.4929850000000  0.4137740000000  0.5643280000000 1.0
C      1  0.4943130000000  0.5487110000000  0.6116610000000 1.0
C      1  0.4853640000000  0.4046570000000  0.4728980000000 1.0
C      1  0.4292690000000  0.5225080000000  0.4464660000000 1.0
C      1  0.5741500000000  0.5404070000000  0.5251370000000 1.0
C      1  0.5043860000000  0.5750360000000  0.3985260000000 1.0
C      1  0.5675420000000  0.5208890000000  0.4858290000000 1.0
C      1  0.5199480000000  0.4559640000000  0.4379920000000 1.0
C      1  0.4965700000000  0.5857550000000  0.4846980000000 1.0
C      1  0.4290020000000  0.5763070000000  0.5098350000000 1.0
C      1  0.4683600000000  0.6161300000000  0.5275400000000 1.0
C      1  0.4694350000000  0.5710060000000  0.5515930000000 1.0
C      1  0.5760410000000  0.5290380000000  0.5654440000000 1.0
C      1  0.4305670000000  0.4519980000000  0.4408220000000 1.0
C      1  0.4850540000000  0.5530170000000  0.3915260000000 1.0
C      1  0.5603700000000  0.4489840000000  0.4722150000000 1.0
C      1  0.5220490000000  0.5761400000000  0.5280610000000 1.0
C      1  0.5989930000000  0.5328900000000  0.4816440000000 1.0
C      1  0.4953470000000  0.4360850000000  0.5820690000000 1.0
C      1  0.4338730000000  0.4621060000000  0.4892310000000 1.0
C      1  0.4657150000000  0.4905410000000  0.5167490000000 1.0
C      1  0.4658390000000  0.4150800000000  0.5474250000000 1.0
C      1  0.6098330000000  0.4929270000000  0.5045470000000 1.0
C      1  0.5161910000000  0.4578280000000  0.5863140000000 1.0
C      1  0.4148920000000  0.4801740000000  0.5376550000000 1.0
C      1  0.4529990000000  0.4138970000000  0.4732140000000 1.0
C      1  0.5751590000000  0.4697730000000  0.5617630000000 1.0
C      1  0.4308030000000  0.5620170000000  0.4421350000000 1.0
C      1  0.5477690000000  0.5458960000000  0.4870810000000 1.0
C      1  0.5085640000000  0.4454020000000  0.5455390000000 1.0
C      1  0.4511780000000  0.5387130000000  0.5368540000000 1.0
C      1  0.4683620000000  0.4464310000000  0.4402450000000 1.0
C      1  0.4121310000000  0.5533270000000  0.4937930000000 1.0
C      1  0.5408630000000  0.5350870000000  0.5186020000000 1.0
C      1  0.5112390000000  0.5051670000000  0.4502780000000 1.0
C      1  0.4737860000000  0.5736360000000  0.5017480000000 1.0
C      1  0.4619480000000  0.5268560000000  0.4529150000000 1.0
C      1  0.4170000000000  0.5155050000000  0.5559280000000 1.0
C      1  0.4993230000000  0.5295890000000  0.4668050000000 1.0
C      1  0.5894140000000  0.4500410000000  0.4858170000000 1.0
C      1  0.4910410000000  0.4237660000000  0.5259760000000 1.0
C      1  0.5020030000000  0.5013970000000  0.6118130000000 1.0
C      1  0.4139020000000  0.4207080000000  0.5028640000000 1.0
C      1  0.4574670000000  0.5743480000000  0.4550650000000 1.0
C      1  0.5042080000000  0.4549060000000  0.4012490000000 1.0
C      1  0.5568170000000  0.4120660000000  0.5100910000000 1.0
C      1  0.5513960000000  0.5708750000000  0.5363990000000 1.0
C      1  0.5073830000000  0.4036660000000  0.4508040000000 1.0
C      1  0.5851900000000  0.4989030000000  0.5233530000000 1.0
C      1  0.4118650000000  0.4520290000000  0.5096760000000 1.0
C      1  0.5361610000000  0.5845620000000  0.4305170000000 1.0
C      1  0.5440040000000  0.4254200000000  0.4824390000000 1.0
C      1  0.4584990000000  0.5193860000000  0.5902210000000 1.0
C      1  0.4210770000000  0.5074230000000  0.5230720000000 1.0
C      1  0.4787610000000  0.5132240000000  0.4861680000000 1.0
C      1  0.4783740000000  0.4361700000000  0.4774290000000 1.0
C      1  0.3944850000000  0.4799610000000  0.5109680000000 1.0
C      1  0.4825220000000  0.4693770000000  0.4204330000000 1.0
C      1  0.5815040000000  0.4978260000000  0.4651080000000 1.0
C      1  0.4380500000000  0.5508750000000  0.4161450000000 1.0
C      1  0.5509880000000  0.5067270000000  0.4526820000000 1.0
C      1  0.4972410000000  0.4812630000000  0.5281330000000 1.0
C      1  0.5356690000000  0.4678390000000  0.5153580000000 1.0
C      1  0.5273470000000  0.6237390000000  0.5048710000000 1.0
C      1  0.5276100000000  0.4692160000000  0.5608300000000 1.0
C      1  0.5386990000000  0.5384420000000  0.4489250000000 1.0
C      1  0.5706160000000  0.4688190000000  0.4258890000000 1.0
C      1  0.4774290000000  0.4654720000000  0.5805500000000 1.0
C      1  0.5003510000000  0.5742420000000  0.5510820000000 1.0
C      1  0.5549800000000  0.5104090000000  0.5806550000000 1.0
C      1  0.5112530000000  0.4853620000000  0.4260000000000 1.0
C      1  0.4169910000000  0.4622920000000  0.4628230000000 1.0
C      1  0.5696750000000  0.5685520000000  0.5111800000000 1.0
C      1  0.5840280000000  0.5235680000000  0.4348010000000 1.0
C      1  0.4457100000000  0.5347670000000  0.4806880000000 1.0
C      1  0.4248260000000  0.5156630000000  0.4907480000000 1.0
C      1  0.5444920000000  0.5414630000000  0.5859750000000 1.0
C      1  0.4624040000000  0.4816860000000  0.5473870000000 1.0
C      1  0.4700560000000  0.5416870000000  0.5017230000000 1.0
C      1  0.4928960000000  0.4890080000000  0.5610040000000 1.0
C      1  0.4109840000000  0.5443370000000  0.4635260000000 1.0
C      1  0.5179190000000  0.4741140000000  0.3871360000000 1.0
C      1  0.5707560000000  0.5414030000000  0.4512560000000 1.0
C      1  0.3945170000000  0.5159370000000  0.4648690000000 1.0
C      1  0.6019410000000  0.5347630000000  0.5279530000000 1.0
C      1  0.5068460000000  0.5170020000000  0.5666660000000 1.0
C      1  0.5291600000000  0.5668350000000  0.4093480000000 1.0
C      1  0.4963550000000  0.5263390000000  0.4031470000000 1.0
C      1  0.5131690000000  0.5605270000000  0.5005600000000 1.0
C      1  0.5256540000000  0.5593460000000  0.4691350000000 1.0
C      1  0.4171770000000  0.5497990000000  0.5545950000000 1.0
C      1  0.5162310000000  0.4417580000000  0.4926840000000 1.0
C      1  0.5566400000000  0.5003520000000  0.5074440000000 1.0
C      1  0.5051070000000  0.4951280000000  0.4899820000000 1.0
C      1  0.5136650000000  0.3907940000000  0.5188250000000 1.0
C      1  0.6134610000000  0.5225940000000  0.5043700000000 1.0
C      1  0.5610440000000  0.5561290000000  0.5594490000000 1.0
C      1  0.4879900000000  0.3986270000000  0.5032510000000 1.0
C      1  0.5675070000000  0.4427420000000  0.5660110000000 1.0
C      1  0.4559840000000  0.4422110000000  0.5300970000000 1.0
C      1  0.4553560000000  0.4913460000000  0.5793090000000 1.0
C      1  0.5263820000000  0.4983740000000  0.5234450000000 1.0
C      1  0.4472950000000  0.5687250000000  0.4837830000000 1.0
C      1  0.4829260000000  0.4206980000000  0.4357050000000 1.0
C      1  0.4393490000000  0.4087790000000  0.4980820000000 1.0
C      1  0.5370250000000  0.4369980000000  0.5196070000000 1.0
C      1  0.4820990000000  0.5516690000000  0.4476130000000 1.0
C      1  0.5098260000000  0.5808330000000  0.5817940000000 1.0
C      1  0.4703320000000  0.5899430000000  0.5262640000000 1.0
C      1  0.5358680000000  0.3906410000000  0.4998580000000 1.0
C      1  0.4796860000000  0.5222420000000  0.6112620000000 1.0
C      1  0.5353340000000  0.3986450000000  0.4667170000000 1.0
C      1  0.4298150000000  0.5342090000000  0.5813320000000 1.0
C      1  0.6002520000000  0.4790730000000  0.4809790000000 1.0
C      1  0.4716880000000  0.5122630000000  0.4171970000000 1.0
C      1  0.4767060000000  0.4724300000000  0.4609600000000 1.0
C      1  0.4588980000000  0.5644720000000  0.4028570000000 1.0
C      1  0.4982880000000  0.5756660000000  0.6057670000000 1.0
C      1  0.5218860000000  0.5539250000000  0.5656590000000 1.0
C      1  0.4877310000000  0.5903630000000  0.4541960000000 1.0
C      1  0.4518240000000  0.4749470000000  0.4299290000000 1.0
C      1  0.5780620000000  0.5588100000000  0.4796600000000 1.0
C      1  0.5455250000000  0.5096510000000  0.4225210000000 1.0
C      1  0.5310520000000  0.4909610000000  0.4710520000000 1.0
C      1  0.4630090000000  0.4517420000000  0.5011290000000 1.0
C      1  0.5394120000000  0.4322650000000  0.5515690000000 1.0
C      1  0.5823240000000  0.4925680000000  0.4326100000000 1.0
C      1  0.4444360000000  0.5218860000000  0.4173030000000 1.0
C      1  0.5156000000000  0.5278470000000  0.5952830000000 1.0
C      1  0.4935950000000  0.4648920000000  0.5006120000000 1.0
C      1  0.3955650000000  0.5014190000000  0.4930700000000 1.0
C      1  0.5116810000000  0.4759890000000  0.6075030000000 1.0
C      1  0.4407330000000  0.4930960000000  0.4541120000000 1.0
C      1  0.4787220000000  0.4528460000000  0.5499690000000 1.0
C      1  0.4378130000000  0.5708060000000  0.5388220000000 1.0
C      1  0.4596690000000  0.4032470000000  0.5177370000000 1.0
C      1  0.5358750000000  0.4194770000000  0.4395670000000 1.0
C      1  0.4798580000000  0.5000810000000  0.4459310000000 1.0
C      1  0.5715160000000  0.4728910000000  0.5323440000000 1.0
C      1  0.5355440000000  0.5268300000000  0.5498960000000 1.0
C      1  0.4582400000000  0.5453710000000  0.5682420000000 1.0
C      1  0.5390350000000  0.4942350000000  0.5611140000000 1.0
C      1  0.5258020000000  0.5361770000000  0.4173710000000 1.0
C      1  0.4200890000000  0.5394030000000  0.5223270000000 1.0
C      1  0.4564760000000  0.4872490000000  0.4840050000000 1.0
C      1  0.5849570000000  0.5018020000000  0.5558280000000 1.0
C      1  0.5728870000000  0.4535790000000  0.5139810000000 1.0
C      1  0.5497460000000  0.4736030000000  0.4874510000000 1.0
C      1  0.5702100000000  0.4224940000000  0.5386820000000 1.0
C      1  0.4074780000000  0.4906030000000  0.4566170000000 1.0
C      1  0.5102360000000  0.4289460000000  0.4199720000000 1.0
END
