TITL C-2778434-4341-835 0.000825900796354789 125000 -108.073345368575 0 0 21 (C1) n - 1
REM
REM in /home/nfs/bkarasulu/CARBON/AIRSS/Generating-Clusters/REBO/Only-C1/SD-CG/HFTN-CG
REM
REM
REM
REM
REM
REM ./C.cell (11c1c37f851c82e70ff6c80c92926a4b)
REM
REM compiler GCC version 9.2.1 20190827 (Red Hat 9.2.1-1)
REM options -cpp -mtune=generic -march=x86-64 -g -O0 -fpre-include=/usr/include/finclude/math-vector-fortran.h
REM seed -1857191021 880139969 342238944 -542746805 1691072806 1071101936 -1510546609 864486815 205165423 1202372105 335207035 -588721938 286479626 -1485010129 -1891036852 1776357524 -2092655028 -1934039349 -546100172 -352488539 -2137941202 -1233818276 508147890 -135315100 -104486830 -545174227 1746749141 487550811 -1834411206 911784074 -1871682222 -2008783248 -609257259
REM
CELL 1.54180   50.00000   50.00000   50.00000   90.00000   90.00000   90.00000
LATT -1
SFAC C  
C      1  0.4535720000000  0.5020920000000  0.5466300000000 1.0
C      1  0.5545310000000  0.4915140000000  0.4444050000000 1.0
C      1  0.4182170000000  0.5428600000000  0.4766480000000 1.0
C      1  0.5376280000000  0.4616980000000  0.5512400000000 1.0
C      1  0.5338270000000  0.4966870000000  0.4613930000000 1.0
C      1  0.4714310000000  0.5348070000000  0.4827660000000 1.0
C      1  0.5447210000000  0.4582850000000  0.4996810000000 1.0
C      1  0.5124710000000  0.4791180000000  0.5092350000000 1.0
C      1  0.5241780000000  0.5821540000000  0.4439790000000 1.0
C      1  0.4896840000000  0.5511920000000  0.4693440000000 1.0
C      1  0.5105740000000  0.4305920000000  0.5277400000000 1.0
C      1  0.5158760000000  0.5164700000000  0.4558730000000 1.0
C      1  0.4806470000000  0.5142660000000  0.4993460000000 1.0
C      1  0.5256700000000  0.4541850000000  0.5270420000000 1.0
C      1  0.4439630000000  0.5389640000000  0.4796080000000 1.0
C      1  0.4758060000000  0.4878090000000  0.5399390000000 1.0
C      1  0.4940560000000  0.4479220000000  0.5717260000000 1.0
C      1  0.5070690000000  0.5667970000000  0.4565600000000 1.0
C      1  0.5309900000000  0.4816400000000  0.4845760000000 1.0
C      1  0.4852270000000  0.4672190000000  0.5563470000000 1.0
C      1  0.4898610000000  0.4937280000000  0.5159230000000 1.0
END
