TITL C-2778435-5768-1355 -0.00368053669588714 125000 -996.903026910087 0 0 172 (C1) n - 1
REM
REM in /home/nfs/bkarasulu/CARBON/AIRSS/Generating-Clusters/REBO/Only-C1/SD-CG/HFTN-CG
REM
REM
REM
REM
REM
REM ./C.cell (11c1c37f851c82e70ff6c80c92926a4b)
REM
REM compiler GCC version 9.2.1 20190827 (Red Hat 9.2.1-1)
REM options -cpp -mtune=generic -march=x86-64 -g -O0 -fpre-include=/usr/include/finclude/math-vector-fortran.h
REM seed -549656420 -1869261037 -1595075500 1459142839 -1873073019 -507176344 684444039 1191184741 301195077 843640476 809830341 1823764916 446998208 -2087327032 1470230282 -1837441370 -1252984034 -2019568298 1650434931 255300102 379682243 2045684568 -333331631 1020929984 -411407362 270562096 -1808067557 -1212506695 1922960531 -571717563 1616993430 1382147363 1986007596
REM
CELL 1.54180   50.00000   50.00000   50.00000   90.00000   90.00000   90.00000
LATT -1
SFAC C  
C      1  0.4159690000000  0.5210820000000  0.4914110000000 1.0
C      1  0.5337100000000  0.6008760000000  0.4411570000000 1.0
C      1  0.5101940000000  0.5006550000000  0.3984270000000 1.0
C      1  0.4925440000000  0.5985810000000  0.5172330000000 1.0
C      1  0.5092600000000  0.4471260000000  0.4973630000000 1.0
C      1  0.4745800000000  0.5714570000000  0.5670170000000 1.0
C      1  0.5681130000000  0.4211990000000  0.4837300000000 1.0
C      1  0.4854130000000  0.4999070000000  0.6087790000000 1.0
C      1  0.5375410000000  0.5974590000000  0.4726840000000 1.0
C      1  0.4308600000000  0.5519770000000  0.5447070000000 1.0
C      1  0.4969750000000  0.4023180000000  0.5473380000000 1.0
C      1  0.5602420000000  0.4813420000000  0.5998510000000 1.0
C      1  0.5119900000000  0.5834020000000  0.4267810000000 1.0
C      1  0.5071660000000  0.4935040000000  0.5880090000000 1.0
C      1  0.5529080000000  0.4272830000000  0.5438190000000 1.0
C      1  0.5732510000000  0.4550710000000  0.4150810000000 1.0
C      1  0.4865410000000  0.5238760000000  0.4843800000000 1.0
C      1  0.5145240000000  0.5449000000000  0.5207430000000 1.0
C      1  0.3978830000000  0.4410920000000  0.4905600000000 1.0
C      1  0.4229540000000  0.5502730000000  0.4353350000000 1.0
C      1  0.5633230000000  0.5268710000000  0.5868300000000 1.0
C      1  0.5366940000000  0.4557820000000  0.4113810000000 1.0
C      1  0.4557240000000  0.5410190000000  0.4337370000000 1.0
C      1  0.4965830000000  0.4949900000000  0.5126030000000 1.0
C      1  0.4817960000000  0.4774280000000  0.4717190000000 1.0
C      1  0.4225470000000  0.5176490000000  0.4341680000000 1.0
C      1  0.4975990000000  0.5682400000000  0.4496780000000 1.0
C      1  0.5384750000000  0.4579780000000  0.4531220000000 1.0
C      1  0.4006830000000  0.4946960000000  0.5455630000000 1.0
C      1  0.4682810000000  0.4832950000000  0.4216670000000 1.0
C      1  0.5033060000000  0.5687230000000  0.5812000000000 1.0
C      1  0.5062940000000  0.5832380000000  0.5528780000000 1.0
C      1  0.4775290000000  0.5434800000000  0.4573690000000 1.0
C      1  0.5449330000000  0.5402350000000  0.4219060000000 1.0
C      1  0.4693840000000  0.4148620000000  0.5638360000000 1.0
C      1  0.5990040000000  0.5385520000000  0.4977620000000 1.0
C      1  0.5928590000000  0.4623060000000  0.4659190000000 1.0
C      1  0.5107970000000  0.5251530000000  0.5640090000000 1.0
C      1  0.4224660000000  0.4217780000000  0.4914100000000 1.0
C      1  0.4605930000000  0.4528440000000  0.5557270000000 1.0
C      1  0.5468130000000  0.4894030000000  0.4495780000000 1.0
C      1  0.4403100000000  0.5221880000000  0.5893900000000 1.0
C      1  0.4194570000000  0.5020290000000  0.4634640000000 1.0
C      1  0.5227640000000  0.5070340000000  0.4537560000000 1.0
C      1  0.4261870000000  0.5098060000000  0.5173290000000 1.0
C      1  0.4245280000000  0.5631100000000  0.4615540000000 1.0
C      1  0.5257470000000  0.4341420000000  0.4705250000000 1.0
C      1  0.4879810000000  0.4242690000000  0.4381230000000 1.0
C      1  0.5930320000000  0.5315640000000  0.5292180000000 1.0
C      1  0.5206490000000  0.4181970000000  0.5067030000000 1.0
C      1  0.4837750000000  0.4705230000000  0.5487820000000 1.0
C      1  0.5972050000000  0.4899840000000  0.4740300000000 1.0
C      1  0.4318050000000  0.4797220000000  0.4057120000000 1.0
C      1  0.4504060000000  0.4109790000000  0.4391680000000 1.0
C      1  0.5105410000000  0.5556100000000  0.4922190000000 1.0
C      1  0.5534930000000  0.4650820000000  0.5796290000000 1.0
C      1  0.5212360000000  0.5455890000000  0.4437340000000 1.0
C      1  0.4539100000000  0.5145330000000  0.5365020000000 1.0
C      1  0.4646890000000  0.4302660000000  0.4162980000000 1.0
C      1  0.5767260000000  0.5092540000000  0.4326100000000 1.0
C      1  0.5073200000000  0.3984920000000  0.4837770000000 1.0
C      1  0.4462250000000  0.4522040000000  0.4533240000000 1.0
C      1  0.4693870000000  0.5863770000000  0.5379730000000 1.0
C      1  0.4931850000000  0.5618570000000  0.5330290000000 1.0
C      1  0.4653520000000  0.5889550000000  0.4388900000000 1.0
C      1  0.5380580000000  0.5873160000000  0.5437830000000 1.0
C      1  0.4159290000000  0.5251460000000  0.5438300000000 1.0
C      1  0.5149490000000  0.4622950000000  0.5386120000000 1.0
C      1  0.4415380000000  0.4812930000000  0.5183670000000 1.0
C      1  0.5402200000000  0.4029800000000  0.4757760000000 1.0
C      1  0.4198800000000  0.4667300000000  0.5727310000000 1.0
C      1  0.5329090000000  0.4743010000000  0.5173140000000 1.0
C      1  0.4957300000000  0.4340550000000  0.5592070000000 1.0
C      1  0.4450640000000  0.4259560000000  0.5432730000000 1.0
C      1  0.5218910000000  0.5087000000000  0.6090670000000 1.0
C      1  0.5363690000000  0.6152180000000  0.4997380000000 1.0
C      1  0.4706410000000  0.3987750000000  0.4981280000000 1.0
C      1  0.5089580000000  0.4519070000000  0.4372910000000 1.0
C      1  0.4669510000000  0.4721680000000  0.6007940000000 1.0
C      1  0.4792190000000  0.4101990000000  0.4679070000000 1.0
C      1  0.3982640000000  0.4570140000000  0.4682440000000 1.0
C      1  0.4745590000000  0.5435290000000  0.4056510000000 1.0
C      1  0.5602390000000  0.5478420000000  0.5005530000000 1.0
C      1  0.4731980000000  0.5295730000000  0.5681060000000 1.0
C      1  0.5018130000000  0.4702430000000  0.5751050000000 1.0
C      1  0.5898520000000  0.4727920000000  0.5456480000000 1.0
C      1  0.5506020000000  0.5793300000000  0.4249080000000 1.0
C      1  0.4378000000000  0.4876380000000  0.5920430000000 1.0
C      1  0.5256020000000  0.5616510000000  0.4073780000000 1.0
C      1  0.4421230000000  0.5730610000000  0.4960280000000 1.0
C      1  0.4336330000000  0.5065300000000  0.4091490000000 1.0
C      1  0.4610630000000  0.4991840000000  0.5642090000000 1.0
C      1  0.6048050000000  0.5026150000000  0.5388190000000 1.0
C      1  0.5860440000000  0.5701560000000  0.5009340000000 1.0
C      1  0.4779030000000  0.4618840000000  0.4463810000000 1.0
C      1  0.4180010000000  0.5066290000000  0.5713550000000 1.0
C      1  0.4345380000000  0.4647080000000  0.5426680000000 1.0
C      1  0.5153460000000  0.5156080000000  0.4840990000000 1.0
C      1  0.5089340000000  0.5884070000000  0.4886940000000 1.0
C      1  0.4924740000000  0.4489800000000  0.5973110000000 1.0
C      1  0.4404700000000  0.5807030000000  0.5352140000000 1.0
C      1  0.4481260000000  0.5505380000000  0.5715570000000 1.0
C      1  0.4898610000000  0.4521540000000  0.4095190000000 1.0
C      1  0.5678660000000  0.5662450000000  0.4440060000000 1.0
C      1  0.5525920000000  0.4540850000000  0.5143190000000 1.0
C      1  0.5574290000000  0.5782000000000  0.5173170000000 1.0
C      1  0.5661200000000  0.5020810000000  0.5279690000000 1.0
C      1  0.4687670000000  0.4231590000000  0.5207690000000 1.0
C      1  0.4469630000000  0.5471840000000  0.5146950000000 1.0
C      1  0.5490740000000  0.4225550000000  0.5120090000000 1.0
C      1  0.3898710000000  0.4536230000000  0.5145420000000 1.0
C      1  0.4532320000000  0.5744800000000  0.4639740000000 1.0
C      1  0.5106840000000  0.5151820000000  0.5291990000000 1.0
C      1  0.5026580000000  0.5194440000000  0.4328640000000 1.0
C      1  0.4418630000000  0.4042350000000  0.5102620000000 1.0
C      1  0.5344690000000  0.4500340000000  0.5600730000000 1.0
C      1  0.4729130000000  0.5028840000000  0.4662670000000 1.0
C      1  0.4099930000000  0.4439610000000  0.5494910000000 1.0
C      1  0.5627920000000  0.5330230000000  0.5418450000000 1.0
C      1  0.5547640000000  0.5208240000000  0.4853820000000 1.0
C      1  0.5310530000000  0.5415250000000  0.4721750000000 1.0
C      1  0.5605440000000  0.5773940000000  0.4732610000000 1.0
C      1  0.4883540000000  0.4820580000000  0.3977500000000 1.0
C      1  0.5702650000000  0.5329910000000  0.4219390000000 1.0
C      1  0.4997320000000  0.4750090000000  0.4922100000000 1.0
C      1  0.4403400000000  0.4680800000000  0.4932730000000 1.0
C      1  0.5779190000000  0.4619500000000  0.5075600000000 1.0
C      1  0.4181310000000  0.5495220000000  0.4872810000000 1.0
C      1  0.5266380000000  0.5012840000000  0.5541480000000 1.0
C      1  0.4693400000000  0.5437810000000  0.5383270000000 1.0
C      1  0.5146500000000  0.4142180000000  0.4483020000000 1.0
C      1  0.5728320000000  0.5058500000000  0.4641010000000 1.0
C      1  0.5549870000000  0.5744260000000  0.5674280000000 1.0
C      1  0.5332900000000  0.4866130000000  0.4044490000000 1.0
C      1  0.4698310000000  0.5931080000000  0.4947570000000 1.0
C      1  0.4415300000000  0.5269430000000  0.4615600000000 1.0
C      1  0.5225880000000  0.6057480000000  0.5220400000000 1.0
C      1  0.4861780000000  0.5965680000000  0.4648500000000 1.0
C      1  0.5507440000000  0.5077580000000  0.6042370000000 1.0
C      1  0.3916080000000  0.4745710000000  0.5315570000000 1.0
C      1  0.5885220000000  0.4445040000000  0.4878480000000 1.0
C      1  0.5482820000000  0.5503110000000  0.5811390000000 1.0
C      1  0.4175970000000  0.4226510000000  0.5255530000000 1.0
C      1  0.5620120000000  0.4853190000000  0.4191080000000 1.0
C      1  0.4719820000000  0.4887010000000  0.5275780000000 1.0
C      1  0.4787400000000  0.5627270000000  0.4842900000000 1.0
C      1  0.5354480000000  0.4984900000000  0.5026570000000 1.0
C      1  0.4519520000000  0.5224830000000  0.3969690000000 1.0
C      1  0.5821320000000  0.5132890000000  0.5625700000000 1.0
C      1  0.5276160000000  0.4109810000000  0.5599380000000 1.0
C      1  0.5175050000000  0.4338220000000  0.5833270000000 1.0
C      1  0.4471760000000  0.4231390000000  0.4680620000000 1.0
C      1  0.4753950000000  0.5078510000000  0.4383490000000 1.0
C      1  0.5427960000000  0.5507170000000  0.5283640000000 1.0
C      1  0.4478210000000  0.4569600000000  0.4207890000000 1.0
C      1  0.4247570000000  0.4727550000000  0.4658730000000 1.0
C      1  0.4549730000000  0.5311970000000  0.4880830000000 1.0
C      1  0.5056870000000  0.5341780000000  0.4036960000000 1.0
C      1  0.4691150000000  0.5742200000000  0.4159480000000 1.0
C      1  0.4985480000000  0.3968440000000  0.5173010000000 1.0
C      1  0.5755230000000  0.4525780000000  0.5471330000000 1.0
C      1  0.6064840000000  0.5056830000000  0.5027620000000 1.0
C      1  0.4641800000000  0.4413100000000  0.5852630000000 1.0
C      1  0.5719580000000  0.4587140000000  0.4470810000000 1.0
C      1  0.5858260000000  0.5544950000000  0.4705810000000 1.0
C      1  0.4930960000000  0.4390890000000  0.5261900000000 1.0
C      1  0.5572830000000  0.4190570000000  0.4512610000000 1.0
C      1  0.4710560000000  0.5238580000000  0.6012870000000 1.0
C      1  0.5196570000000  0.5457130000000  0.5812870000000 1.0
C      1  0.5523830000000  0.4307780000000  0.4266980000000 1.0
C      1  0.5531730000000  0.4965890000000  0.5550560000000 1.0
C      1  0.5809590000000  0.4889350000000  0.5101760000000 1.0
END
