TITL C-2778435-5768-945 -0.00564834965615682 125000 -823.904625635399 0 0 143 (C1) n - 1
REM
REM in /home/nfs/bkarasulu/CARBON/AIRSS/Generating-Clusters/REBO/Only-C1/SD-CG/HFTN-CG
REM
REM
REM
REM
REM
REM ./C.cell (11c1c37f851c82e70ff6c80c92926a4b)
REM
REM compiler GCC version 9.2.1 20190827 (Red Hat 9.2.1-1)
REM options -cpp -mtune=generic -march=x86-64 -g -O0 -fpre-include=/usr/include/finclude/math-vector-fortran.h
REM seed -995258554 1407521391 938079585 -1028519919 -1294570783 244915193 508287504 -1640418058 -494821009 -2055531746 1001906621 -90105416 103331794 -722906621 2122911468 -1885019348 1316726661 -839328774 -1808839207 -45987066 -666087161 344244618 1348458362 -132564943 -311968485 -1491442948 -1628450625 -1479317839 318642119 -1730223105 1461814619 -1331453307 1916773895
REM
CELL 1.54180   50.00000   50.00000   50.00000   90.00000   90.00000   90.00000
LATT -1
SFAC C  
C      1  0.4565400000000  0.4311380000000  0.5523490000000 1.0
C      1  0.5382670000000  0.5173960000000  0.4785170000000 1.0
C      1  0.5161800000000  0.5792580000000  0.6048240000000 1.0
C      1  0.5864270000000  0.5699400000000  0.4885400000000 1.0
C      1  0.5497000000000  0.4387930000000  0.4407470000000 1.0
C      1  0.4134860000000  0.5293800000000  0.4632180000000 1.0
C      1  0.4962170000000  0.4751960000000  0.4473240000000 1.0
C      1  0.4402980000000  0.4963470000000  0.5154290000000 1.0
C      1  0.5886060000000  0.4721910000000  0.4759380000000 1.0
C      1  0.4796760000000  0.5080140000000  0.4841210000000 1.0
C      1  0.5047550000000  0.4072520000000  0.5175880000000 1.0
C      1  0.4393560000000  0.4551850000000  0.4409000000000 1.0
C      1  0.4954310000000  0.4762620000000  0.5174890000000 1.0
C      1  0.4389910000000  0.5406510000000  0.4434350000000 1.0
C      1  0.5296320000000  0.6004680000000  0.5164730000000 1.0
C      1  0.5604070000000  0.5351400000000  0.5066450000000 1.0
C      1  0.4550810000000  0.4806190000000  0.5504240000000 1.0
C      1  0.4919860000000  0.4544650000000  0.5825040000000 1.0
C      1  0.4511620000000  0.5618990000000  0.4679860000000 1.0
C      1  0.5418560000000  0.4948060000000  0.4993900000000 1.0
C      1  0.5488160000000  0.4943800000000  0.5309920000000 1.0
C      1  0.5069930000000  0.5657830000000  0.5823190000000 1.0
C      1  0.5388020000000  0.5227830000000  0.4042200000000 1.0
C      1  0.5328470000000  0.5881290000000  0.5420320000000 1.0
C      1  0.4170750000000  0.5547080000000  0.5114620000000 1.0
C      1  0.5228960000000  0.5499770000000  0.5454880000000 1.0
C      1  0.5579500000000  0.5855350000000  0.4783470000000 1.0
C      1  0.3949710000000  0.4670050000000  0.4561290000000 1.0
C      1  0.5971960000000  0.4902950000000  0.4512210000000 1.0
C      1  0.4617830000000  0.4424740000000  0.5834820000000 1.0
C      1  0.5110710000000  0.4194850000000  0.5422090000000 1.0
C      1  0.4389100000000  0.5378570000000  0.4827850000000 1.0
C      1  0.4547580000000  0.5682850000000  0.5411140000000 1.0
C      1  0.5373730000000  0.4755490000000  0.5760500000000 1.0
C      1  0.4149450000000  0.4744660000000  0.5200850000000 1.0
C      1  0.4525950000000  0.5168810000000  0.4951180000000 1.0
C      1  0.5150360000000  0.5635160000000  0.4888200000000 1.0
C      1  0.5205300000000  0.5100140000000  0.5862560000000 1.0
C      1  0.5771140000000  0.5004330000000  0.5170380000000 1.0
C      1  0.5765070000000  0.4359650000000  0.5425620000000 1.0
C      1  0.3981550000000  0.5083760000000  0.5320740000000 1.0
C      1  0.4971580000000  0.5028280000000  0.5471740000000 1.0
C      1  0.5449200000000  0.4899030000000  0.4366990000000 1.0
C      1  0.5036600000000  0.5373770000000  0.5820870000000 1.0
C      1  0.4202610000000  0.5012840000000  0.4775290000000 1.0
C      1  0.5920160000000  0.5547490000000  0.4585430000000 1.0
C      1  0.4154970000000  0.5134240000000  0.5574520000000 1.0
C      1  0.5252260000000  0.5192300000000  0.5538170000000 1.0
C      1  0.4766830000000  0.5254350000000  0.5639570000000 1.0
C      1  0.5343540000000  0.5984610000000  0.4684820000000 1.0
C      1  0.5727610000000  0.4856810000000  0.5615360000000 1.0
C      1  0.5368720000000  0.4428320000000  0.4923030000000 1.0
C      1  0.4907210000000  0.5288060000000  0.4629970000000 1.0
C      1  0.5619710000000  0.5075540000000  0.4587550000000 1.0
C      1  0.4230760000000  0.5254500000000  0.5203170000000 1.0
C      1  0.5507150000000  0.4668770000000  0.3941580000000 1.0
C      1  0.5773560000000  0.5154490000000  0.4862100000000 1.0
C      1  0.4511980000000  0.4221080000000  0.5269670000000 1.0
C      1  0.4880870000000  0.5075540000000  0.5145740000000 1.0
C      1  0.4049110000000  0.4523410000000  0.5418800000000 1.0
C      1  0.4267790000000  0.4397300000000  0.4869770000000 1.0
C      1  0.5341380000000  0.5299070000000  0.5219810000000 1.0
C      1  0.4645260000000  0.4874060000000  0.4128940000000 1.0
C      1  0.5037490000000  0.5830470000000  0.5548210000000 1.0
C      1  0.5648230000000  0.5172370000000  0.5509380000000 1.0
C      1  0.6050540000000  0.5477250000000  0.5064620000000 1.0
C      1  0.4177500000000  0.4758640000000  0.4415970000000 1.0
C      1  0.4948420000000  0.4936350000000  0.4019580000000 1.0
C      1  0.6061970000000  0.5175620000000  0.5138060000000 1.0
C      1  0.5414350000000  0.5496760000000  0.4845740000000 1.0
C      1  0.4724850000000  0.5131620000000  0.5955050000000 1.0
C      1  0.4787800000000  0.4545460000000  0.4888930000000 1.0
C      1  0.5440770000000  0.5462470000000  0.4389550000000 1.0
C      1  0.4444780000000  0.3962990000000  0.5196720000000 1.0
C      1  0.4778040000000  0.5874190000000  0.5340570000000 1.0
C      1  0.5349900000000  0.4414030000000  0.4101660000000 1.0
C      1  0.5151880000000  0.4869860000000  0.4267350000000 1.0
C      1  0.5767370000000  0.4446670000000  0.4597960000000 1.0
C      1  0.5430160000000  0.4655070000000  0.4555180000000 1.0
C      1  0.5172930000000  0.5639570000000  0.4324710000000 1.0
C      1  0.5701530000000  0.4209820000000  0.5208020000000 1.0
C      1  0.4608400000000  0.4593020000000  0.4225530000000 1.0
C      1  0.4153430000000  0.4532140000000  0.5663960000000 1.0
C      1  0.5489050000000  0.4179100000000  0.5026680000000 1.0
C      1  0.4907680000000  0.5486450000000  0.4870210000000 1.0
C      1  0.4697940000000  0.5512750000000  0.5058790000000 1.0
C      1  0.4848680000000  0.4496970000000  0.4337590000000 1.0
C      1  0.5179880000000  0.5879700000000  0.4483070000000 1.0
C      1  0.4410010000000  0.5682760000000  0.5115820000000 1.0
C      1  0.5565260000000  0.5710600000000  0.5450100000000 1.0
C      1  0.4641060000000  0.5831470000000  0.4826150000000 1.0
C      1  0.5608110000000  0.5590190000000  0.4601110000000 1.0
C      1  0.4508830000000  0.4444850000000  0.5057760000000 1.0
C      1  0.4414350000000  0.4620350000000  0.5724390000000 1.0
C      1  0.4781090000000  0.5212200000000  0.4086990000000 1.0
C      1  0.5248430000000  0.5919640000000  0.6260450000000 1.0
C      1  0.6018070000000  0.4869010000000  0.4996470000000 1.0
C      1  0.5285690000000  0.4482910000000  0.5482390000000 1.0
C      1  0.5105500000000  0.4333280000000  0.5706920000000 1.0
C      1  0.4710000000000  0.4199200000000  0.4712080000000 1.0
C      1  0.5195670000000  0.5258540000000  0.4523080000000 1.0
C      1  0.5285630000000  0.3980460000000  0.5044260000000 1.0
C      1  0.5102620000000  0.5892510000000  0.4990320000000 1.0
C      1  0.4270620000000  0.5373950000000  0.5718800000000 1.0
C      1  0.5233270000000  0.4807070000000  0.5455690000000 1.0
C      1  0.4817920000000  0.5914940000000  0.5053070000000 1.0
C      1  0.4027010000000  0.4458890000000  0.5092230000000 1.0
C      1  0.4457330000000  0.4910920000000  0.4655280000000 1.0
C      1  0.5623960000000  0.5304540000000  0.4181910000000 1.0
C      1  0.4227500000000  0.5093680000000  0.4384700000000 1.0
C      1  0.4517530000000  0.5490690000000  0.5675630000000 1.0
C      1  0.5800940000000  0.5069540000000  0.4298220000000 1.0
C      1  0.4533550000000  0.5353170000000  0.5303940000000 1.0
C      1  0.5173430000000  0.4682280000000  0.3993240000000 1.0
C      1  0.4792580000000  0.4564850000000  0.5508930000000 1.0
C      1  0.4542590000000  0.5046070000000  0.4359860000000 1.0
C      1  0.3965420000000  0.4504350000000  0.4772060000000 1.0
C      1  0.5637590000000  0.4849930000000  0.4103950000000 1.0
C      1  0.4804170000000  0.4164850000000  0.5003310000000 1.0
C      1  0.4876400000000  0.4432590000000  0.5206000000000 1.0
C      1  0.5665570000000  0.5460810000000  0.5382520000000 1.0
C      1  0.5565850000000  0.4692900000000  0.4838380000000 1.0
C      1  0.4381080000000  0.3718360000000  0.5127580000000 1.0
C      1  0.4484120000000  0.5096310000000  0.5521980000000 1.0
C      1  0.5081240000000  0.4785060000000  0.5916160000000 1.0
C      1  0.4614380000000  0.4731220000000  0.5194340000000 1.0
C      1  0.4709330000000  0.5314390000000  0.4402500000000 1.0
C      1  0.4886350000000  0.4980790000000  0.6071920000000 1.0
C      1  0.4966620000000  0.4251490000000  0.4498160000000 1.0
C      1  0.5156400000000  0.4664800000000  0.4683640000000 1.0
C      1  0.4035150000000  0.4970860000000  0.5003650000000 1.0
C      1  0.6007890000000  0.5342090000000  0.4780910000000 1.0
C      1  0.5059460000000  0.4377990000000  0.4787740000000 1.0
C      1  0.4903430000000  0.5523680000000  0.5475440000000 1.0
C      1  0.5224160000000  0.4202740000000  0.4336330000000 1.0
C      1  0.5016800000000  0.5338300000000  0.5224960000000 1.0
C      1  0.4958790000000  0.5496100000000  0.4149380000000 1.0
C      1  0.4461110000000  0.4358540000000  0.4631710000000 1.0
C      1  0.5156010000000  0.5260920000000  0.4198000000000 1.0
C      1  0.4762080000000  0.4793650000000  0.4718360000000 1.0
C      1  0.5526300000000  0.5057800000000  0.5802280000000 1.0
C      1  0.5590300000000  0.4566730000000  0.5571600000000 1.0
C      1  0.5199220000000  0.4718100000000  0.4994920000000 1.0
END
