TITL C-2778435-5768-11 0.00368966070714906 125000 -914.224004320566 0 0 156 (C1) n - 1
REM
REM in /home/nfs/bkarasulu/CARBON/AIRSS/Generating-Clusters/REBO/Only-C1/SD-CG/HFTN-CG
REM
REM
REM
REM
REM
REM ./C.cell (11c1c37f851c82e70ff6c80c92926a4b)
REM
REM compiler GCC version 9.2.1 20190827 (Red Hat 9.2.1-1)
REM options -cpp -mtune=generic -march=x86-64 -g -O0 -fpre-include=/usr/include/finclude/math-vector-fortran.h
REM seed -95612883 -658861239 -1323922774 1594800697 -784575339 -1309357198 -1505260385 1343546287 1628510873 1267468143 686195324 -985777562 -38071845 -1375114065 927382208 182901698 -461216918 1551332625 2065428726 -142401630 -995481754 1978380376 707127104 566178290 545961799 551983180 1823239744 106280276 2017539508 -565865623 -1274941966 427863048 -1746271877
REM
CELL 1.54180   50.00000   50.00000   50.00000   90.00000   90.00000   90.00000
LATT -1
SFAC C  
C      1  0.5141470000000  0.5943180000000  0.4239320000000 1.0
C      1  0.4704800000000  0.4530040000000  0.4387230000000 1.0
C      1  0.5017170000000  0.4637540000000  0.4834530000000 1.0
C      1  0.5564720000000  0.4822330000000  0.4204210000000 1.0
C      1  0.4434530000000  0.4891060000000  0.5577070000000 1.0
C      1  0.4414950000000  0.5716250000000  0.5140370000000 1.0
C      1  0.5638270000000  0.5198480000000  0.4614850000000 1.0
C      1  0.4170970000000  0.4713350000000  0.4554280000000 1.0
C      1  0.5289880000000  0.4760090000000  0.4484020000000 1.0
C      1  0.5327540000000  0.4841480000000  0.5845590000000 1.0
C      1  0.4948170000000  0.4168880000000  0.5907570000000 1.0
C      1  0.4733010000000  0.6087440000000  0.5195010000000 1.0
C      1  0.4962250000000  0.4627230000000  0.4214690000000 1.0
C      1  0.5033390000000  0.4329500000000  0.4754410000000 1.0
C      1  0.5778240000000  0.4498130000000  0.5299030000000 1.0
C      1  0.5170310000000  0.4806390000000  0.5328280000000 1.0
C      1  0.5256520000000  0.5337130000000  0.4418730000000 1.0
C      1  0.5825780000000  0.5558190000000  0.4868130000000 1.0
C      1  0.5442140000000  0.5189560000000  0.5469890000000 1.0
C      1  0.4613360000000  0.5104380000000  0.4878890000000 1.0
C      1  0.5110590000000  0.4941900000000  0.6070840000000 1.0
C      1  0.4786730000000  0.4895560000000  0.5389150000000 1.0
C      1  0.4589260000000  0.4763990000000  0.4169730000000 1.0
C      1  0.5448040000000  0.5252240000000  0.4853900000000 1.0
C      1  0.4428070000000  0.5594650000000  0.4605910000000 1.0
C      1  0.3951380000000  0.5318380000000  0.5208050000000 1.0
C      1  0.4914610000000  0.4640450000000  0.5221150000000 1.0
C      1  0.5559970000000  0.5461490000000  0.5592550000000 1.0
C      1  0.4493870000000  0.4138260000000  0.4829330000000 1.0
C      1  0.4565090000000  0.4129280000000  0.5339180000000 1.0
C      1  0.5271350000000  0.4499750000000  0.4265070000000 1.0
C      1  0.3947360000000  0.5017200000000  0.5038770000000 1.0
C      1  0.5648900000000  0.4717130000000  0.5508480000000 1.0
C      1  0.5438110000000  0.4520170000000  0.4654060000000 1.0
C      1  0.4609900000000  0.5661050000000  0.4326160000000 1.0
C      1  0.4939590000000  0.4336200000000  0.5083840000000 1.0
C      1  0.4343480000000  0.4439950000000  0.4784670000000 1.0
C      1  0.4928010000000  0.5646350000000  0.3793020000000 1.0
C      1  0.5381490000000  0.5002450000000  0.5004360000000 1.0
C      1  0.5892840000000  0.5304140000000  0.4903910000000 1.0
C      1  0.5695830000000  0.4215540000000  0.4676530000000 1.0
C      1  0.4487030000000  0.5182710000000  0.4333430000000 1.0
C      1  0.4060870000000  0.4784950000000  0.5242030000000 1.0
C      1  0.5013630000000  0.5612180000000  0.5808570000000 1.0
C      1  0.4461040000000  0.5386060000000  0.5129870000000 1.0
C      1  0.5573910000000  0.5013630000000  0.5251290000000 1.0
C      1  0.4911740000000  0.5563810000000  0.4779920000000 1.0
C      1  0.5012780000000  0.5961430000000  0.5158610000000 1.0
C      1  0.5135730000000  0.5727470000000  0.5575650000000 1.0
C      1  0.5830400000000  0.4504250000000  0.4727880000000 1.0
C      1  0.4810870000000  0.5480900000000  0.5290810000000 1.0
C      1  0.4941510000000  0.5373730000000  0.3777120000000 1.0
C      1  0.4949560000000  0.5197640000000  0.5701970000000 1.0
C      1  0.5252790000000  0.4398320000000  0.5606070000000 1.0
C      1  0.5958950000000  0.4472440000000  0.5030360000000 1.0
C      1  0.5124510000000  0.3993340000000  0.5165790000000 1.0
C      1  0.4941840000000  0.5743200000000  0.5369450000000 1.0
C      1  0.5450810000000  0.5320330000000  0.5846960000000 1.0
C      1  0.4049150000000  0.5238700000000  0.5502880000000 1.0
C      1  0.4796930000000  0.4796560000000  0.5711270000000 1.0
C      1  0.4540580000000  0.4511830000000  0.5225730000000 1.0
C      1  0.4491890000000  0.5343100000000  0.6084480000000 1.0
C      1  0.4922790000000  0.5234060000000  0.4863940000000 1.0
C      1  0.4773820000000  0.5425120000000  0.4500890000000 1.0
C      1  0.4895560000000  0.5210420000000  0.4306660000000 1.0
C      1  0.4255790000000  0.5256730000000  0.4959680000000 1.0
C      1  0.4630180000000  0.4239470000000  0.4345130000000 1.0
C      1  0.5228600000000  0.5556120000000  0.4204430000000 1.0
C      1  0.4628820000000  0.5065570000000  0.4047280000000 1.0
C      1  0.4595230000000  0.4455290000000  0.5761990000000 1.0
C      1  0.4936200000000  0.4914060000000  0.4041930000000 1.0
C      1  0.4044060000000  0.4957050000000  0.5524160000000 1.0
C      1  0.5443200000000  0.5737630000000  0.5455730000000 1.0
C      1  0.5030540000000  0.4677250000000  0.5895160000000 1.0
C      1  0.4847420000000  0.4065300000000  0.5254360000000 1.0
C      1  0.5074700000000  0.3932980000000  0.4775050000000 1.0
C      1  0.4454640000000  0.4828020000000  0.4472430000000 1.0
C      1  0.4571960000000  0.4911600000000  0.5892650000000 1.0
C      1  0.5928250000000  0.4778790000000  0.4907670000000 1.0
C      1  0.4591290000000  0.5396810000000  0.4126860000000 1.0
C      1  0.4625220000000  0.5850290000000  0.5587350000000 1.0
C      1  0.5437230000000  0.5049000000000  0.4416730000000 1.0
C      1  0.5547790000000  0.5051060000000  0.5828840000000 1.0
C      1  0.4657990000000  0.5116030000000  0.6069840000000 1.0
C      1  0.5291420000000  0.5761040000000  0.5178850000000 1.0
C      1  0.5324030000000  0.4687700000000  0.5560750000000 1.0
C      1  0.4390030000000  0.4785270000000  0.5287470000000 1.0
C      1  0.5249850000000  0.4693160000000  0.5011830000000 1.0
C      1  0.5247080000000  0.4783780000000  0.4087960000000 1.0
C      1  0.4657860000000  0.5148350000000  0.5585270000000 1.0
C      1  0.4995290000000  0.4288950000000  0.5623490000000 1.0
C      1  0.5523970000000  0.4682830000000  0.5194640000000 1.0
C      1  0.4859510000000  0.4077070000000  0.4319230000000 1.0
C      1  0.4762520000000  0.5811950000000  0.4591440000000 1.0
C      1  0.5892400000000  0.5023360000000  0.4711970000000 1.0
C      1  0.5423090000000  0.5809720000000  0.4276110000000 1.0
C      1  0.4714060000000  0.4638190000000  0.4958900000000 1.0
C      1  0.5416110000000  0.4345760000000  0.4880250000000 1.0
C      1  0.5059980000000  0.4098790000000  0.4514630000000 1.0
C      1  0.4575240000000  0.4617950000000  0.4690520000000 1.0
C      1  0.4555570000000  0.5920750000000  0.5323870000000 1.0
C      1  0.5473750000000  0.4222780000000  0.5584000000000 1.0
C      1  0.5020330000000  0.4821240000000  0.4596990000000 1.0
C      1  0.4262600000000  0.5462810000000  0.5618410000000 1.0
C      1  0.5076690000000  0.5041400000000  0.5098420000000 1.0
C      1  0.5022080000000  0.5976340000000  0.4494620000000 1.0
C      1  0.4534020000000  0.5397500000000  0.5462070000000 1.0
C      1  0.4400960000000  0.4169580000000  0.4502620000000 1.0
C      1  0.5547710000000  0.4173710000000  0.5320120000000 1.0
C      1  0.5680300000000  0.4611890000000  0.4447640000000 1.0
C      1  0.4339190000000  0.4947870000000  0.5005550000000 1.0
C      1  0.4710670000000  0.5163490000000  0.5193000000000 1.0
C      1  0.5151860000000  0.5207280000000  0.5504990000000 1.0
C      1  0.5222530000000  0.5962240000000  0.4695950000000 1.0
C      1  0.5745550000000  0.4979340000000  0.5622970000000 1.0
C      1  0.4177590000000  0.4522700000000  0.5058960000000 1.0
C      1  0.5969890000000  0.5489060000000  0.4357600000000 1.0
C      1  0.5616120000000  0.4042280000000  0.4934210000000 1.0
C      1  0.5877420000000  0.5045100000000  0.5114300000000 1.0
C      1  0.4521010000000  0.5267090000000  0.4636560000000 1.0
C      1  0.4985310000000  0.5230770000000  0.3999690000000 1.0
C      1  0.5898670000000  0.5147730000000  0.5438070000000 1.0
C      1  0.4475910000000  0.5506730000000  0.5857860000000 1.0
C      1  0.5329800000000  0.4226520000000  0.5142160000000 1.0
C      1  0.4778090000000  0.4921810000000  0.4408710000000 1.0
C      1  0.5091670000000  0.5796280000000  0.4900730000000 1.0
C      1  0.5778710000000  0.5719230000000  0.5390860000000 1.0
C      1  0.4169840000000  0.5442430000000  0.4694560000000 1.0
C      1  0.4166600000000  0.4395580000000  0.4504840000000 1.0
C      1  0.4818260000000  0.4443630000000  0.5945430000000 1.0
C      1  0.4714620000000  0.4375870000000  0.5486090000000 1.0
C      1  0.5440990000000  0.4259810000000  0.4262270000000 1.0
C      1  0.5822570000000  0.4189620000000  0.5160690000000 1.0
C      1  0.5859050000000  0.5429280000000  0.5474040000000 1.0
C      1  0.5047520000000  0.5142470000000  0.4600480000000 1.0
C      1  0.5611930000000  0.4152840000000  0.4408670000000 1.0
C      1  0.4709630000000  0.5656550000000  0.5782010000000 1.0
C      1  0.5276890000000  0.5475400000000  0.5043230000000 1.0
C      1  0.3927300000000  0.5310880000000  0.4874900000000 1.0
C      1  0.5820420000000  0.4908890000000  0.4414340000000 1.0
C      1  0.5072670000000  0.5326590000000  0.5222980000000 1.0
C      1  0.4939430000000  0.5154670000000  0.5992290000000 1.0
C      1  0.4106710000000  0.4782260000000  0.4847070000000 1.0
C      1  0.4371840000000  0.4609010000000  0.5735570000000 1.0
C      1  0.4796140000000  0.4110580000000  0.4862820000000 1.0
C      1  0.4361240000000  0.4242130000000  0.5125070000000 1.0
C      1  0.4160180000000  0.5566320000000  0.5310960000000 1.0
C      1  0.5728390000000  0.5458740000000  0.4484830000000 1.0
C      1  0.5028460000000  0.5751230000000  0.4029380000000 1.0
C      1  0.5332470000000  0.3890150000000  0.4930270000000 1.0
C      1  0.5703300000000  0.5793650000000  0.4810580000000 1.0
C      1  0.5503640000000  0.5961920000000  0.4726860000000 1.0
C      1  0.5511600000000  0.5634320000000  0.4498190000000 1.0
C      1  0.4532160000000  0.5781190000000  0.4842580000000 1.0
C      1  0.5208940000000  0.5445020000000  0.5944310000000 1.0
C      1  0.5301030000000  0.5509590000000  0.4706780000000 1.0
END
