TITL C-2778435-5768-1281 0.0125391594757951 125000 -241.442143212518 0 0 45 (C1) n - 1
REM
REM in /home/nfs/bkarasulu/CARBON/AIRSS/Generating-Clusters/REBO/Only-C1/SD-CG/HFTN-CG
REM
REM
REM
REM
REM
REM ./C.cell (11c1c37f851c82e70ff6c80c92926a4b)
REM
REM compiler GCC version 9.2.1 20190827 (Red Hat 9.2.1-1)
REM options -cpp -mtune=generic -march=x86-64 -g -O0 -fpre-include=/usr/include/finclude/math-vector-fortran.h
REM seed -1626604680 -1168020640 721303580 1243280134 -228075356 -80982587 -1579654501 2026527910 -2124715917 -1668485436 1859027510 -693728796 -1379985096 2033013651 433753921 -660922668 -1190425586 -1352793785 -1699007796 2535812 627186167 1644927615 1056240729 -129087389 1773193047 1065069574 815899020 1441115456 -594841290 -1393955601 642916879 -1318446179 -376599432
REM
CELL 1.54180   50.00000   50.00000   50.00000   90.00000   90.00000   90.00000
LATT -1
SFAC C  
C      1  0.4554710000000  0.4382110000000  0.5605680000000 1.0
C      1  0.5217510000000  0.4907980000000  0.5386450000000 1.0
C      1  0.5047060000000  0.5517190000000  0.4689800000000 1.0
C      1  0.4752810000000  0.5343840000000  0.4893870000000 1.0
C      1  0.4948990000000  0.4999150000000  0.5472460000000 1.0
C      1  0.5641760000000  0.5054950000000  0.5184040000000 1.0
C      1  0.5653580000000  0.4266280000000  0.4960520000000 1.0
C      1  0.4885840000000  0.5375080000000  0.4475920000000 1.0
C      1  0.5814320000000  0.5009480000000  0.4919540000000 1.0
C      1  0.4905700000000  0.4965540000000  0.4256270000000 1.0
C      1  0.4644150000000  0.4602290000000  0.5485490000000 1.0
C      1  0.5426450000000  0.5326200000000  0.4987550000000 1.0
C      1  0.5762780000000  0.4424900000000  0.5607400000000 1.0
C      1  0.4733450000000  0.4822150000000  0.5365480000000 1.0
C      1  0.6178960000000  0.4640070000000  0.4845540000000 1.0
C      1  0.4466700000000  0.4165440000000  0.5723960000000 1.0
C      1  0.4465910000000  0.4794450000000  0.4574160000000 1.0
C      1  0.4590220000000  0.4965060000000  0.4373950000000 1.0
C      1  0.4956240000000  0.5595650000000  0.4998770000000 1.0
C      1  0.5194980000000  0.5228130000000  0.4676610000000 1.0
C      1  0.5274000000000  0.5546920000000  0.5016230000000 1.0
C      1  0.4890860000000  0.5207270000000  0.5734140000000 1.0
C      1  0.5122750000000  0.5071270000000  0.4911970000000 1.0
C      1  0.4780800000000  0.5508490000000  0.5255460000000 1.0
C      1  0.5073380000000  0.5141900000000  0.4388470000000 1.0
C      1  0.5949100000000  0.4713510000000  0.4974120000000 1.0
C      1  0.5652560000000  0.4574580000000  0.5399590000000 1.0
C      1  0.4632490000000  0.4927010000000  0.5104750000000 1.0
C      1  0.5813730000000  0.4819410000000  0.5267250000000 1.0
C      1  0.4882250000000  0.5334010000000  0.5444540000000 1.0
C      1  0.4840280000000  0.5089730000000  0.4958870000000 1.0
C      1  0.4139250000000  0.4956050000000  0.5012370000000 1.0
C      1  0.4319440000000  0.5455070000000  0.4379720000000 1.0
C      1  0.4505670000000  0.5501820000000  0.5183930000000 1.0
C      1  0.5327180000000  0.5064280000000  0.5159200000000 1.0
C      1  0.4408360000000  0.4779540000000  0.4902530000000 1.0
C      1  0.5661660000000  0.5256870000000  0.4839780000000 1.0
C      1  0.4597380000000  0.5272880000000  0.4453050000000 1.0
C      1  0.4706840000000  0.4779900000000  0.4108360000000 1.0
C      1  0.4382260000000  0.5400250000000  0.4683950000000 1.0
C      1  0.5364880000000  0.4684260000000  0.5451330000000 1.0
C      1  0.4343450000000  0.5082650000000  0.5151910000000 1.0
C      1  0.4379700000000  0.4511670000000  0.4695780000000 1.0
C      1  0.4373050000000  0.5454730000000  0.4950970000000 1.0
C      1  0.5736540000000  0.4480000000000  0.5088250000000 1.0
END
