TITL C-2778425-5191-1244 -0.000272979979077852 125000 -1024.75985917091 0 0 176 (C1) n - 1
REM
REM in /home/nfs/bkarasulu/CARBON/AIRSS/Generating-Clusters/REBO/Only-C1/SD-CG/HFTN-CG
REM
REM
REM
REM
REM
REM ./C.cell (11c1c37f851c82e70ff6c80c92926a4b)
REM
REM compiler GCC version 9.2.1 20190827 (Red Hat 9.2.1-1)
REM options -cpp -mtune=generic -march=x86-64 -g -O0 -fpre-include=/usr/include/finclude/math-vector-fortran.h
REM seed -2122620814 942583312 1793427971 2048031980 52384763 -1377219133 948475898 -2058786947 1608382734 -489605083 878070395 1610859183 76433509 -1923376092 -1160458823 -468757662 915415255 -155307740 -1933149435 207422486 -1417495543 -1312717842 -949262728 960346695 1485401525 1499030119 435690369 -1386286511 1368170315 -55478478 1740201817 -1393763678 -1334728845
REM
CELL 1.54180   50.00000   50.00000   50.00000   90.00000   90.00000   90.00000
LATT -1
SFAC C  
C      1  0.3757730000000  0.5472710000000  0.5120200000000 1.0
C      1  0.4837380000000  0.3956730000000  0.5489300000000 1.0
C      1  0.4623700000000  0.4659310000000  0.4056660000000 1.0
C      1  0.5074470000000  0.4874160000000  0.4758780000000 1.0
C      1  0.4016480000000  0.4935650000000  0.5484820000000 1.0
C      1  0.4248180000000  0.4530340000000  0.4382540000000 1.0
C      1  0.5361180000000  0.4986590000000  0.5308010000000 1.0
C      1  0.5444350000000  0.4991500000000  0.4197490000000 1.0
C      1  0.5077680000000  0.4682770000000  0.4521910000000 1.0
C      1  0.5857740000000  0.4307150000000  0.5494430000000 1.0
C      1  0.4742180000000  0.5792550000000  0.4286290000000 1.0
C      1  0.5860700000000  0.4550250000000  0.5051890000000 1.0
C      1  0.4535130000000  0.5729840000000  0.5520090000000 1.0
C      1  0.4416320000000  0.4180790000000  0.4853780000000 1.0
C      1  0.5875960000000  0.5491510000000  0.4847020000000 1.0
C      1  0.3789650000000  0.5308380000000  0.4824100000000 1.0
C      1  0.5425890000000  0.4467490000000  0.5241770000000 1.0
C      1  0.4625260000000  0.4780080000000  0.4610490000000 1.0
C      1  0.5658540000000  0.4675100000000  0.4319240000000 1.0
C      1  0.5735490000000  0.5339650000000  0.5103180000000 1.0
C      1  0.5140590000000  0.4000230000000  0.4980540000000 1.0
C      1  0.4608340000000  0.5366660000000  0.5315620000000 1.0
C      1  0.5217360000000  0.5096480000000  0.5801090000000 1.0
C      1  0.5641860000000  0.5393370000000  0.5702740000000 1.0
C      1  0.5798000000000  0.4785930000000  0.4542330000000 1.0
C      1  0.5270150000000  0.4751880000000  0.4286670000000 1.0
C      1  0.4461960000000  0.5578310000000  0.4703850000000 1.0
C      1  0.5432330000000  0.4022190000000  0.4813350000000 1.0
C      1  0.5304580000000  0.5017620000000  0.3824380000000 1.0
C      1  0.5659890000000  0.5594650000000  0.4391150000000 1.0
C      1  0.5539890000000  0.5905080000000  0.5242920000000 1.0
C      1  0.5419880000000  0.4511060000000  0.4755880000000 1.0
C      1  0.5103450000000  0.4369580000000  0.5452320000000 1.0
C      1  0.5032540000000  0.4633840000000  0.5746570000000 1.0
C      1  0.5770070000000  0.5112270000000  0.4197960000000 1.0
C      1  0.4821510000000  0.5603160000000  0.4058570000000 1.0
C      1  0.5472140000000  0.5513980000000  0.5231970000000 1.0
C      1  0.5404450000000  0.5279390000000  0.4891430000000 1.0
C      1  0.4167610000000  0.5604910000000  0.4648960000000 1.0
C      1  0.4971260000000  0.5886820000000  0.4975180000000 1.0
C      1  0.4288970000000  0.4504600000000  0.5716140000000 1.0
C      1  0.6051090000000  0.4753520000000  0.5458870000000 1.0
C      1  0.5351210000000  0.5965530000000  0.4655730000000 1.0
C      1  0.5271300000000  0.5257820000000  0.5181280000000 1.0
C      1  0.4178020000000  0.5078280000000  0.4807780000000 1.0
C      1  0.4301360000000  0.4249450000000  0.5563750000000 1.0
C      1  0.4663730000000  0.6065120000000  0.4321600000000 1.0
C      1  0.5932540000000  0.5184390000000  0.4793730000000 1.0
C      1  0.4506000000000  0.5458440000000  0.5821270000000 1.0
C      1  0.5711800000000  0.5519110000000  0.5457150000000 1.0
C      1  0.4316780000000  0.4787320000000  0.4573790000000 1.0
C      1  0.4972880000000  0.5318490000000  0.5151180000000 1.0
C      1  0.5644820000000  0.4337360000000  0.4936460000000 1.0
C      1  0.4762000000000  0.4442090000000  0.5641190000000 1.0
C      1  0.4754620000000  0.4982520000000  0.4413940000000 1.0
C      1  0.4604340000000  0.4928790000000  0.4141510000000 1.0
C      1  0.5595210000000  0.4733580000000  0.4944200000000 1.0
C      1  0.5085790000000  0.6010820000000  0.4714580000000 1.0
C      1  0.4778720000000  0.5469580000000  0.5925840000000 1.0
C      1  0.4283010000000  0.5584220000000  0.5242260000000 1.0
C      1  0.4885340000000  0.4621800000000  0.5380370000000 1.0
C      1  0.4704870000000  0.5130700000000  0.5459280000000 1.0
C      1  0.4077190000000  0.5854770000000  0.4713410000000 1.0
C      1  0.4722200000000  0.5374580000000  0.4265210000000 1.0
C      1  0.4891590000000  0.5458570000000  0.4701100000000 1.0
C      1  0.4345870000000  0.4716880000000  0.5472990000000 1.0
C      1  0.5611080000000  0.5037500000000  0.3903960000000 1.0
C      1  0.4558600000000  0.5304880000000  0.4546260000000 1.0
C      1  0.5254180000000  0.4477130000000  0.3871120000000 1.0
C      1  0.5436910000000  0.4161790000000  0.4503220000000 1.0
C      1  0.5997650000000  0.5088930000000  0.5461760000000 1.0
C      1  0.4957190000000  0.5497540000000  0.3830800000000 1.0
C      1  0.4297160000000  0.5491170000000  0.5565040000000 1.0
C      1  0.4938810000000  0.4571510000000  0.4095340000000 1.0
C      1  0.6179000000000  0.5016130000000  0.4938000000000 1.0
C      1  0.5740580000000  0.5730100000000  0.5028940000000 1.0
C      1  0.4506330000000  0.6083120000000  0.4838850000000 1.0
C      1  0.5614050000000  0.4260040000000  0.5625740000000 1.0
C      1  0.4942920000000  0.5174570000000  0.4530550000000 1.0
C      1  0.4794860000000  0.4585710000000  0.4407020000000 1.0
C      1  0.5021170000000  0.3949010000000  0.5262260000000 1.0
C      1  0.4533040000000  0.5617150000000  0.5013880000000 1.0
C      1  0.4443060000000  0.5179460000000  0.4262750000000 1.0
C      1  0.5420490000000  0.4495550000000  0.4438420000000 1.0
C      1  0.4229040000000  0.6004510000000  0.4904950000000 1.0
C      1  0.5683300000000  0.4673410000000  0.5882420000000 1.0
C      1  0.4828390000000  0.5624310000000  0.5103460000000 1.0
C      1  0.5174590000000  0.4152490000000  0.4312340000000 1.0
C      1  0.4923470000000  0.4437590000000  0.5987200000000 1.0
C      1  0.4215250000000  0.4495780000000  0.4721120000000 1.0
C      1  0.5881400000000  0.5484350000000  0.4529480000000 1.0
C      1  0.5219510000000  0.5706100000000  0.5109820000000 1.0
C      1  0.4642490000000  0.4980150000000  0.5823910000000 1.0
C      1  0.5283940000000  0.5816930000000  0.5411520000000 1.0
C      1  0.5396180000000  0.4487180000000  0.5559150000000 1.0
C      1  0.5490260000000  0.5591520000000  0.4841210000000 1.0
C      1  0.5507310000000  0.5228060000000  0.4510950000000 1.0
C      1  0.5995450000000  0.5242680000000  0.4404220000000 1.0
C      1  0.4551750000000  0.4430460000000  0.4783530000000 1.0
C      1  0.5476010000000  0.4153200000000  0.5127550000000 1.0
C      1  0.4152130000000  0.4271540000000  0.4974540000000 1.0
C      1  0.5874590000000  0.4568050000000  0.4711440000000 1.0
C      1  0.5193050000000  0.4324260000000  0.4886940000000 1.0
C      1  0.4232040000000  0.5250640000000  0.5252250000000 1.0
C      1  0.5953340000000  0.4503190000000  0.5330190000000 1.0
C      1  0.4850110000000  0.5244700000000  0.6088710000000 1.0
C      1  0.5152030000000  0.5286970000000  0.3836230000000 1.0
C      1  0.4580650000000  0.6148310000000  0.4572600000000 1.0
C      1  0.5203200000000  0.4908790000000  0.6040730000000 1.0
C      1  0.4891070000000  0.5038900000000  0.4974690000000 1.0
C      1  0.5066460000000  0.4384480000000  0.4618680000000 1.0
C      1  0.4517430000000  0.5903020000000  0.5292490000000 1.0
C      1  0.5723180000000  0.4291270000000  0.4619210000000 1.0
C      1  0.5437060000000  0.5775950000000  0.4469320000000 1.0
C      1  0.5359130000000  0.4094570000000  0.5608970000000 1.0
C      1  0.5146080000000  0.4299950000000  0.4077520000000 1.0
C      1  0.3931330000000  0.5304590000000  0.5359610000000 1.0
C      1  0.4471840000000  0.4782890000000  0.5100590000000 1.0
C      1  0.4418680000000  0.4569600000000  0.5954180000000 1.0
C      1  0.4920760000000  0.4963130000000  0.6110330000000 1.0
C      1  0.5306750000000  0.4010760000000  0.5343510000000 1.0
C      1  0.3986220000000  0.4937880000000  0.5211290000000 1.0
C      1  0.5152230000000  0.5574650000000  0.4803550000000 1.0
C      1  0.5025360000000  0.5903470000000  0.5596680000000 1.0
C      1  0.4038730000000  0.5328680000000  0.4635250000000 1.0
C      1  0.4117940000000  0.5208520000000  0.5630610000000 1.0
C      1  0.5263620000000  0.5272280000000  0.4128100000000 1.0
C      1  0.4975730000000  0.3947820000000  0.5733690000000 1.0
C      1  0.5946550000000  0.5364950000000  0.5339500000000 1.0
C      1  0.4957450000000  0.5536380000000  0.5405420000000 1.0
C      1  0.4919210000000  0.4170390000000  0.4470790000000 1.0
C      1  0.4751140000000  0.3969710000000  0.4900250000000 1.0
C      1  0.4376170000000  0.4516180000000  0.5228450000000 1.0
C      1  0.4623680000000  0.4182430000000  0.5526820000000 1.0
C      1  0.5556720000000  0.5372280000000  0.4202860000000 1.0
C      1  0.4834870000000  0.4917390000000  0.5249300000000 1.0
C      1  0.5513620000000  0.5936260000000  0.4907260000000 1.0
C      1  0.4196480000000  0.4921670000000  0.5028280000000 1.0
C      1  0.6194170000000  0.5093300000000  0.4606950000000 1.0
C      1  0.5176490000000  0.4780570000000  0.3964640000000 1.0
C      1  0.4477860000000  0.5301790000000  0.5038640000000 1.0
C      1  0.4398750000000  0.5178690000000  0.5793010000000 1.0
C      1  0.3761020000000  0.5131300000000  0.5113350000000 1.0
C      1  0.5584570000000  0.5044370000000  0.5056410000000 1.0
C      1  0.4803590000000  0.5669400000000  0.5659070000000 1.0
C      1  0.4913610000000  0.5145140000000  0.5707670000000 1.0
C      1  0.5213220000000  0.5556410000000  0.5608530000000 1.0
C      1  0.4680520000000  0.5993320000000  0.5059730000000 1.0
C      1  0.4228350000000  0.5089590000000  0.4479380000000 1.0
C      1  0.4468990000000  0.4457640000000  0.4213650000000 1.0
C      1  0.4999990000000  0.4341460000000  0.5131930000000 1.0
C      1  0.5434050000000  0.4993950000000  0.5594120000000 1.0
C      1  0.5725400000000  0.5046680000000  0.4622190000000 1.0
C      1  0.4753190000000  0.4175530000000  0.5068550000000 1.0
C      1  0.4666100000000  0.4276190000000  0.4360730000000 1.0
C      1  0.5098230000000  0.4241560000000  0.5770480000000 1.0
C      1  0.4231340000000  0.5900720000000  0.5174020000000 1.0
C      1  0.5291700000000  0.5492880000000  0.4508910000000 1.0
C      1  0.4684090000000  0.5220480000000  0.4831380000000 1.0
C      1  0.5726070000000  0.5100980000000  0.5661620000000 1.0
C      1  0.4727230000000  0.5664800000000  0.4538790000000 1.0
C      1  0.5235150000000  0.5132350000000  0.4670140000000 1.0
C      1  0.5868670000000  0.4822990000000  0.5727990000000 1.0
C      1  0.4421200000000  0.5014590000000  0.5345240000000 1.0
C      1  0.6170570000000  0.4948790000000  0.5206630000000 1.0
C      1  0.4157450000000  0.4221870000000  0.5278110000000 1.0
C      1  0.5359790000000  0.4723420000000  0.5790480000000 1.0
C      1  0.4522700000000  0.4242710000000  0.5234350000000 1.0
C      1  0.5007980000000  0.4885200000000  0.5538110000000 1.0
C      1  0.5302830000000  0.4726230000000  0.5117070000000 1.0
C      1  0.5383870000000  0.5458720000000  0.5788900000000 1.0
C      1  0.5057800000000  0.5390130000000  0.4318260000000 1.0
C      1  0.4694500000000  0.4697740000000  0.4906210000000 1.0
C      1  0.4609960000000  0.4728390000000  0.5642450000000 1.0
C      1  0.4720740000000  0.4709480000000  0.6023470000000 1.0
C      1  0.5003100000000  0.4655840000000  0.5001150000000 1.0
END
