TITL C-2778433-5640-1479 0.445111388886185 125000 -731.348500950517 0 0 125 (C1) n - 1
REM
REM in /home/nfs/bkarasulu/CARBON/AIRSS/Generating-Clusters/REBO/Only-C1/SD-CG/HFTN-CG
REM
REM
REM
REM
REM
REM ./C.cell (11c1c37f851c82e70ff6c80c92926a4b)
REM
REM compiler GCC version 9.2.1 20190827 (Red Hat 9.2.1-1)
REM options -cpp -mtune=generic -march=x86-64 -g -O0 -fpre-include=/usr/include/finclude/math-vector-fortran.h
REM seed -17961729 679537503 -1021353546 -357143925 1110077960 1909844549 1923154273 1593372189 1998051590 604826854 -845116298 179630446 -1112762453 -986900100 1068599405 1771988503 -637170225 1650713251 -1506454687 -1940071698 -1879346472 -1102110619 -491111837 -5343761 105287158 668019760 907117980 -581158365 1359537907 571164758 624996846 2112284210 -1413736665
REM
CELL 1.54180   50.00000   50.00000   50.00000   90.00000   90.00000   90.00000
LATT -1
SFAC C  
C      1  0.5955960000000  0.5278010000000  0.5212050000000 1.0
C      1  0.5162670000000  0.5105780000000  0.4046240000000 1.0
C      1  0.4390690000000  0.5177520000000  0.5582430000000 1.0
C      1  0.4477430000000  0.4274920000000  0.5094160000000 1.0
C      1  0.4682430000000  0.5317400000000  0.4198960000000 1.0
C      1  0.5719920000000  0.5184810000000  0.4310260000000 1.0
C      1  0.5414300000000  0.4824700000000  0.4168740000000 1.0
C      1  0.3967590000000  0.5079640000000  0.4697670000000 1.0
C      1  0.5091940000000  0.5099830000000  0.5193130000000 1.0
C      1  0.5084580000000  0.4330450000000  0.5521070000000 1.0
C      1  0.5125460000000  0.4766800000000  0.4060810000000 1.0
C      1  0.5194240000000  0.4785630000000  0.5209320000000 1.0
C      1  0.4814050000000  0.5298260000000  0.5188430000000 1.0
C      1  0.4071080000000  0.5023490000000  0.5235000000000 1.0
C      1  0.4944900000000  0.4594920000000  0.5911600000000 1.0
C      1  0.3650260000000  0.5363010000000  0.5374800000000 1.0
C      1  0.5070050000000  0.4001440000000  0.5099820000000 1.0
C      1  0.4361470000000  0.4506000000000  0.4870490000000 1.0
C      1  0.5094230000000  0.4510180000000  0.5046430000000 1.0
C      1  0.4510300000000  0.4625130000000  0.4219090000000 1.0
C      1  0.4641440000000  0.4445760000000  0.4453130000000 1.0
C      1  0.4990710000000  0.5043330000000  0.5574340000000 1.0
C      1  0.4443930000000  0.4343110000000  0.5426690000000 1.0
C      1  0.4841640000000  0.5874310000000  0.5079330000000 1.0
C      1  0.5429590000000  0.5098150000000  0.5133960000000 1.0
C      1  0.5918610000000  0.5044140000000  0.4995730000000 1.0
C      1  0.5382270000000  0.5772730000000  0.4633880000000 1.0
C      1  0.5699400000000  0.4732160000000  0.4558600000000 1.0
C      1  0.5218630000000  0.5557990000000  0.5205890000000 1.0
C      1  0.5027590000000  0.4562420000000  0.4315690000000 1.0
C      1  0.4238160000000  0.4722930000000  0.4729910000000 1.0
C      1  0.5495210000000  0.4636480000000  0.5453840000000 1.0
C      1  0.4755470000000  0.4878740000000  0.5929450000000 1.0
C      1  0.5007800000000  0.4895960000000  0.4420190000000 1.0
C      1  0.5234830000000  0.4676000000000  0.5976640000000 1.0
C      1  0.5112920000000  0.5848730000000  0.4917130000000 1.0
C      1  0.5264540000000  0.5043940000000  0.4840350000000 1.0
C      1  0.4455590000000  0.4122010000000  0.4811080000000 1.0
C      1  0.4608130000000  0.5151040000000  0.5832470000000 1.0
C      1  0.4375340000000  0.5654900000000  0.5033550000000 1.0
C      1  0.6036760000000  0.5432830000000  0.4928960000000 1.0
C      1  0.4590790000000  0.4457280000000  0.5646820000000 1.0
C      1  0.5603400000000  0.5627630000000  0.5124880000000 1.0
C      1  0.5303030000000  0.5388390000000  0.4175750000000 1.0
C      1  0.5740730000000  0.4906710000000  0.5822950000000 1.0
C      1  0.5690350000000  0.4292740000000  0.4774200000000 1.0
C      1  0.4860160000000  0.4413710000000  0.5719270000000 1.0
C      1  0.5495750000000  0.5095440000000  0.5744000000000 1.0
C      1  0.5248820000000  0.4887650000000  0.5639560000000 1.0
C      1  0.5474210000000  0.5566780000000  0.4410360000000 1.0
C      1  0.5228690000000  0.5180220000000  0.5910100000000 1.0
C      1  0.4925620000000  0.5585580000000  0.5222420000000 1.0
C      1  0.5824910000000  0.5139800000000  0.4758510000000 1.0
C      1  0.4415930000000  0.5438890000000  0.4839720000000 1.0
C      1  0.5072320000000  0.4659380000000  0.5485770000000 1.0
C      1  0.4710940000000  0.5224080000000  0.5506010000000 1.0
C      1  0.4106660000000  0.5063740000000  0.4460250000000 1.0
C      1  0.5234600000000  0.4111130000000  0.4615560000000 1.0
C      1  0.4405610000000  0.4879270000000  0.5071780000000 1.0
C      1  0.5876380000000  0.5015140000000  0.5390220000000 1.0
C      1  0.4641490000000  0.4494340000000  0.4779790000000 1.0
C      1  0.5781760000000  0.5474980000000  0.4470060000000 1.0
C      1  0.5088830000000  0.5543530000000  0.4779390000000 1.0
C      1  0.4374710000000  0.5486420000000  0.4562710000000 1.0
C      1  0.4792760000000  0.4395790000000  0.5134270000000 1.0
C      1  0.5440050000000  0.5748770000000  0.4933260000000 1.0
C      1  0.3887290000000  0.5269200000000  0.5344230000000 1.0
C      1  0.5452960000000  0.4740720000000  0.4437560000000 1.0
C      1  0.5249520000000  0.5360730000000  0.4570260000000 1.0
C      1  0.4953840000000  0.4940250000000  0.4933350000000 1.0
C      1  0.4396430000000  0.5198940000000  0.4448910000000 1.0
C      1  0.4726030000000  0.4772820000000  0.4511480000000 1.0
C      1  0.4538150000000  0.5004680000000  0.4223820000000 1.0
C      1  0.4632820000000  0.5024280000000  0.5164300000000 1.0
C      1  0.4987270000000  0.4195900000000  0.5268180000000 1.0
C      1  0.4620130000000  0.5777790000000  0.4888600000000 1.0
C      1  0.4163210000000  0.4791240000000  0.5407170000000 1.0
C      1  0.5358270000000  0.4426970000000  0.5247240000000 1.0
C      1  0.4741710000000  0.5803300000000  0.5394150000000 1.0
C      1  0.5546710000000  0.5229310000000  0.4604050000000 1.0
C      1  0.4848960000000  0.5051440000000  0.4087820000000 1.0
C      1  0.4209600000000  0.5320130000000  0.5383340000000 1.0
C      1  0.4809080000000  0.4839020000000  0.5371250000000 1.0
C      1  0.5139650000000  0.4548220000000  0.4754950000000 1.0
C      1  0.5019990000000  0.5347030000000  0.5727240000000 1.0
C      1  0.4992450000000  0.5209360000000  0.4426040000000 1.0
C      1  0.5499560000000  0.5125710000000  0.4111530000000 1.0
C      1  0.4513870000000  0.4720890000000  0.5748460000000 1.0
C      1  0.5973250000000  0.5506300000000  0.4700230000000 1.0
C      1  0.5078150000000  0.4947710000000  0.6017950000000 1.0
C      1  0.4702230000000  0.5107620000000  0.4572760000000 1.0
C      1  0.5109830000000  0.5887740000000  0.4578410000000 1.0
C      1  0.5613340000000  0.4901510000000  0.5285770000000 1.0
C      1  0.5893360000000  0.4773640000000  0.5030480000000 1.0
C      1  0.4120470000000  0.4951140000000  0.4934210000000 1.0
C      1  0.5323010000000  0.5452460000000  0.5694680000000 1.0
C      1  0.5519080000000  0.4132270000000  0.4638000000000 1.0
C      1  0.5837310000000  0.4969280000000  0.4515630000000 1.0
C      1  0.4603890000000  0.4633870000000  0.5207560000000 1.0
C      1  0.5487210000000  0.4682980000000  0.5060030000000 1.0
C      1  0.4774510000000  0.5399710000000  0.5858940000000 1.0
C      1  0.5317040000000  0.4222150000000  0.5632160000000 1.0
C      1  0.4278590000000  0.4566780000000  0.5281840000000 1.0
C      1  0.4319010000000  0.4811010000000  0.4410340000000 1.0
C      1  0.5116610000000  0.3967430000000  0.4832810000000 1.0
C      1  0.4698120000000  0.5281550000000  0.4866030000000 1.0
C      1  0.4319250000000  0.4879850000000  0.5622990000000 1.0
C      1  0.5350800000000  0.5635750000000  0.5434780000000 1.0
C      1  0.4800530000000  0.4744130000000  0.4830850000000 1.0
C      1  0.4769630000000  0.5561540000000  0.4699580000000 1.0
C      1  0.4518930000000  0.4173900000000  0.4575440000000 1.0
C      1  0.4640380000000  0.5511910000000  0.4399820000000 1.0
C      1  0.5582790000000  0.5328870000000  0.5536730000000 1.0
C      1  0.5292250000000  0.5359680000000  0.4966870000000 1.0
C      1  0.5707120000000  0.5437130000000  0.5310950000000 1.0
C      1  0.5020900000000  0.5509400000000  0.4278910000000 1.0
C      1  0.5104430000000  0.4359170000000  0.4537480000000 1.0
C      1  0.4320800000000  0.5591670000000  0.5304430000000 1.0
C      1  0.5494260000000  0.4697750000000  0.5776730000000 1.0
C      1  0.5226350000000  0.4810460000000  0.4631150000000 1.0
C      1  0.5945710000000  0.4938840000000  0.5643460000000 1.0
C      1  0.4794540000000  0.4717170000000  0.4121410000000 1.0
C      1  0.4493600000000  0.5732790000000  0.5481750000000 1.0
C      1  0.5702760000000  0.4595810000000  0.4834710000000 1.0
C      1  0.4971830000000  0.5758030000000  0.4371280000000 1.0
END
