TITL C-2778424-3986-135 0.00354960893505124 125000 -625.071474722368 0 0 106 (C1) n - 1
REM
REM in /home/nfs/bkarasulu/CARBON/AIRSS/Generating-Clusters/REBO/Only-C1/SD-CG/HFTN-CG
REM
REM
REM
REM
REM
REM ./C.cell (11c1c37f851c82e70ff6c80c92926a4b)
REM
REM compiler GCC version 9.2.1 20190827 (Red Hat 9.2.1-1)
REM options -cpp -mtune=generic -march=x86-64 -g -O0 -fpre-include=/usr/include/finclude/math-vector-fortran.h
REM seed 1891823926 1199301214 -1915631812 -1473104781 -908642701 1537003618 -1681602215 1811518091 -94738923 -112870342 891490103 783503101 -979887573 461279521 1857614315 1212503807 -234286826 2008678264 1271280988 -2076237601 1168911849 1007633122 -1166276122 1526936411 1158981642 -1583971788 -2098852048 -1343362763 1920411903 246328105 569946559 -636566274 -994126199
REM
CELL 1.54180   50.00000   50.00000   50.00000   90.00000   90.00000   90.00000
LATT -1
SFAC C  
C      1  0.5699890000000  0.4713890000000  0.4705860000000 1.0
C      1  0.4296190000000  0.5302630000000  0.5143070000000 1.0
C      1  0.4357400000000  0.4491650000000  0.5197300000000 1.0
C      1  0.5312740000000  0.4937860000000  0.5890280000000 1.0
C      1  0.5114640000000  0.4708100000000  0.4787310000000 1.0
C      1  0.5226740000000  0.5470780000000  0.4924810000000 1.0
C      1  0.4712160000000  0.5738990000000  0.4617000000000 1.0
C      1  0.5312210000000  0.4421320000000  0.5595330000000 1.0
C      1  0.5132150000000  0.4768800000000  0.5515250000000 1.0
C      1  0.4746020000000  0.5647840000000  0.5700210000000 1.0
C      1  0.6156510000000  0.4961830000000  0.5327890000000 1.0
C      1  0.4064100000000  0.4599220000000  0.5445720000000 1.0
C      1  0.4610590000000  0.4266270000000  0.5238470000000 1.0
C      1  0.5675790000000  0.4561500000000  0.5207270000000 1.0
C      1  0.4613670000000  0.4632620000000  0.4926280000000 1.0
C      1  0.5454870000000  0.4874050000000  0.5306630000000 1.0
C      1  0.4666140000000  0.5091450000000  0.4407690000000 1.0
C      1  0.4983850000000  0.4796300000000  0.5807470000000 1.0
C      1  0.4768920000000  0.4718490000000  0.5368370000000 1.0
C      1  0.4259670000000  0.5358150000000  0.4637140000000 1.0
C      1  0.5472980000000  0.5862410000000  0.5444580000000 1.0
C      1  0.4490420000000  0.4641190000000  0.4368550000000 1.0
C      1  0.4490110000000  0.4862780000000  0.4818090000000 1.0
C      1  0.4503450000000  0.5133040000000  0.4932310000000 1.0
C      1  0.5768570000000  0.4814160000000  0.4997150000000 1.0
C      1  0.5296710000000  0.4568240000000  0.4321270000000 1.0
C      1  0.5015350000000  0.4628750000000  0.4168590000000 1.0
C      1  0.5545310000000  0.5068790000000  0.4971830000000 1.0
C      1  0.5338970000000  0.4701510000000  0.5045610000000 1.0
C      1  0.5423580000000  0.4398150000000  0.5291750000000 1.0
C      1  0.4970800000000  0.5275260000000  0.5350480000000 1.0
C      1  0.4984290000000  0.5737720000000  0.5565210000000 1.0
C      1  0.5044210000000  0.4183700000000  0.4673940000000 1.0
C      1  0.4582860000000  0.5424010000000  0.5624050000000 1.0
C      1  0.4434520000000  0.4389560000000  0.4893380000000 1.0
C      1  0.5631430000000  0.5157800000000  0.4517320000000 1.0
C      1  0.4790680000000  0.4089640000000  0.4830180000000 1.0
C      1  0.5428580000000  0.5456470000000  0.5760800000000 1.0
C      1  0.5360410000000  0.4681620000000  0.5737360000000 1.0
C      1  0.5288620000000  0.5389430000000  0.5309470000000 1.0
C      1  0.5626370000000  0.5588820000000  0.5535160000000 1.0
C      1  0.4335740000000  0.4781780000000  0.4577500000000 1.0
C      1  0.5035640000000  0.4684590000000  0.4504840000000 1.0
C      1  0.4822240000000  0.4548130000000  0.5638330000000 1.0
C      1  0.4915970000000  0.5045760000000  0.4639940000000 1.0
C      1  0.4254600000000  0.5612050000000  0.4769550000000 1.0
C      1  0.4087640000000  0.4912520000000  0.4565460000000 1.0
C      1  0.5563790000000  0.5675710000000  0.4961830000000 1.0
C      1  0.4163240000000  0.4771860000000  0.5187090000000 1.0
C      1  0.5089660000000  0.4416340000000  0.4918380000000 1.0
C      1  0.4121220000000  0.5067050000000  0.5022680000000 1.0
C      1  0.4371810000000  0.4965620000000  0.5332760000000 1.0
C      1  0.5407810000000  0.5878960000000  0.5160750000000 1.0
C      1  0.5721680000000  0.4791670000000  0.5418220000000 1.0
C      1  0.4852720000000  0.5054290000000  0.5835220000000 1.0
C      1  0.4887590000000  0.5485560000000  0.4257570000000 1.0
C      1  0.5142600000000  0.4587300000000  0.5273680000000 1.0
C      1  0.5504250000000  0.4778000000000  0.4261760000000 1.0
C      1  0.6352640000000  0.5016040000000  0.5074570000000 1.0
C      1  0.5003670000000  0.5257120000000  0.4102270000000 1.0
C      1  0.4535560000000  0.4175750000000  0.4745210000000 1.0
C      1  0.4740700000000  0.5290370000000  0.4902510000000 1.0
C      1  0.4626930000000  0.4961460000000  0.5407940000000 1.0
C      1  0.4394860000000  0.5622430000000  0.5205610000000 1.0
C      1  0.4732890000000  0.4787360000000  0.4510230000000 1.0
C      1  0.5419310000000  0.4984910000000  0.4086420000000 1.0
C      1  0.5073340000000  0.4980260000000  0.5253980000000 1.0
C      1  0.4813550000000  0.5418010000000  0.5140000000000 1.0
C      1  0.4672320000000  0.5680280000000  0.5179210000000 1.0
C      1  0.4975980000000  0.5900540000000  0.4581620000000 1.0
C      1  0.4633880000000  0.5562120000000  0.4363090000000 1.0
C      1  0.4537620000000  0.4427730000000  0.5508780000000 1.0
C      1  0.5478210000000  0.4548580000000  0.4799080000000 1.0
C      1  0.4455520000000  0.5799410000000  0.4775850000000 1.0
C      1  0.5066270000000  0.5313470000000  0.4492240000000 1.0
C      1  0.4759730000000  0.5185970000000  0.5572170000000 1.0
C      1  0.5264950000000  0.5714420000000  0.5641410000000 1.0
C      1  0.4091120000000  0.5135890000000  0.4739780000000 1.0
C      1  0.5314080000000  0.4151080000000  0.5150760000000 1.0
C      1  0.5541590000000  0.5511660000000  0.5236490000000 1.0
C      1  0.5297720000000  0.5190650000000  0.4962720000000 1.0
C      1  0.5216720000000  0.5837760000000  0.4580040000000 1.0
C      1  0.5052770000000  0.4331970000000  0.5631640000000 1.0
C      1  0.4549780000000  0.4634480000000  0.4090620000000 1.0
C      1  0.5320970000000  0.5113410000000  0.5450770000000 1.0
C      1  0.5162840000000  0.5706290000000  0.5100710000000 1.0
C      1  0.5301120000000  0.4392130000000  0.4580250000000 1.0
C      1  0.5961080000000  0.4897500000000  0.5517360000000 1.0
C      1  0.5067110000000  0.4059820000000  0.5230500000000 1.0
C      1  0.4804200000000  0.4765730000000  0.4042650000000 1.0
C      1  0.4358050000000  0.5432740000000  0.5452410000000 1.0
C      1  0.4479680000000  0.5328710000000  0.4445900000000 1.0
C      1  0.5392150000000  0.5596420000000  0.4678020000000 1.0
C      1  0.5057280000000  0.4988650000000  0.4930450000000 1.0
C      1  0.4804500000000  0.5045660000000  0.4116860000000 1.0
C      1  0.4239070000000  0.4474680000000  0.5578870000000 1.0
C      1  0.6050470000000  0.4907050000000  0.5031060000000 1.0
C      1  0.4857010000000  0.4579290000000  0.5098310000000 1.0
C      1  0.5387530000000  0.5352950000000  0.4462890000000 1.0
C      1  0.4942300000000  0.5768560000000  0.5279390000000 1.0
C      1  0.5657040000000  0.4875820000000  0.4480760000000 1.0
C      1  0.5363600000000  0.5175240000000  0.5741260000000 1.0
C      1  0.4810490000000  0.4113020000000  0.5117730000000 1.0
C      1  0.5280540000000  0.5218310000000  0.4168870000000 1.0
C      1  0.5336190000000  0.4181880000000  0.4847660000000 1.0
C      1  0.4834440000000  0.5434430000000  0.4681100000000 1.0
END
