TITL C-2778427-5640-1371 -0.000237358329199983 125000 -682.289696551874 0 0 117 (C1) n - 1
REM
REM in /home/nfs/bkarasulu/CARBON/AIRSS/Generating-Clusters/REBO/Only-C1/SD-CG/HFTN-CG
REM
REM
REM
REM
REM
REM ./C.cell (11c1c37f851c82e70ff6c80c92926a4b)
REM
REM compiler GCC version 9.2.1 20190827 (Red Hat 9.2.1-1)
REM options -cpp -mtune=generic -march=x86-64 -g -O0 -fpre-include=/usr/include/finclude/math-vector-fortran.h
REM seed 564027785 -1386379666 -106856173 1447466210 158160634 142035181 -262246502 1341408045 -2146322448 -1073024463 1671750807 1209152450 -1939884726 489955311 -80186083 1210041365 -1991988357 311075653 201620524 289702524 1875660259 -1504238442 -545293292 1528740753 -1442243527 -541731439 -498615900 308726572 365726458 1405532365 39120795 931019096 1924008322
REM
CELL 1.54180   50.00000   50.00000   50.00000   90.00000   90.00000   90.00000
LATT -1
SFAC C  
C      1  0.4495400000000  0.4759480000000  0.5712370000000 1.0
C      1  0.4927220000000  0.4448980000000  0.4240400000000 1.0
C      1  0.4238060000000  0.4797140000000  0.4613400000000 1.0
C      1  0.5267880000000  0.5488910000000  0.5384910000000 1.0
C      1  0.4902490000000  0.4693810000000  0.5334600000000 1.0
C      1  0.5407690000000  0.5484650000000  0.4519020000000 1.0
C      1  0.4668110000000  0.5209370000000  0.5617340000000 1.0
C      1  0.5080230000000  0.5493050000000  0.5886070000000 1.0
C      1  0.5155300000000  0.4488600000000  0.4038670000000 1.0
C      1  0.5526960000000  0.5186450000000  0.5379010000000 1.0
C      1  0.5501400000000  0.5351070000000  0.5676590000000 1.0
C      1  0.5075650000000  0.5700780000000  0.4503720000000 1.0
C      1  0.5699390000000  0.4188530000000  0.5423300000000 1.0
C      1  0.4959750000000  0.4574410000000  0.5786880000000 1.0
C      1  0.4620280000000  0.5800140000000  0.5149050000000 1.0
C      1  0.4536520000000  0.5237050000000  0.5101850000000 1.0
C      1  0.5780010000000  0.4648720000000  0.5207830000000 1.0
C      1  0.4408630000000  0.5421980000000  0.5557130000000 1.0
C      1  0.4675760000000  0.5608300000000  0.5599260000000 1.0
C      1  0.4947490000000  0.4273260000000  0.5628500000000 1.0
C      1  0.5017580000000  0.5518170000000  0.5261090000000 1.0
C      1  0.5259710000000  0.5626430000000  0.4776790000000 1.0
C      1  0.5245190000000  0.4956960000000  0.5584840000000 1.0
C      1  0.5001930000000  0.5375650000000  0.5013200000000 1.0
C      1  0.5479960000000  0.5551130000000  0.5223670000000 1.0
C      1  0.4975570000000  0.5052080000000  0.4063630000000 1.0
C      1  0.5302060000000  0.4735010000000  0.5051480000000 1.0
C      1  0.4921340000000  0.5324110000000  0.4252930000000 1.0
C      1  0.4784880000000  0.5164620000000  0.5323440000000 1.0
C      1  0.4230210000000  0.5211270000000  0.5357410000000 1.0
C      1  0.4610980000000  0.5092010000000  0.4815860000000 1.0
C      1  0.4069040000000  0.5275240000000  0.5121560000000 1.0
C      1  0.5824130000000  0.4935450000000  0.4702270000000 1.0
C      1  0.5074950000000  0.5215330000000  0.5908530000000 1.0
C      1  0.5265480000000  0.4668630000000  0.5751590000000 1.0
C      1  0.4074350000000  0.5336520000000  0.4785050000000 1.0
C      1  0.5522480000000  0.4501850000000  0.5121890000000 1.0
C      1  0.5779530000000  0.5286730000000  0.5197240000000 1.0
C      1  0.5967810000000  0.5237180000000  0.4715480000000 1.0
C      1  0.4729040000000  0.4450420000000  0.5454140000000 1.0
C      1  0.4498440000000  0.5654430000000  0.4510890000000 1.0
C      1  0.4017290000000  0.5116330000000  0.4335960000000 1.0
C      1  0.4810680000000  0.5672750000000  0.5370350000000 1.0
C      1  0.5270850000000  0.5284330000000  0.4757650000000 1.0
C      1  0.5238110000000  0.4388300000000  0.5569550000000 1.0
C      1  0.4767030000000  0.4847090000000  0.4487470000000 1.0
C      1  0.4940670000000  0.5866030000000  0.4771420000000 1.0
C      1  0.5316470000000  0.4401470000000  0.4319260000000 1.0
C      1  0.3943060000000  0.5048530000000  0.4914820000000 1.0
C      1  0.4710680000000  0.4991580000000  0.4211250000000 1.0
C      1  0.5250940000000  0.4992090000000  0.4066060000000 1.0
C      1  0.5252240000000  0.4219480000000  0.5048560000000 1.0
C      1  0.4886080000000  0.5152570000000  0.4532460000000 1.0
C      1  0.5039320000000  0.4982130000000  0.5372970000000 1.0
C      1  0.4851700000000  0.5008180000000  0.5022040000000 1.0
C      1  0.4269620000000  0.4562700000000  0.5319250000000 1.0
C      1  0.5336610000000  0.4728090000000  0.4091840000000 1.0
C      1  0.5714760000000  0.4444600000000  0.4736430000000 1.0
C      1  0.5411060000000  0.4424490000000  0.4825720000000 1.0
C      1  0.5490290000000  0.4847450000000  0.5398540000000 1.0
C      1  0.4620290000000  0.4736750000000  0.5199760000000 1.0
C      1  0.4185130000000  0.5615810000000  0.4897730000000 1.0
C      1  0.4269280000000  0.4632770000000  0.5044100000000 1.0
C      1  0.5364600000000  0.5099400000000  0.5849650000000 1.0
C      1  0.5191370000000  0.5477680000000  0.4273630000000 1.0
C      1  0.3666960000000  0.5012480000000  0.4908620000000 1.0
C      1  0.5615080000000  0.5131240000000  0.4513530000000 1.0
C      1  0.4444700000000  0.4963670000000  0.5269030000000 1.0
C      1  0.5521060000000  0.4671860000000  0.4361110000000 1.0
C      1  0.4886740000000  0.4497650000000  0.4847570000000 1.0
C      1  0.4139800000000  0.5319830000000  0.4487980000000 1.0
C      1  0.5583890000000  0.5231470000000  0.4820010000000 1.0
C      1  0.5778360000000  0.4920370000000  0.5039610000000 1.0
C      1  0.5877200000000  0.5006660000000  0.5356510000000 1.0
C      1  0.4969500000000  0.4627170000000  0.4471590000000 1.0
C      1  0.5167640000000  0.5107000000000  0.5099390000000 1.0
C      1  0.5557600000000  0.4821080000000  0.5791610000000 1.0
C      1  0.4817400000000  0.4158680000000  0.5336000000000 1.0
C      1  0.4642640000000  0.4136090000000  0.4557670000000 1.0
C      1  0.5806260000000  0.5430040000000  0.4930370000000 1.0
C      1  0.5233790000000  0.4550700000000  0.4608410000000 1.0
C      1  0.5755160000000  0.4696630000000  0.5544290000000 1.0
C      1  0.5705920000000  0.5077760000000  0.5643930000000 1.0
C      1  0.5227910000000  0.4632000000000  0.5355270000000 1.0
C      1  0.4582490000000  0.5265020000000  0.4264420000000 1.0
C      1  0.4772600000000  0.5623830000000  0.4634180000000 1.0
C      1  0.5074940000000  0.4222280000000  0.4764920000000 1.0
C      1  0.5714760000000  0.5725200000000  0.4951870000000 1.0
C      1  0.5165050000000  0.5884540000000  0.5197960000000 1.0
C      1  0.4460800000000  0.4547320000000  0.5529390000000 1.0
C      1  0.4682980000000  0.4223760000000  0.4816280000000 1.0
C      1  0.5406940000000  0.4268830000000  0.5329280000000 1.0
C      1  0.5408190000000  0.5212730000000  0.4251420000000 1.0
C      1  0.5872490000000  0.4408790000000  0.5428100000000 1.0
C      1  0.4849830000000  0.5068090000000  0.5823730000000 1.0
C      1  0.4916480000000  0.5893390000000  0.5053960000000 1.0
C      1  0.4093540000000  0.4856890000000  0.4382360000000 1.0
C      1  0.4389130000000  0.5420510000000  0.4393600000000 1.0
C      1  0.4395450000000  0.5025050000000  0.5592110000000 1.0
C      1  0.4531150000000  0.4817600000000  0.4679680000000 1.0
C      1  0.5753710000000  0.4660210000000  0.4562190000000 1.0
C      1  0.5049570000000  0.4771370000000  0.4884390000000 1.0
C      1  0.5358480000000  0.4936720000000  0.4446470000000 1.0
C      1  0.4812080000000  0.5355320000000  0.4768550000000 1.0
C      1  0.4582710000000  0.4605770000000  0.4911430000000 1.0
C      1  0.5135540000000  0.4993550000000  0.4655330000000 1.0
C      1  0.4112600000000  0.4797210000000  0.4870740000000 1.0
C      1  0.5288530000000  0.5611280000000  0.5679400000000 1.0
C      1  0.4915580000000  0.4159800000000  0.5059140000000 1.0
C      1  0.5213620000000  0.5873290000000  0.5473670000000 1.0
C      1  0.4767850000000  0.4785630000000  0.5819950000000 1.0
C      1  0.5459410000000  0.5014480000000  0.5023900000000 1.0
C      1  0.4841780000000  0.4170770000000  0.4348370000000 1.0
C      1  0.5394640000000  0.5765640000000  0.4999600000000 1.0
C      1  0.4349910000000  0.5779670000000  0.4976240000000 1.0
C      1  0.5120840000000  0.4191350000000  0.4475030000000 1.0
C      1  0.4471710000000  0.5507230000000  0.5240520000000 1.0
END
