TITL C-2778425-5191-579 -0.00192046360742331 125000 -282.090756951393 0 0 49 (C1) n - 1
REM
REM in /home/nfs/bkarasulu/CARBON/AIRSS/Generating-Clusters/REBO/Only-C1/SD-CG/HFTN-CG
REM
REM
REM
REM
REM
REM ./C.cell (11c1c37f851c82e70ff6c80c92926a4b)
REM
REM compiler GCC version 9.2.1 20190827 (Red Hat 9.2.1-1)
REM options -cpp -mtune=generic -march=x86-64 -g -O0 -fpre-include=/usr/include/finclude/math-vector-fortran.h
REM seed 1964071414 -1732989876 2058707145 386296840 2123347829 1714666731 -2012294013 -967524841 -97186111 -1504837666 -991702682 -1356367580 1665431687 -1790851561 -266681683 204604411 1125398905 -1495723550 1593597173 398800078 1227106775 -1151368697 -372485199 -816057457 1034314413 875282616 2050923058 1212476717 -1813357278 -1697507710 279812195 -1171834505 -1680312741
REM
CELL 1.54180   50.00000   50.00000   50.00000   90.00000   90.00000   90.00000
LATT -1
SFAC C  
C      1  0.4933600000000  0.4768410000000  0.5712160000000 1.0
C      1  0.4235400000000  0.4751980000000  0.5646100000000 1.0
C      1  0.5694030000000  0.5297150000000  0.5329340000000 1.0
C      1  0.5580020000000  0.5097500000000  0.5495470000000 1.0
C      1  0.5290030000000  0.4887020000000  0.4520000000000 1.0
C      1  0.4562230000000  0.4978840000000  0.4525430000000 1.0
C      1  0.4798670000000  0.4576500000000  0.4832280000000 1.0
C      1  0.5047970000000  0.5272920000000  0.5561670000000 1.0
C      1  0.5796820000000  0.5260930000000  0.4580400000000 1.0
C      1  0.5235900000000  0.5674590000000  0.5004700000000 1.0
C      1  0.4358370000000  0.4898780000000  0.4708170000000 1.0
C      1  0.5449610000000  0.4692620000000  0.5218130000000 1.0
C      1  0.5276450000000  0.5201300000000  0.4798390000000 1.0
C      1  0.4255280000000  0.4636420000000  0.3958120000000 1.0
C      1  0.5646320000000  0.5348810000000  0.5061470000000 1.0
C      1  0.4439890000000  0.4721580000000  0.4123500000000 1.0
C      1  0.4617400000000  0.4640160000000  0.5046030000000 1.0
C      1  0.5151340000000  0.4646930000000  0.5308470000000 1.0
C      1  0.5223940000000  0.4511220000000  0.4836990000000 1.0
C      1  0.4872820000000  0.4317100000000  0.4795300000000 1.0
C      1  0.5052830000000  0.5088280000000  0.4597590000000 1.0
C      1  0.4726570000000  0.6100290000000  0.5345630000000 1.0
C      1  0.5392140000000  0.5455950000000  0.4942420000000 1.0
C      1  0.5103790000000  0.4746510000000  0.5025110000000 1.0
C      1  0.4697930000000  0.5278110000000  0.4889100000000 1.0
C      1  0.4922120000000  0.4630370000000  0.5466810000000 1.0
C      1  0.5068680000000  0.5010350000000  0.5748870000000 1.0
C      1  0.4391600000000  0.4786560000000  0.4957920000000 1.0
C      1  0.5339450000000  0.5148840000000  0.5634170000000 1.0
C      1  0.5087420000000  0.5030860000000  0.4993470000000 1.0
C      1  0.5618270000000  0.5172850000000  0.4776250000000 1.0
C      1  0.5156910000000  0.4663130000000  0.4394880000000 1.0
C      1  0.4656080000000  0.4534980000000  0.5336370000000 1.0
C      1  0.4908940000000  0.5367050000000  0.5335600000000 1.0
C      1  0.5613470000000  0.4831450000000  0.5401240000000 1.0
C      1  0.4904700000000  0.4721880000000  0.4278270000000 1.0
C      1  0.4673370000000  0.5838810000000  0.5443410000000 1.0
C      1  0.4425180000000  0.4654080000000  0.5506370000000 1.0
C      1  0.4636750000000  0.4812380000000  0.4299850000000 1.0
C      1  0.4750170000000  0.5160560000000  0.4634450000000 1.0
C      1  0.5502450000000  0.4882480000000  0.4719230000000 1.0
C      1  0.4878860000000  0.5206150000000  0.5099280000000 1.0
C      1  0.4644730000000  0.4249490000000  0.5337940000000 1.0
C      1  0.5480100000000  0.4673410000000  0.4919960000000 1.0
C      1  0.4903390000000  0.4794590000000  0.4682550000000 1.0
C      1  0.4938610000000  0.6085270000000  0.5156960000000 1.0
C      1  0.5027730000000  0.5807540000000  0.5132490000000 1.0
C      1  0.5178110000000  0.4438500000000  0.4567980000000 1.0
C      1  0.4853560000000  0.5648520000000  0.5313720000000 1.0
END
