TITL C-2778422-5617-1450 -0.0101848818756798 125000 -1063.49084446597 0 0 182 (C1) n - 1
REM
REM in /home/nfs/bkarasulu/CARBON/AIRSS/Generating-Clusters/REBO/Only-C1/SD-CG/HFTN-CG
REM
REM
REM
REM
REM
REM ./C.cell (11c1c37f851c82e70ff6c80c92926a4b)
REM
REM compiler GCC version 9.2.1 20190827 (Red Hat 9.2.1-1)
REM options -cpp -mtune=generic -march=x86-64 -g -O0 -fpre-include=/usr/include/finclude/math-vector-fortran.h
REM seed -5618068 -878960129 -262627465 -1657248900 1689792980 2115960592 -1083512085 560684811 -1386874664 -1418819669 1668188925 2035516146 -230721938 -1106977143 -1770375537 14478478 -894753328 -524587384 -131559259 1003559399 -1144462942 830716337 2008751352 -984658546 802301531 1296804090 1134309 -16222712 -768551172 290479266 1435235217 2000632093 1167091527
REM
CELL 1.54180   50.00000   50.00000   50.00000   90.00000   90.00000   90.00000
LATT -1
SFAC C  
C      1  0.5724460000000  0.5103920000000  0.5745650000000 1.0
C      1  0.5324180000000  0.4139480000000  0.5571910000000 1.0
C      1  0.4777700000000  0.5957310000000  0.5452920000000 1.0
C      1  0.4395590000000  0.5726210000000  0.4612200000000 1.0
C      1  0.5991270000000  0.5280010000000  0.4895210000000 1.0
C      1  0.5597630000000  0.4634200000000  0.4789520000000 1.0
C      1  0.4262050000000  0.5322610000000  0.5731890000000 1.0
C      1  0.5529710000000  0.4894240000000  0.4494430000000 1.0
C      1  0.5205870000000  0.5160220000000  0.5670160000000 1.0
C      1  0.5511970000000  0.5962260000000  0.5491520000000 1.0
C      1  0.4454170000000  0.5306910000000  0.4166300000000 1.0
C      1  0.4337690000000  0.4711440000000  0.4796870000000 1.0
C      1  0.4899030000000  0.4857970000000  0.5411070000000 1.0
C      1  0.5319360000000  0.5900440000000  0.4595160000000 1.0
C      1  0.5264000000000  0.4882480000000  0.5948700000000 1.0
C      1  0.4149720000000  0.4499570000000  0.5426540000000 1.0
C      1  0.5290280000000  0.4789640000000  0.4393220000000 1.0
C      1  0.4574470000000  0.4182370000000  0.4500100000000 1.0
C      1  0.5066000000000  0.4651210000000  0.4948650000000 1.0
C      1  0.5358810000000  0.4918470000000  0.5212950000000 1.0
C      1  0.4165040000000  0.5428490000000  0.5207700000000 1.0
C      1  0.4753670000000  0.4793590000000  0.5147830000000 1.0
C      1  0.6047470000000  0.4856390000000  0.4681920000000 1.0
C      1  0.5789450000000  0.5240150000000  0.5340880000000 1.0
C      1  0.4497140000000  0.4902380000000  0.6133340000000 1.0
C      1  0.5986330000000  0.5184450000000  0.4592780000000 1.0
C      1  0.4867090000000  0.5386750000000  0.6030160000000 1.0
C      1  0.4794480000000  0.5235410000000  0.4359950000000 1.0
C      1  0.5274590000000  0.4991320000000  0.4932550000000 1.0
C      1  0.4774970000000  0.5706980000000  0.4972200000000 1.0
C      1  0.5626560000000  0.5522930000000  0.4400390000000 1.0
C      1  0.4803010000000  0.5318350000000  0.5626030000000 1.0
C      1  0.4900560000000  0.5812280000000  0.4184170000000 1.0
C      1  0.5332760000000  0.5680150000000  0.5067950000000 1.0
C      1  0.5059010000000  0.5747900000000  0.4880220000000 1.0
C      1  0.5982400000000  0.4937400000000  0.4365390000000 1.0
C      1  0.5010320000000  0.4677540000000  0.3995870000000 1.0
C      1  0.6023530000000  0.4828810000000  0.5468650000000 1.0
C      1  0.5737450000000  0.5914700000000  0.4789310000000 1.0
C      1  0.4810470000000  0.4054860000000  0.4709310000000 1.0
C      1  0.4271370000000  0.5737800000000  0.5120360000000 1.0
C      1  0.4694800000000  0.5626590000000  0.5854680000000 1.0
C      1  0.5864760000000  0.5546030000000  0.5405660000000 1.0
C      1  0.4983460000000  0.4253220000000  0.5009920000000 1.0
C      1  0.5115080000000  0.4139710000000  0.5266750000000 1.0
C      1  0.4618600000000  0.5976260000000  0.4931850000000 1.0
C      1  0.4761780000000  0.3982710000000  0.5354580000000 1.0
C      1  0.4311220000000  0.4407660000000  0.4523550000000 1.0
C      1  0.4981770000000  0.4111870000000  0.5579730000000 1.0
C      1  0.4244340000000  0.4331460000000  0.5077890000000 1.0
C      1  0.5079030000000  0.5848870000000  0.4402860000000 1.0
C      1  0.5255570000000  0.6025370000000  0.5637110000000 1.0
C      1  0.5535560000000  0.4407490000000  0.5361250000000 1.0
C      1  0.4244010000000  0.4845460000000  0.4186230000000 1.0
C      1  0.5523000000000  0.5040270000000  0.4048540000000 1.0
C      1  0.3949680000000  0.5131760000000  0.4584330000000 1.0
C      1  0.4857310000000  0.4616220000000  0.4358810000000 1.0
C      1  0.4439760000000  0.5007490000000  0.4053360000000 1.0
C      1  0.5984170000000  0.4646640000000  0.5197600000000 1.0
C      1  0.4976890000000  0.5285370000000  0.5136040000000 1.0
C      1  0.5798390000000  0.4724490000000  0.4256130000000 1.0
C      1  0.5149320000000  0.6030740000000  0.5035180000000 1.0
C      1  0.4505320000000  0.5357250000000  0.5529350000000 1.0
C      1  0.4932890000000  0.4383400000000  0.5779910000000 1.0
C      1  0.5421460000000  0.4012620000000  0.5288340000000 1.0
C      1  0.5119660000000  0.4161270000000  0.4279630000000 1.0
C      1  0.4495020000000  0.4489660000000  0.5140740000000 1.0
C      1  0.4276530000000  0.5285760000000  0.4413500000000 1.0
C      1  0.5115770000000  0.4439160000000  0.4472270000000 1.0
C      1  0.4205220000000  0.5648420000000  0.4813700000000 1.0
C      1  0.4431530000000  0.4791400000000  0.5092560000000 1.0
C      1  0.6135360000000  0.5081140000000  0.5068890000000 1.0
C      1  0.4746240000000  0.4567260000000  0.5979240000000 1.0
C      1  0.5320270000000  0.5535330000000  0.4360600000000 1.0
C      1  0.5599200000000  0.4184160000000  0.4318230000000 1.0
C      1  0.4761680000000  0.5236420000000  0.4029660000000 1.0
C      1  0.5167500000000  0.5198580000000  0.4678810000000 1.0
C      1  0.4951630000000  0.4953830000000  0.4916490000000 1.0
C      1  0.4372070000000  0.5067220000000  0.4624440000000 1.0
C      1  0.4644170000000  0.4964500000000  0.4804050000000 1.0
C      1  0.4484730000000  0.4772000000000  0.4495480000000 1.0
C      1  0.5166240000000  0.5695930000000  0.5433440000000 1.0
C      1  0.5838050000000  0.4351410000000  0.5242790000000 1.0
C      1  0.3783650000000  0.5112490000000  0.5136100000000 1.0
C      1  0.4607910000000  0.5489420000000  0.4490640000000 1.0
C      1  0.5668160000000  0.4688080000000  0.5117120000000 1.0
C      1  0.3958980000000  0.4678800000000  0.4918620000000 1.0
C      1  0.4661100000000  0.5173940000000  0.5073270000000 1.0
C      1  0.5085630000000  0.5862740000000  0.5821520000000 1.0
C      1  0.5114610000000  0.5271320000000  0.4353080000000 1.0
C      1  0.4050540000000  0.4880090000000  0.4406450000000 1.0
C      1  0.4631550000000  0.5468230000000  0.4805140000000 1.0
C      1  0.4503450000000  0.5100120000000  0.5336520000000 1.0
C      1  0.4485100000000  0.4098050000000  0.5293080000000 1.0
C      1  0.4924750000000  0.4375830000000  0.4127460000000 1.0
C      1  0.4524210000000  0.5934810000000  0.5243380000000 1.0
C      1  0.4368710000000  0.4985080000000  0.5628570000000 1.0
C      1  0.4803510000000  0.4453090000000  0.5171590000000 1.0
C      1  0.5059900000000  0.4996880000000  0.3907160000000 1.0
C      1  0.4019130000000  0.4514500000000  0.5137580000000 1.0
C      1  0.5509610000000  0.4396030000000  0.5020170000000 1.0
C      1  0.4648790000000  0.5585530000000  0.4181980000000 1.0
C      1  0.5048700000000  0.5105080000000  0.6094660000000 1.0
C      1  0.5826270000000  0.5475430000000  0.4581710000000 1.0
C      1  0.5764800000000  0.5391840000000  0.5700350000000 1.0
C      1  0.5223310000000  0.5485970000000  0.4041820000000 1.0
C      1  0.5370120000000  0.4240400000000  0.4747470000000 1.0
C      1  0.4935770000000  0.5371060000000  0.4828430000000 1.0
C      1  0.5475940000000  0.5940420000000  0.5206380000000 1.0
C      1  0.4224390000000  0.4950140000000  0.5258220000000 1.0
C      1  0.5288170000000  0.5428830000000  0.5773240000000 1.0
C      1  0.5089570000000  0.6005050000000  0.5337450000000 1.0
C      1  0.4923970000000  0.4371120000000  0.4710430000000 1.0
C      1  0.4473330000000  0.5618160000000  0.5367490000000 1.0
C      1  0.4941870000000  0.5538920000000  0.5442770000000 1.0
C      1  0.5309200000000  0.4595620000000  0.4138280000000 1.0
C      1  0.5275340000000  0.4558800000000  0.4741810000000 1.0
C      1  0.5830540000000  0.4640920000000  0.4584520000000 1.0
C      1  0.4923580000000  0.5533180000000  0.3990870000000 1.0
C      1  0.5379730000000  0.5595410000000  0.5571990000000 1.0
C      1  0.4092620000000  0.5356020000000  0.4800370000000 1.0
C      1  0.4627600000000  0.4385090000000  0.4266270000000 1.0
C      1  0.4452790000000  0.4649590000000  0.5828470000000 1.0
C      1  0.4070800000000  0.4626420000000  0.4600800000000 1.0
C      1  0.5448350000000  0.6039740000000  0.4879720000000 1.0
C      1  0.4804970000000  0.5844200000000  0.5720340000000 1.0
C      1  0.4082930000000  0.5468760000000  0.4418080000000 1.0
C      1  0.5109820000000  0.5579400000000  0.5932760000000 1.0
C      1  0.3808820000000  0.5207160000000  0.4885820000000 1.0
C      1  0.4479160000000  0.5043150000000  0.5909130000000 1.0
C      1  0.5248710000000  0.5164960000000  0.4058730000000 1.0
C      1  0.5948320000000  0.4352430000000  0.4572200000000 1.0
C      1  0.5409060000000  0.3939510000000  0.5008030000000 1.0
C      1  0.5497260000000  0.5197380000000  0.5212570000000 1.0
C      1  0.4750010000000  0.4901260000000  0.3964380000000 1.0
C      1  0.5250440000000  0.4468830000000  0.5522990000000 1.0
C      1  0.5932820000000  0.4900560000000  0.5730300000000 1.0
C      1  0.5520990000000  0.4743450000000  0.5424130000000 1.0
C      1  0.5455710000000  0.4959580000000  0.5678410000000 1.0
C      1  0.4508850000000  0.5978870000000  0.4681960000000 1.0
C      1  0.5465240000000  0.5362310000000  0.4727790000000 1.0
C      1  0.5844240000000  0.5662100000000  0.4795770000000 1.0
C      1  0.5339760000000  0.4609320000000  0.6105990000000 1.0
C      1  0.5272020000000  0.5402960000000  0.5185110000000 1.0
C      1  0.4470470000000  0.4133300000000  0.4963160000000 1.0
C      1  0.5194870000000  0.4572990000000  0.5818980000000 1.0
C      1  0.5138500000000  0.3965040000000  0.4909410000000 1.0
C      1  0.4564260000000  0.4413680000000  0.5632150000000 1.0
C      1  0.5667010000000  0.5312140000000  0.4968620000000 1.0
C      1  0.6022780000000  0.5081240000000  0.5322850000000 1.0
C      1  0.4711050000000  0.4733770000000  0.5622430000000 1.0
C      1  0.5071590000000  0.4911180000000  0.4521310000000 1.0
C      1  0.5647850000000  0.4060630000000  0.4826700000000 1.0
C      1  0.4750780000000  0.4636940000000  0.4789900000000 1.0
C      1  0.6131450000000  0.4813870000000  0.4963370000000 1.0
C      1  0.4112650000000  0.4958490000000  0.4817340000000 1.0
C      1  0.4542270000000  0.5349260000000  0.5927300000000 1.0
C      1  0.4881550000000  0.4814900000000  0.6032320000000 1.0
C      1  0.5135970000000  0.4670670000000  0.5282830000000 1.0
C      1  0.5131030000000  0.4056120000000  0.4586350000000 1.0
C      1  0.5851270000000  0.4153950000000  0.5048870000000 1.0
C      1  0.4990450000000  0.5142770000000  0.5419080000000 1.0
C      1  0.4734040000000  0.3947000000000  0.5022980000000 1.0
C      1  0.4758150000000  0.5612800000000  0.5250790000000 1.0
C      1  0.5761280000000  0.4152980000000  0.4546130000000 1.0
C      1  0.4208150000000  0.4715750000000  0.5606980000000 1.0
C      1  0.5527490000000  0.5033230000000  0.4723840000000 1.0
C      1  0.4845890000000  0.4465460000000  0.5466020000000 1.0
C      1  0.4767540000000  0.4912360000000  0.4428950000000 1.0
C      1  0.3992890000000  0.5087990000000  0.5327300000000 1.0
C      1  0.4386450000000  0.5330270000000  0.4967880000000 1.0
C      1  0.5571050000000  0.4779380000000  0.4109000000000 1.0
C      1  0.5080810000000  0.5581190000000  0.4601280000000 1.0
C      1  0.5430920000000  0.5660590000000  0.4763700000000 1.0
C      1  0.5384860000000  0.4303390000000  0.4204650000000 1.0
C      1  0.5887470000000  0.5537240000000  0.5092020000000 1.0
C      1  0.4358840000000  0.4289770000000  0.5458220000000 1.0
C      1  0.4532580000000  0.4374640000000  0.4763830000000 1.0
C      1  0.5671190000000  0.5707630000000  0.5605790000000 1.0
C      1  0.4375390000000  0.4570830000000  0.4244000000000 1.0
C      1  0.4068680000000  0.5337360000000  0.5481050000000 1.0
C      1  0.4904700000000  0.5062800000000  0.5799140000000 1.0
END
