TITL C-2778423-5760-149 0.000752886474213589 125000 -748.316951899379 0 0 127 (C1) n - 1
REM
REM in /home/nfs/bkarasulu/CARBON/AIRSS/Generating-Clusters/REBO/Only-C1/SD-CG/HFTN-CG
REM
REM
REM
REM
REM
REM ./C.cell (11c1c37f851c82e70ff6c80c92926a4b)
REM
REM compiler GCC version 9.2.1 20190827 (Red Hat 9.2.1-1)
REM options -cpp -mtune=generic -march=x86-64 -g -O0 -fpre-include=/usr/include/finclude/math-vector-fortran.h
REM seed 799932151 -383453629 -2002894909 514045622 525038414 140621185 -1227230378 -1251037014 -1722789105 1536029622 479480520 1040993707 -1251874143 -963727054 -1111674414 1621377937 -1371325394 377181852 -1942401535 241234590 -2023047178 -1755650319 1298342902 774380575 1673937607 -1988561672 -850877872 1694945342 79013773 484008279 -546162189 824638434 1655435272
REM
CELL 1.54180   50.00000   50.00000   50.00000   90.00000   90.00000   90.00000
LATT -1
SFAC C  
C      1  0.4588620000000  0.5796360000000  0.5344110000000 1.0
C      1  0.4371010000000  0.4339210000000  0.5586440000000 1.0
C      1  0.4506800000000  0.5088890000000  0.4268100000000 1.0
C      1  0.5896740000000  0.4439460000000  0.4881010000000 1.0
C      1  0.5053340000000  0.5033220000000  0.5650020000000 1.0
C      1  0.5403140000000  0.4454740000000  0.4488120000000 1.0
C      1  0.6012140000000  0.5116430000000  0.4826790000000 1.0
C      1  0.5208270000000  0.5994760000000  0.4678040000000 1.0
C      1  0.5674240000000  0.4279620000000  0.4968580000000 1.0
C      1  0.5567860000000  0.4874190000000  0.5205310000000 1.0
C      1  0.5293470000000  0.5116470000000  0.4038340000000 1.0
C      1  0.4331440000000  0.4711100000000  0.5025050000000 1.0
C      1  0.5191520000000  0.4522660000000  0.5010920000000 1.0
C      1  0.4370630000000  0.5422780000000  0.4779580000000 1.0
C      1  0.4500790000000  0.4557030000000  0.4322580000000 1.0
C      1  0.5125100000000  0.4911690000000  0.4652380000000 1.0
C      1  0.5350130000000  0.5476340000000  0.5147790000000 1.0
C      1  0.5261530000000  0.5331620000000  0.4868630000000 1.0
C      1  0.5277630000000  0.4911870000000  0.5346160000000 1.0
C      1  0.4620840000000  0.5391500000000  0.6201510000000 1.0
C      1  0.5249020000000  0.5979430000000  0.4973550000000 1.0
C      1  0.4650510000000  0.5536280000000  0.4299290000000 1.0
C      1  0.5787720000000  0.5642260000000  0.4934170000000 1.0
C      1  0.5233840000000  0.5060490000000  0.4423130000000 1.0
C      1  0.5104380000000  0.5320030000000  0.5588780000000 1.0
C      1  0.4004670000000  0.5492540000000  0.4916870000000 1.0
C      1  0.4650620000000  0.5731890000000  0.4578430000000 1.0
C      1  0.4249970000000  0.5617550000000  0.5031540000000 1.0
C      1  0.4612820000000  0.4793880000000  0.5740640000000 1.0
C      1  0.4280250000000  0.5430810000000  0.5475760000000 1.0
C      1  0.6126980000000  0.4860490000000  0.4970430000000 1.0
C      1  0.5552840000000  0.4618000000000  0.4311890000000 1.0
C      1  0.4856540000000  0.5391190000000  0.4611790000000 1.0
C      1  0.5726300000000  0.5024140000000  0.4669950000000 1.0
C      1  0.4874120000000  0.4810850000000  0.4194260000000 1.0
C      1  0.5285850000000  0.5567680000000  0.4399580000000 1.0
C      1  0.5007700000000  0.4758500000000  0.5451210000000 1.0
C      1  0.5816120000000  0.4862420000000  0.5409630000000 1.0
C      1  0.5139630000000  0.5085900000000  0.4889870000000 1.0
C      1  0.4637550000000  0.5252560000000  0.4798560000000 1.0
C      1  0.4779230000000  0.5027420000000  0.5267390000000 1.0
C      1  0.5161090000000  0.4248950000000  0.5477220000000 1.0
C      1  0.5228920000000  0.4603280000000  0.4703710000000 1.0
C      1  0.5422260000000  0.4566670000000  0.5207380000000 1.0
C      1  0.5045350000000  0.4379930000000  0.4206430000000 1.0
C      1  0.4209660000000  0.5122290000000  0.5601560000000 1.0
C      1  0.4451710000000  0.5037850000000  0.5789790000000 1.0
C      1  0.4131710000000  0.4935140000000  0.5150120000000 1.0
C      1  0.4883560000000  0.4342280000000  0.5616380000000 1.0
C      1  0.5298580000000  0.5603640000000  0.5588480000000 1.0
C      1  0.4743530000000  0.5753670000000  0.5579050000000 1.0
C      1  0.4530550000000  0.4349470000000  0.4591130000000 1.0
C      1  0.5040280000000  0.5742990000000  0.5078470000000 1.0
C      1  0.4743810000000  0.5851780000000  0.5113130000000 1.0
C      1  0.3923100000000  0.4842810000000  0.5356800000000 1.0
C      1  0.4637200000000  0.4398330000000  0.4911000000000 1.0
C      1  0.4277650000000  0.5229940000000  0.4442950000000 1.0
C      1  0.4344200000000  0.4314160000000  0.5065660000000 1.0
C      1  0.4085430000000  0.5240970000000  0.4723380000000 1.0
C      1  0.4544270000000  0.5334040000000  0.5640050000000 1.0
C      1  0.5431360000000  0.5798600000000  0.5135680000000 1.0
C      1  0.5003450000000  0.5186570000000  0.4201430000000 1.0
C      1  0.5688750000000  0.4422810000000  0.5362560000000 1.0
C      1  0.5489550000000  0.5177350000000  0.5749080000000 1.0
C      1  0.4983030000000  0.5634150000000  0.5647040000000 1.0
C      1  0.5438870000000  0.5760930000000  0.4600120000000 1.0
C      1  0.5722740000000  0.5685910000000  0.4664080000000 1.0
C      1  0.5455840000000  0.5130100000000  0.5489320000000 1.0
C      1  0.5066230000000  0.5477140000000  0.5289080000000 1.0
C      1  0.4562770000000  0.5294250000000  0.5971840000000 1.0
C      1  0.4834640000000  0.4875840000000  0.4525530000000 1.0
C      1  0.4672270000000  0.4761110000000  0.5420970000000 1.0
C      1  0.5558890000000  0.5276150000000  0.5255460000000 1.0
C      1  0.5779510000000  0.4764450000000  0.4470250000000 1.0
C      1  0.4729090000000  0.5273850000000  0.4224250000000 1.0
C      1  0.5160590000000  0.4155420000000  0.5214290000000 1.0
C      1  0.5917270000000  0.4596390000000  0.5337920000000 1.0
C      1  0.5650400000000  0.5088980000000  0.4988390000000 1.0
C      1  0.4269330000000  0.4378080000000  0.4765020000000 1.0
C      1  0.4341850000000  0.5661120000000  0.5292910000000 1.0
C      1  0.4255370000000  0.4244000000000  0.5361660000000 1.0
C      1  0.5142160000000  0.4083240000000  0.4573380000000 1.0
C      1  0.4497330000000  0.4546880000000  0.5264200000000 1.0
C      1  0.5882620000000  0.5336850000000  0.5035040000000 1.0
C      1  0.5322880000000  0.4566510000000  0.5790740000000 1.0
C      1  0.5369650000000  0.4814690000000  0.4138870000000 1.0
C      1  0.4586620000000  0.4469800000000  0.5679450000000 1.0
C      1  0.4328860000000  0.4943230000000  0.4618420000000 1.0
C      1  0.4072160000000  0.4957850000000  0.4848040000000 1.0
C      1  0.5034820000000  0.3831910000000  0.4543590000000 1.0
C      1  0.4553770000000  0.5192220000000  0.5115420000000 1.0
C      1  0.4754460000000  0.5312830000000  0.5436090000000 1.0
C      1  0.5502950000000  0.5707950000000  0.5434270000000 1.0
C      1  0.5148490000000  0.4232400000000  0.4828290000000 1.0
C      1  0.4955950000000  0.5882420000000  0.4569870000000 1.0
C      1  0.4948870000000  0.4573040000000  0.4541910000000 1.0
C      1  0.4665530000000  0.4733950000000  0.4955690000000 1.0
C      1  0.5006830000000  0.5592230000000  0.4467400000000 1.0
C      1  0.4622510000000  0.4943510000000  0.4720480000000 1.0
C      1  0.4776560000000  0.4388850000000  0.5319400000000 1.0
C      1  0.5052550000000  0.5005520000000  0.5143770000000 1.0
C      1  0.4770160000000  0.4361320000000  0.4364190000000 1.0
C      1  0.4297010000000  0.5161590000000  0.5271860000000 1.0
C      1  0.5243950000000  0.4251130000000  0.4367670000000 1.0
C      1  0.5548550000000  0.5003720000000  0.4381440000000 1.0
C      1  0.5019220000000  0.4518680000000  0.5833270000000 1.0
C      1  0.4900290000000  0.4819130000000  0.5858630000000 1.0
C      1  0.6010120000000  0.5289500000000  0.4548030000000 1.0
C      1  0.6033400000000  0.4606350000000  0.5072510000000 1.0
C      1  0.5208710000000  0.5620890000000  0.4808750000000 1.0
C      1  0.4572960000000  0.4816460000000  0.4230310000000 1.0
C      1  0.5232310000000  0.4828510000000  0.5942530000000 1.0
C      1  0.5363040000000  0.5338110000000  0.4270360000000 1.0
C      1  0.3962050000000  0.4940120000000  0.5589480000000 1.0
C      1  0.5876620000000  0.5522020000000  0.4489920000000 1.0
C      1  0.5396870000000  0.4441460000000  0.5526270000000 1.0
C      1  0.4708470000000  0.5654300000000  0.4874180000000 1.0
C      1  0.4768500000000  0.5453150000000  0.5124180000000 1.0
C      1  0.5924660000000  0.4535960000000  0.4615640000000 1.0
C      1  0.4887420000000  0.4244130000000  0.5034440000000 1.0
C      1  0.5728800000000  0.5557190000000  0.5249940000000 1.0
C      1  0.4376460000000  0.5553820000000  0.4479370000000 1.0
C      1  0.5416070000000  0.4192960000000  0.5031720000000 1.0
C      1  0.5096060000000  0.4652820000000  0.4130550000000 1.0
C      1  0.4166420000000  0.4664810000000  0.4728640000000 1.0
C      1  0.4927530000000  0.4626180000000  0.5145010000000 1.0
C      1  0.5392190000000  0.5054130000000  0.5970990000000 1.0
END
