TITL C-2778426-5645-705 7.43729762803395e-05 125000 -397.615769185213 0 0 71 (C1) n - 1
REM
REM in /home/nfs/bkarasulu/CARBON/AIRSS/Generating-Clusters/REBO/Only-C1/SD-CG/HFTN-CG
REM
REM
REM
REM
REM
REM ./C.cell (11c1c37f851c82e70ff6c80c92926a4b)
REM
REM compiler GCC version 9.2.1 20190827 (Red Hat 9.2.1-1)
REM options -cpp -mtune=generic -march=x86-64 -g -O0 -fpre-include=/usr/include/finclude/math-vector-fortran.h
REM seed 1969690100 -477655705 139545329 1716214867 605552493 -168117872 1210494765 781088483 978786012 -253795816 -437922706 -383393391 1519707263 1925034840 -752716885 874369537 1336809487 1917141350 727493700 1160567163 1663429091 1631107605 -2037633286 -972283071 -959115833 -1906161901 321727545 -1825160018 703092230 1856803812 -630922331 1996072561 -775600366
REM
CELL 1.54180   50.00000   50.00000   50.00000   90.00000   90.00000   90.00000
LATT -1
SFAC C  
C      1  0.5853710000000  0.5116970000000  0.4900180000000 1.0
C      1  0.6030180000000  0.4462890000000  0.4485030000000 1.0
C      1  0.5507030000000  0.5051630000000  0.4455130000000 1.0
C      1  0.4913340000000  0.5551180000000  0.5241920000000 1.0
C      1  0.4447560000000  0.4468750000000  0.5098780000000 1.0
C      1  0.4975210000000  0.5275010000000  0.4797820000000 1.0
C      1  0.4438120000000  0.4958710000000  0.4454610000000 1.0
C      1  0.5208960000000  0.5155880000000  0.5514200000000 1.0
C      1  0.5339870000000  0.5215170000000  0.4051440000000 1.0
C      1  0.4889490000000  0.4294070000000  0.4979070000000 1.0
C      1  0.5013340000000  0.5484090000000  0.4979130000000 1.0
C      1  0.5011940000000  0.4902370000000  0.4210630000000 1.0
C      1  0.5226820000000  0.4607550000000  0.4538940000000 1.0
C      1  0.5855960000000  0.4589840000000  0.4622980000000 1.0
C      1  0.5328580000000  0.5715740000000  0.5426510000000 1.0
C      1  0.4594390000000  0.4374070000000  0.4624170000000 1.0
C      1  0.5693860000000  0.4909210000000  0.5352070000000 1.0
C      1  0.4787610000000  0.5353210000000  0.4548910000000 1.0
C      1  0.4083060000000  0.5274460000000  0.5634070000000 1.0
C      1  0.4668930000000  0.4644630000000  0.5632170000000 1.0
C      1  0.4755520000000  0.5000450000000  0.5221520000000 1.0
C      1  0.5070120000000  0.5795530000000  0.5319740000000 1.0
C      1  0.4937890000000  0.5055840000000  0.5421310000000 1.0
C      1  0.4771180000000  0.4937780000000  0.4526900000000 1.0
C      1  0.4911660000000  0.4656300000000  0.4276560000000 1.0
C      1  0.4618910000000  0.4320300000000  0.4907160000000 1.0
C      1  0.5471290000000  0.5099800000000  0.4790900000000 1.0
C      1  0.4268640000000  0.4923820000000  0.4973850000000 1.0
C      1  0.5212680000000  0.5706680000000  0.4851530000000 1.0
C      1  0.5253140000000  0.5535200000000  0.4559990000000 1.0
C      1  0.5711190000000  0.5265540000000  0.4627620000000 1.0
C      1  0.5335990000000  0.5064570000000  0.5048530000000 1.0
C      1  0.4498260000000  0.5018400000000  0.4810170000000 1.0
C      1  0.5841300000000  0.5073430000000  0.5167150000000 1.0
C      1  0.5106370000000  0.5930940000000  0.5057990000000 1.0
C      1  0.5133070000000  0.5163120000000  0.4223740000000 1.0
C      1  0.5284730000000  0.4347150000000  0.5293830000000 1.0
C      1  0.4565950000000  0.4688170000000  0.4595620000000 1.0
C      1  0.5013230000000  0.5031410000000  0.4621350000000 1.0
C      1  0.4198780000000  0.5075990000000  0.5200100000000 1.0
C      1  0.3777630000000  0.5347040000000  0.5714330000000 1.0
C      1  0.4973680000000  0.4361040000000  0.5255220000000 1.0
C      1  0.5359320000000  0.4426710000000  0.4985550000000 1.0
C      1  0.4513480000000  0.4883630000000  0.5353790000000 1.0
C      1  0.4261730000000  0.5176340000000  0.5455730000000 1.0
C      1  0.5249700000000  0.4891400000000  0.4531720000000 1.0
C      1  0.5810640000000  0.4795030000000  0.5569300000000 1.0
C      1  0.5230700000000  0.4659640000000  0.5286290000000 1.0
C      1  0.5459900000000  0.5516590000000  0.5261510000000 1.0
C      1  0.4759340000000  0.4912570000000  0.4930370000000 1.0
C      1  0.4525060000000  0.4580210000000  0.5360100000000 1.0
C      1  0.4851430000000  0.4637470000000  0.4778180000000 1.0
C      1  0.5497940000000  0.5595330000000  0.4988120000000 1.0
C      1  0.5362120000000  0.5253130000000  0.5299650000000 1.0
C      1  0.4737060000000  0.5400930000000  0.5401870000000 1.0
C      1  0.5601400000000  0.4586970000000  0.4832940000000 1.0
C      1  0.4018380000000  0.5405430000000  0.5923910000000 1.0
C      1  0.4793780000000  0.4433660000000  0.4390540000000 1.0
C      1  0.4529400000000  0.5250970000000  0.4578240000000 1.0
C      1  0.5722150000000  0.4877120000000  0.4720460000000 1.0
C      1  0.5066700000000  0.5371910000000  0.4419220000000 1.0
C      1  0.5423810000000  0.4859020000000  0.5276880000000 1.0
C      1  0.5315020000000  0.4755290000000  0.4908540000000 1.0
C      1  0.4245170000000  0.4638830000000  0.4980380000000 1.0
C      1  0.5524300000000  0.5510910000000  0.4698930000000 1.0
C      1  0.4101040000000  0.5494290000000  0.6158300000000 1.0
C      1  0.4943470000000  0.4669850000000  0.5104020000000 1.0
C      1  0.5108360000000  0.4418270000000  0.4775180000000 1.0
C      1  0.4571450000000  0.5169840000000  0.5532660000000 1.0
C      1  0.4771260000000  0.4944290000000  0.5691800000000 1.0
C      1  0.5066730000000  0.5080450000000  0.5792970000000 1.0
END
